REMARK  Name = ZINCvU0000000Gef.0
REMARK                            x       y       z     vdW  Elec       q    Type
REMARK                         _______ _______ _______ _____ _____    ______ ____
ROOT
ATOM      1  N   LIG    1        3.611  -0.619  -0.036  0.00  0.00    -0.590 N 
ATOM      2  C   LIG    1        4.863   0.139  -0.164  0.00  0.00    +0.290 C 
ATOM      3  C   LIG    1        5.792  -0.255   0.995  0.00  0.00    +0.030 C 
ATOM      4  C   LIG    1        5.975  -1.774   1.002  0.00  0.00    +0.040 C 
ATOM      5  C   LIG    1        4.620  -2.451   1.220  0.00  0.00    +0.040 C 
ATOM      6  C   LIG    1        3.678  -2.083   0.070  0.00  0.00    +0.300 C 
ENDROOT
BRANCH   4   7
ATOM      7  C   LIG    1        6.915  -2.162   2.114  0.00  0.00    -0.070 A 
ATOM      8  C   LIG    1        6.559  -1.962   3.412  0.00  0.00    +0.010 A 
ATOM      9  C   LIG    1        7.412  -2.319   4.454  0.00  0.00    +0.010 A 
ATOM     10  C   LIG    1        8.632  -2.868   4.204  0.00  0.00    +0.020 A 
ATOM     11  C   LIG    1        9.038  -3.084   2.876  0.00  0.00    -0.050 A 
ATOM     12  C   LIG    1       10.289  -3.649   2.579  0.00  0.00    +0.020 A 
ATOM     13  C   LIG    1       10.649  -3.845   1.280  0.00  0.00    +0.000 A 
ATOM     14  C   LIG    1        9.793  -3.492   0.238  0.00  0.00    +0.010 A 
ATOM     15  C   LIG    1        8.573  -2.943   0.489  0.00  0.00    +0.020 A 
ATOM     16  C   LIG    1        8.167  -2.726   1.816  0.00  0.00    -0.040 A 
ENDBRANCH   4   7
BRANCH   1  24
ATOM     17  C   LIG    1        0.023   0.038   0.262  0.00  0.00    +0.310 A 
ATOM     18  N   LIG    1       -0.007   1.337   0.003  0.00  0.00    -0.500 NA
ATOM     19  C   LIG    1        1.114   2.011  -0.268  0.00  0.00    +0.490 A 
ATOM     20  N   LIG    1        1.345   3.289  -0.554  0.00  0.00    -0.540 NA
ATOM     21  C   LIG    1        2.644   3.477  -0.748  0.00  0.00    +0.490 A 
ATOM     22  N   LIG    1        3.282   2.342  -0.595  0.00  0.00    -0.360 NA
ATOM     23  N   LIG    1        2.322   1.370  -0.283  0.00  0.00    -0.360 N 
ATOM     24  C   LIG    1        2.396   0.031  -0.021  0.00  0.00    +0.500 A 
ATOM     25  C   LIG    1        1.244  -0.655   0.256  0.00  0.00    -0.160 A 
BRANCH  17  29
ATOM     26  C   LIG    1       -3.587  -2.039   1.115  0.00  0.00    +0.040 A 
ATOM     27  C   LIG    1       -3.619  -0.682   0.845  0.00  0.00    +0.000 A 
ATOM     28  C   LIG    1       -2.451  -0.003   0.567  0.00  0.00    +0.080 A 
ATOM     29  C   LIG    1       -1.235  -0.686   0.559  0.00  0.00    -0.070 A 
ATOM     30  C   LIG    1       -1.209  -2.054   0.826  0.00  0.00    +0.050 A 
ATOM     31  C   LIG    1       -2.384  -2.722   1.108  0.00  0.00    +0.000 A 
ENDBRANCH  17  29
ENDBRANCH   1  24
TORSDOF 3
