REMARK  Name = ZINCpe00000yaqcJ.0
REMARK                            x       y       z     vdW  Elec       q    Type
REMARK                         _______ _______ _______ _____ _____    ______ ____
ROOT
ATOM      1  N   LIG    1       -1.004  -2.094   0.777  0.00  0.00    -0.710 N 
ATOM      2  H   LIG    1       -0.399  -2.501   0.137  0.00  0.00    +0.410 HD
ATOM      3  C   LIG    1       -1.828  -2.868   1.511  0.00  0.00    +0.570 C 
ATOM      4  O   LIG    1       -2.585  -2.358   2.313  0.00  0.00    -0.520 OA
ENDROOT
BRANCH   3   5
ATOM      5  C   LIG    1       -1.811  -4.340   1.340  0.00  0.00    +0.080 A 
ATOM      6  C   LIG    1       -2.663  -5.134   2.108  0.00  0.00    +0.070 A 
ATOM      7  C   LIG    1       -2.644  -6.510   1.938  0.00  0.00    +0.080 A 
ATOM      8  C   LIG    1       -1.766  -7.050   1.013  0.00  0.00    +0.070 A 
ATOM      9  C   LIG    1       -0.936  -6.198   0.281  0.00  0.00    +0.070 A 
ATOM     10  N   LIG    1       -0.983  -4.888   0.465  0.00  0.00    -0.440 NA
BRANCH   9  11
ATOM     11  C   LIG    1        0.008  -6.766  -0.710  0.00  0.00    +0.580 C 
ATOM     12  O   LIG    1        0.056  -7.968  -0.884  0.00  0.00    -0.530 OA
ATOM     13  N   LIG    1        0.812  -5.950  -1.420  0.00  0.00    -0.830 N 
ATOM     14  H   LIG    1        1.430  -6.322  -2.068  0.00  0.00    +0.410 HD
ATOM     15  H   LIG    1        0.774  -4.991  -1.281  0.00  0.00    +0.410 HD
ENDBRANCH   9  11
ENDBRANCH   3   5
BRANCH   1  16
ATOM     16  C   LIG    1       -1.020  -0.639   0.946  0.00  0.00    +0.290 C 
BRANCH  16  20
ATOM     17  C   LIG    1        2.441   2.279  -0.410  0.00  0.00    +0.550 C 
ATOM     18  N   LIG    1        1.455   1.455  -0.004  0.00  0.00    -0.650 N 
ATOM     19  C   LIG    1       -0.019   1.535   0.011  0.00  0.00    +0.300 C 
ATOM     20  C   LIG    1        0.002  -0.004   0.002  0.00  0.00    -0.030 C 
ATOM     21  C   LIG    1        1.414   0.111   0.604  0.00  0.00    +0.290 C 
ATOM     22  O   LIG    1        2.171   3.360  -0.889  0.00  0.00    -0.530 OA
BRANCH  17  25
ATOM     23  C   LIG    1        5.747   2.535   0.470  0.00  0.00    -0.020 C 
ATOM     24  C   LIG    1        4.885   2.921  -0.743  0.00  0.00    +0.060 C 
ATOM     25  C   LIG    1        3.881   1.857  -0.269  0.00  0.00    -0.020 C 
ATOM     26  C   LIG    1        4.447   2.063   1.146  0.00  0.00    +0.030 C 
BRANCH  23  28
ATOM     27  C   LIG    1        7.332   3.234   2.271  0.00  0.00    +0.000 C 
ATOM     28  C   LIG    1        6.402   3.732   1.163  0.00  0.00    +0.010 C 
ENDBRANCH  23  28
ENDBRANCH  17  25
ENDBRANCH  16  20
ENDBRANCH   1  16
TORSDOF 6
