REMARK  Name = ZINCrD00000F5LoM.0
REMARK                            x       y       z     vdW  Elec       q    Type
REMARK                         _______ _______ _______ _____ _____    ______ ____
ROOT
ATOM      1  C   LIG    1       -0.047  -1.926   0.649  0.00  0.00    +0.230 C 
ATOM      2  C   LIG    1        0.237  -0.693  -0.214  0.00  0.00    +0.260 C 
ATOM      3  N   LIG    1        1.431  -0.945  -1.032  0.00  0.00    -0.600 N 
ATOM      4  C   LIG    1        1.452  -2.130  -1.903  0.00  0.00    +0.300 C 
ATOM      5  C   LIG    1        1.086  -3.354  -1.055  0.00  0.00    -0.090 C 
ATOM      6  C   LIG    1        1.124  -4.673  -1.837  0.00  0.00    +0.040 C 
ATOM      7  C   LIG    1        2.604  -4.777  -1.428  0.00  0.00    +0.010 C 
ATOM      8  C   LIG    1        2.253  -3.893  -0.218  0.00  0.00    +0.020 C 
ATOM      9  C   LIG    1        2.483  -0.103  -0.990  0.00  0.00    +0.550 C 
ATOM     10  O   LIG    1        3.420  -0.266  -1.744  0.00  0.00    -0.530 OA
ATOM     11  C   LIG    1       -0.199  -3.154  -0.254  0.00  0.00    +0.040 C 
ENDROOT
BRANCH   1  13
ATOM     12  C   LIG    1       -1.255  -1.062   2.581  0.00  0.00    +0.540 C 
ATOM     13  N   LIG    1       -1.286  -1.719   1.404  0.00  0.00    -0.720 N 
ATOM     14  H   LIG    1       -2.127  -2.054   1.057  0.00  0.00    +0.400 HD
ATOM     15  O   LIG    1       -0.200  -0.641   3.015  0.00  0.00    -0.540 OA
BRANCH  12  17
ATOM     16  C   LIG    1       -2.469  -0.206   4.500  0.00  0.00    +0.150 C 
ATOM     17  C   LIG    1       -2.498  -0.854   3.339  0.00  0.00    -0.090 C 
ENDBRANCH  12  17
ENDBRANCH   1  13
BRANCH   9  18
ATOM     18  C   LIG    1        2.495   1.039  -0.008  0.00  0.00    -0.070 C 
ATOM     19  C   LIG    1        2.533   0.589   1.462  0.00  0.00    +0.060 C 
ATOM     20  C   LIG    1        4.066   0.603   1.346  0.00  0.00    +0.020 C 
ATOM     21  C   LIG    1        3.893   1.639   0.222  0.00  0.00    +0.070 C 
BRANCH  18  22
ATOM     22  C   LIG    1        1.436   2.071  -0.296  0.00  0.00    -0.070 A 
ATOM     23  C   LIG    1        1.097   3.002   0.668  0.00  0.00    +0.060 A 
ATOM     24  C   LIG    1        0.121   3.945   0.406  0.00  0.00    -0.010 A 
ATOM     25  C   LIG    1       -0.509   3.965  -0.826  0.00  0.00    +0.100 A 
ATOM     26  C   LIG    1       -0.169   3.032  -1.791  0.00  0.00    -0.010 A 
ATOM     27  F   LIG    1       -1.460   4.889  -1.085  0.00  0.00    -0.140 F 
ATOM     28  C   LIG    1        0.803   2.087  -1.526  0.00  0.00    +0.040 A 
ENDBRANCH  18  22
ENDBRANCH   9  18
TORSDOF 4
