REMARK  Name = ZINCqH0000003Hyw.0
REMARK                            x       y       z     vdW  Elec       q    Type
REMARK                         _______ _______ _______ _____ _____    ______ ____
ROOT
ATOM      1  N   LIG    1       -0.011   0.966   0.007  0.00  0.00    -0.660 N 
ATOM      2  H   LIG    1       -0.134   0.087  -0.384  0.00  0.00    +0.420 HD
ATOM      3  C   LIG    1       -1.041   1.578   0.625  0.00  0.00    +0.520 C 
ATOM      4  O   LIG    1       -0.911   2.709   1.043  0.00  0.00    -0.500 OA
ENDROOT
BRANCH   1  14
ATOM      5  C   LIG    1        2.405   0.847  -0.016  0.00  0.00    +0.080 A 
ATOM      6  C   LIG    1        3.634   1.483  -0.094  0.00  0.00    +0.000 A 
ATOM      7  C   LIG    1        3.694   2.854  -0.231  0.00  0.00    -0.150 A 
ATOM      8  C   LIG    1        2.535   3.616  -0.296  0.00  0.00    +0.090 A 
ATOM      9  O   LIG    1        2.823   4.939  -0.445  0.00  0.00    -0.300 OA
ATOM     10  C   LIG    1        4.184   5.175  -0.049  0.00  0.00    +0.170 C 
ATOM     11  C   LIG    1        4.816   6.281  -0.897  0.00  0.00    +0.070 C 
ATOM     12  C   LIG    1        1.300   2.977  -0.218  0.00  0.00    +0.050 A 
ATOM     13  C   LIG    1        4.864   3.814  -0.330  0.00  0.00    +0.070 C 
ATOM     14  C   LIG    1        1.235   1.601  -0.074  0.00  0.00    +0.150 A 
BRANCH   5  15
ATOM     15  O   LIG    1        2.341  -0.505   0.116  0.00  0.00    -0.310 OA
BRANCH  15  17
ATOM     16  C   LIG    1        3.312  -2.709   0.318  0.00  0.00    +0.070 C 
ATOM     17  C   LIG    1        3.583  -1.211   0.169  0.00  0.00    +0.180 C 
ENDBRANCH  15  17
ENDBRANCH   5  15
ENDBRANCH   1  14
BRANCH   3  18
ATOM     18  C   LIG    1       -2.353   0.857   0.797  0.00  0.00    +0.190 C 
BRANCH  18  19
ATOM     19  C   LIG    1       -3.329   1.754   1.513  0.00  0.00    +0.150 A 
ATOM     20  N   LIG    1       -3.503   1.831   2.796  0.00  0.00    -0.270 NA
ATOM     21  O   LIG    1       -4.504   2.786   3.086  0.00  0.00    -0.090 OA
ATOM     22  C   LIG    1       -4.968   3.311   1.934  0.00  0.00    +0.090 A 
ATOM     23  C   LIG    1       -5.934   4.264   1.639  0.00  0.00    +0.020 A 
ATOM     24  C   LIG    1       -6.189   4.598   0.326  0.00  0.00    +0.080 A 
ATOM     25  C   LIG    1       -5.488   3.990  -0.706  0.00  0.00    -0.010 A 
ATOM     26  C   LIG    1       -4.535   3.049  -0.437  0.00  0.00    +0.090 A 
ATOM     27  C   LIG    1       -4.261   2.697   0.887  0.00  0.00    -0.190 A 
ENDBRANCH  18  19
ENDBRANCH   3  18
TORSDOF 5
