REMARK  Name = ZINCkj000005fbur.0
REMARK                            x       y       z     vdW  Elec       q    Type
REMARK                         _______ _______ _______ _____ _____    ______ ____
ROOT
ATOM      1  N   LIG    1        4.187  -0.132   2.397  0.00  0.00    -0.530 NA
ATOM      2  C   LIG    1        4.581   0.616   1.196  0.00  0.00    +0.180 C 
ATOM      3  C   LIG    1        3.628   1.800   1.000  0.00  0.00    +0.310 C 
ATOM      4  N   LIG    1        2.248   1.292   0.991  0.00  0.00    -0.590 N 
ATOM      5  C   LIG    1        1.818   0.425   2.099  0.00  0.00    +0.290 C 
ATOM      6  C   LIG    1        1.397   1.617  -0.003  0.00  0.00    +0.510 C 
ATOM      7  O   LIG    1        1.767   2.338  -0.905  0.00  0.00    -0.530 OA
ATOM      8  C   LIG    1        2.844  -0.710   2.248  0.00  0.00    +0.180 C 
ENDROOT
BRANCH   6   9
ATOM      9  C   LIG    1       -0.013   1.086   0.008  0.00  0.00    +0.160 C 
ATOM     10  C   LIG    1       -0.756   1.594   1.261  0.00  0.00    +0.100 C 
ATOM     11  C   LIG    1       -1.544   2.821   0.724  0.00  0.00    +0.080 C 
ATOM     12  C   LIG    1       -1.919   2.353  -0.705  0.00  0.00    +0.270 C 
ATOM     13  N   LIG    1       -0.746   1.584  -1.170  0.00  0.00    -0.380 N 
ATOM     14  C   LIG    1       -1.191   0.450  -1.991  0.00  0.00    +0.330 C 
ATOM     15  H   LIG    1       -0.143   2.181  -1.717  0.00  0.00    +0.430 HD
ENDBRANCH   6   9
BRANCH   1  16
ATOM     16  C   LIG    1        5.174  -1.171   2.718  0.00  0.00    +0.210 C 
BRANCH  16  17
ATOM     17  C   LIG    1        4.867  -1.758   4.097  0.00  0.00    +0.080 C 
BRANCH  17  18
ATOM     18  S   LIG    1        6.087  -3.042   4.493  0.00  0.00    -0.250 S 
BRANCH  18  20
ATOM     19  C   LIG    1        4.189  -4.269   6.034  0.00  0.00    +0.040 C 
ATOM     20  C   LIG    1        5.565  -3.607   6.135  0.00  0.00    +0.030 C 
ATOM     21  C   LIG    1        6.579  -4.620   6.672  0.00  0.00    +0.070 C 
ENDBRANCH  18  20
ENDBRANCH  17  18
ENDBRANCH  16  17
ENDBRANCH   1  16
TORSDOF 5
