REMARK  Name = ZINCkj000005fbur.1
REMARK                            x       y       z     vdW  Elec       q    Type
REMARK                         _______ _______ _______ _____ _____    ______ ____
ROOT
ATOM      1  N   LIG    1       -0.996   4.279   1.452  0.00  0.00    -0.530 NA
ATOM      2  C   LIG    1        0.315   3.654   1.670  0.00  0.00    +0.180 C 
ATOM      3  C   LIG    1        0.618   2.694   0.515  0.00  0.00    +0.300 C 
ATOM      4  N   LIG    1       -0.505   1.754   0.382  0.00  0.00    -0.590 N 
ATOM      5  C   LIG    1       -1.866   2.304   0.291  0.00  0.00    +0.290 C 
ATOM      6  C   LIG    1       -0.292   0.423   0.340  0.00  0.00    +0.500 C 
ATOM      7  O   LIG    1        0.840  -0.009   0.312  0.00  0.00    -0.510 OA
ATOM      8  C   LIG    1       -2.072   3.279   1.461  0.00  0.00    +0.170 C 
ENDROOT
BRANCH   6   9
ATOM      9  C   LIG    1       -1.462  -0.527   0.327  0.00  0.00    +0.150 C 
ATOM     10  C   LIG    1       -1.516  -1.276  -1.021  0.00  0.00    +0.100 C 
ATOM     11  C   LIG    1       -1.947  -2.708  -0.608  0.00  0.00    +0.080 C 
ATOM     12  C   LIG    1       -1.220  -2.874   0.750  0.00  0.00    +0.270 C 
ATOM     13  N   LIG    1       -1.296  -1.541   1.384  0.00  0.00    -0.380 N 
ATOM     14  C   LIG    1       -0.058  -1.278   2.131  0.00  0.00    +0.320 C 
ATOM     15  H   LIG    1       -2.084  -1.509   2.013  0.00  0.00    +0.430 HD
ENDBRANCH   6   9
BRANCH   1  16
ATOM     16  C   LIG    1       -1.249   5.332   2.445  0.00  0.00    +0.210 C 
BRANCH  16  17
ATOM     17  C   LIG    1       -2.495   6.123   2.044  0.00  0.00    +0.080 C 
BRANCH  17  18
ATOM     18  S   LIG    1       -2.807   7.423   3.270  0.00  0.00    -0.250 S 
BRANCH  18  20
ATOM     19  C   LIG    1       -5.470   7.255   2.666  0.00  0.00    +0.040 C 
ATOM     20  C   LIG    1       -4.297   8.237   2.632  0.00  0.00    +0.030 C 
ATOM     21  C   LIG    1       -4.625   9.454   3.500  0.00  0.00    +0.080 C 
ENDBRANCH  18  20
ENDBRANCH  17  18
ENDBRANCH  16  17
ENDBRANCH   1  16
TORSDOF 5
