REMARK  Name = ZINCtV00000L6kBx.0
REMARK                            x       y       z     vdW  Elec       q    Type
REMARK                         _______ _______ _______ _____ _____    ______ ____
ROOT
ATOM      1  C   LIG    1       -4.851  -0.268  -0.360  0.00  0.00    +0.000 C 
ATOM      2  C   LIG    1       -4.218  -0.730   0.954  0.00  0.00    +0.090 C 
ENDROOT
BRANCH   1   5
ATOM      3  N   LIG    1       -6.134  -2.262  -1.066  0.00  0.00    -0.660 N 
ATOM      4  H   LIG    1       -5.290  -2.721  -1.199  0.00  0.00    +0.420 HD
ATOM      5  C   LIG    1       -6.147  -1.005  -0.579  0.00  0.00    +0.540 C 
ATOM      6  O   LIG    1       -7.202  -0.467  -0.317  0.00  0.00    -0.490 OA
BRANCH   3  11
ATOM      7  C   LIG    1       -9.610  -2.814  -2.168  0.00  0.00    -0.150 A 
ATOM      8  C   LIG    1       -9.717  -4.198  -1.998  0.00  0.00    +0.060 A 
ATOM      9  C   LIG    1       -8.641  -4.919  -1.523  0.00  0.00    +0.030 A 
ATOM     10  C   LIG    1       -7.454  -4.279  -1.220  0.00  0.00    +0.020 A 
ATOM     11  C   LIG    1       -7.337  -2.903  -1.380  0.00  0.00    +0.130 A 
ATOM     12  C   LIG    1       -8.411  -2.168  -1.856  0.00  0.00    +0.090 A 
BRANCH   7  14
ATOM     13  C   LIG    1      -12.048  -2.740  -3.010  0.00  0.00    +0.080 C 
ATOM     14  C   LIG    1      -10.756  -2.041  -2.674  0.00  0.00    +0.390 C 
ATOM     15  O   LIG    1      -10.660  -0.841  -2.820  0.00  0.00    -0.450 OA
ENDBRANCH   7  14
ENDBRANCH   3  11
ENDBRANCH   1   5
BRANCH   1  16
ATOM     16  S   LIG    1       -5.175   1.511  -0.281  0.00  0.00    +0.170 S 
BRANCH  16  17
ATOM     17  C   LIG    1       -3.524   2.118  -0.178  0.00  0.00    +0.030 A 
ATOM     18  N   LIG    1       -2.430   1.418  -0.167  0.00  0.00    -0.260 NA
ATOM     19  N   LIG    1       -1.228   2.082  -0.080  0.00  0.00    -0.310 N 
ATOM     20  C   LIG    1       -1.280   3.425  -0.006  0.00  0.00    +0.210 A 
ATOM     21  S   LIG    1        0.032   4.518   0.116  0.00  0.00    -0.380 S 
ATOM     22  S   LIG    1       -3.010   3.812  -0.067  0.00  0.00    +0.170 S 
BRANCH  19  23
ATOM     23  C   LIG    1       -0.010   1.394  -0.063  0.00  0.00    +0.140 A 
ATOM     24  C   LIG    1        1.022   1.783  -0.908  0.00  0.00    +0.090 A 
ATOM     25  C   LIG    1        2.221   1.099  -0.893  0.00  0.00    +0.080 A 
ATOM     26  C   LIG    1        2.397   0.025  -0.038  0.00  0.00    -0.010 A 
ATOM     27  C   LIG    1        1.370  -0.366   0.806  0.00  0.00    -0.030 A 
ATOM     28 CL   LIG    1        1.594  -1.713   1.878  0.00  0.00    -0.030 Cl
ATOM     29 CL   LIG    1        3.906  -0.833  -0.023  0.00  0.00    -0.030 Cl
ATOM     30  C   LIG    1        0.168   0.316   0.795  0.00  0.00    +0.080 A 
ENDBRANCH  19  23
ENDBRANCH  16  17
ENDBRANCH   1  16
TORSDOF 6
