REMARK  Name = ZINCpk00000CEkhg.0
REMARK                            x       y       z     vdW  Elec       q    Type
REMARK                         _______ _______ _______ _____ _____    ______ ____
ROOT
ATOM      1  C   LIG    1       -0.488   3.093  -1.417  0.00  0.00    +0.030 C 
ATOM      2  C   LIG    1       -0.736   1.592  -1.236  0.00  0.00    -0.050 C 
ATOM      3  C   LIG    1       -0.013   1.089   0.008  0.00  0.00    +0.020 C 
ATOM      4  C   LIG    1       -0.707   1.575   1.278  0.00  0.00    +0.030 C 
ATOM      5  C   LIG    1       -2.127   1.008   1.307  0.00  0.00    +0.050 C 
ATOM      6  C   LIG    1       -2.918   1.528   0.116  0.00  0.00    +0.140 C 
ATOM      7  N   LIG    1       -4.232   0.846   0.085  0.00  0.00    -0.720 N 
ATOM      8  H   LIG    1       -4.375  -0.112   0.085  0.00  0.00    +0.440 HD
ATOM      9  C   LIG    1       -5.164   1.814   0.060  0.00  0.00    +0.710 C 
ATOM     10  N   LIG    1       -4.631   3.035   0.178  0.00  0.00    -0.570 N 
ATOM     11  O   LIG    1       -6.356   1.605  -0.058  0.00  0.00    -0.540 OA
ATOM     12  C   LIG    1       -3.288   2.978   0.311  0.00  0.00    +0.540 C 
ATOM     13  O   LIG    1       -2.556   3.912   0.559  0.00  0.00    -0.450 OA
ATOM     14  C   LIG    1       -0.124   0.873  -2.458  0.00  0.00    +0.030 C 
ATOM     15  C   LIG    1       -2.224   1.292  -1.210  0.00  0.00    +0.060 C 
ENDROOT
BRANCH  10  16
ATOM     16  C   LIG    1       -5.405   4.279   0.164  0.00  0.00    +0.360 C 
BRANCH  16  17
ATOM     17  C   LIG    1       -5.527   4.779  -1.252  0.00  0.00    +0.500 C 
ATOM     18  N   LIG    1       -6.202   5.917  -1.510  0.00  0.00    -0.720 N 
ATOM     19  H   LIG    1       -6.609   6.414  -0.783  0.00  0.00    +0.410 HD
ATOM     20  O   LIG    1       -5.018   4.157  -2.161  0.00  0.00    -0.520 OA
BRANCH  18  21
ATOM     21  C   LIG    1       -6.321   6.402  -2.887  0.00  0.00    +0.230 C 
ATOM     22  C   LIG    1       -7.590   5.829  -3.555  0.00  0.00    +0.210 C 
ATOM     23  O   LIG    1       -8.094   6.905  -4.375  0.00  0.00    -0.370 OA
ATOM     24  C   LIG    1       -7.924   8.100  -3.581  0.00  0.00    +0.210 C 
ATOM     25  C   LIG    1       -6.546   7.931  -2.904  0.00  0.00    -0.110 C 
ATOM     26  C   LIG    1       -5.455   8.624  -3.722  0.00  0.00    +0.040 C 
ATOM     27  C   LIG    1       -6.578   8.484  -1.478  0.00  0.00    +0.050 C 
ENDBRANCH  18  21
ENDBRANCH  16  17
ENDBRANCH  10  16
TORSDOF 3
