REMARK  Name = ZINCwl0000000edj.1
REMARK                            x       y       z     vdW  Elec       q    Type
REMARK                         _______ _______ _______ _____ _____    ______ ____
ROOT
ATOM      1  C   LIG    1       -0.927   1.718   3.671  0.00  0.00    +0.240 C 
ATOM      2  C   LIG    1       -0.424   3.123   4.063  0.00  0.00    +0.010 C 
ATOM      3  C   LIG    1       -0.363   3.155   5.600  0.00  0.00    +0.050 C 
ATOM      4  C   LIG    1       -0.832   1.769   6.089  0.00  0.00    -0.010 C 
ATOM      5  C   LIG    1       -0.561   0.831   4.886  0.00  0.00    +0.040 C 
ENDROOT
BRANCH   1   7
ATOM      6  C   LIG    1       -0.718   1.572   1.248  0.00  0.00    +0.520 C 
ATOM      7  N   LIG    1       -0.242   1.246   2.466  0.00  0.00    -0.710 N 
ATOM      8  H   LIG    1        0.555   0.699   2.544  0.00  0.00    +0.400 HD
ATOM      9  O   LIG    1       -1.714   2.256   1.150  0.00  0.00    -0.530 OA
BRANCH   6  10
ATOM     10  C   LIG    1       -0.013   1.086   0.008  0.00  0.00    +0.070 C 
BRANCH  10  11
ATOM     11  C   LIG    1       -0.753   1.593  -1.232  0.00  0.00    +0.290 C 
BRANCH  11  15
ATOM     12  N   LIG    1        1.215   1.570  -4.953  0.00  0.00    -0.530 NA
ATOM     13  C   LIG    1       -0.135   0.993  -4.885  0.00  0.00    +0.200 C 
ATOM     14  C   LIG    1       -0.841   1.503  -3.627  0.00  0.00    +0.280 C 
ATOM     15  N   LIG    1       -0.065   1.119  -2.440  0.00  0.00    -0.390 N 
ATOM     16  C   LIG    1        1.272   1.723  -2.511  0.00  0.00    +0.260 C 
ATOM     17  H   LIG    1        0.021   0.114  -2.406  0.00  0.00    +0.420 HD
ATOM     18  C   LIG    1        1.996   1.215  -3.760  0.00  0.00    +0.210 C 
BRANCH  12  20
ATOM     19  C   LIG    1        3.305   1.768  -6.214  0.00  0.00    +0.050 C 
ATOM     20  C   LIG    1        1.907   1.149  -6.179  0.00  0.00    +0.180 C 
ATOM     21  C   LIG    1        2.023  -0.377  -6.200  0.00  0.00    +0.010 C 
ENDBRANCH  12  20
ENDBRANCH  11  15
ENDBRANCH  10  11
ENDBRANCH   6  10
ENDBRANCH   1   7
BRANCH   4  22
ATOM     22  C   LIG    1       -0.020   1.328   7.309  0.00  0.00    +0.330 C 
BRANCH  22  23
ATOM     23  N   LIG    1       -0.318   2.212   8.438  0.00  0.00    -0.290 N 
ATOM     24  C   LIG    1       -0.750   1.820   9.659  0.00  0.00    +0.140 A 
ATOM     25  C   LIG    1       -0.896   2.951  10.389  0.00  0.00    -0.010 A 
ATOM     26  N   LIG    1       -0.551   3.966   9.589  0.00  0.00    -0.250 NA
ATOM     27  N   LIG    1       -0.208   3.495   8.442  0.00  0.00    -0.080 NA
BRANCH  25  28
ATOM     28  C   LIG    1       -1.357   3.047  11.820  0.00  0.00    +0.300 C 
BRANCH  28  29
ATOM     29  N   LIG    1       -0.188   3.092  12.709  0.00  0.00    -0.550 NA
ATOM     30  C   LIG    1        0.581   1.848  12.629  0.00  0.00    +0.180 C 
ATOM     31  C   LIG    1        1.989   2.068  13.193  0.00  0.00    +0.120 C 
ATOM     32  S   LIG    1        1.843   2.532  14.945  0.00  0.00    -0.270 S 
ATOM     33  C   LIG    1        0.640   3.894  14.875  0.00  0.00    +0.120 C 
ATOM     34  C   LIG    1       -0.583   3.422  14.080  0.00  0.00    +0.200 C 
ENDBRANCH  28  29
ENDBRANCH  25  28
ENDBRANCH  22  23
ENDBRANCH   4  22
TORSDOF 9
