REMARK  Name = ZINCwl0000000edj.0
REMARK                            x       y       z     vdW  Elec       q    Type
REMARK                         _______ _______ _______ _____ _____    ______ ____
ROOT
ATOM      1  C   LIG    1        2.141   0.517   8.533  0.00  0.00    +0.240 C 
ATOM      2  C   LIG    1        1.799  -0.954   8.876  0.00  0.00    +0.010 C 
ATOM      3  C   LIG    1        2.085  -1.065  10.388  0.00  0.00    +0.040 C 
ATOM      4  C   LIG    1        1.982   0.359  10.962  0.00  0.00    -0.010 C 
ATOM      5  C   LIG    1        1.636   1.286   9.778  0.00  0.00    +0.040 C 
ENDROOT
BRANCH   1   7
ATOM      6  C   LIG    1        2.001   0.817   6.119  0.00  0.00    +0.510 C 
ATOM      7  N   LIG    1        1.425   0.950   7.330  0.00  0.00    -0.720 N 
ATOM      8  H   LIG    1        0.537   1.331   7.405  0.00  0.00    +0.400 HD
ATOM      9  O   LIG    1        3.112   0.340   6.024  0.00  0.00    -0.530 OA
BRANCH   6  10
ATOM     10  C   LIG    1        1.265   1.262   4.881  0.00  0.00    +0.060 C 
BRANCH  10  11
ATOM     11  C   LIG    1        2.134   1.003   3.649  0.00  0.00    +0.230 C 
BRANCH  11  15
ATOM     12  N   LIG    1       -0.012   1.005   0.008  0.00  0.00    -0.390 N 
ATOM     13  C   LIG    1       -0.701   1.478   1.215  0.00  0.00    +0.270 C 
ATOM     14  C   LIG    1        0.028   0.957   2.456  0.00  0.00    +0.210 C 
ATOM     15  N   LIG    1        1.417   1.437   2.443  0.00  0.00    -0.540 NA
ATOM     16  C   LIG    1        2.112   0.992   1.228  0.00  0.00    +0.220 C 
ATOM     17  C   LIG    1        1.367   1.513  -0.003  0.00  0.00    +0.270 C 
ATOM     18  H   LIG    1        0.002  -0.004   0.002  0.00  0.00    +0.420 HD
BRANCH  12  20
ATOM     19  C   LIG    1       -0.005   0.998  -2.441  0.00  0.00    +0.090 C 
ATOM     20  C   LIG    1       -0.722   1.491  -1.183  0.00  0.00    +0.160 C 
ATOM     21  C   LIG    1       -2.157   0.961  -1.173  0.00  0.00    +0.090 C 
ENDBRANCH  12  20
ENDBRANCH  11  15
ENDBRANCH  10  11
ENDBRANCH   6  10
ENDBRANCH   1   7
BRANCH   4  22
ATOM     22  C   LIG    1        0.875   0.420  12.017  0.00  0.00    +0.330 C 
BRANCH  22  23
ATOM     23  N   LIG    1        1.271  -0.371  13.185  0.00  0.00    -0.290 N 
ATOM     24  C   LIG    1        1.332   0.077  14.461  0.00  0.00    +0.140 A 
ATOM     25  C   LIG    1        1.737  -0.975  15.210  0.00  0.00    -0.010 A 
ATOM     26  N   LIG    1        1.909  -1.999  14.366  0.00  0.00    -0.250 NA
ATOM     27  N   LIG    1        1.625  -1.608  13.174  0.00  0.00    -0.080 NA
BRANCH  25  28
ATOM     28  C   LIG    1        1.956  -0.989  16.701  0.00  0.00    +0.310 C 
BRANCH  28  29
ATOM     29  N   LIG    1        0.747  -1.486  17.369  0.00  0.00    -0.550 NA
ATOM     30  C   LIG    1       -0.384  -0.581  17.150  0.00  0.00    +0.180 C 
ATOM     31  C   LIG    1       -1.698  -1.307  17.457  0.00  0.00    +0.120 C 
ATOM     32  S   LIG    1       -1.694  -1.792  19.210  0.00  0.00    -0.270 S 
ATOM     33  C   LIG    1       -0.096  -2.648  19.359  0.00  0.00    +0.120 C 
ATOM     34  C   LIG    1        0.998  -1.738  18.790  0.00  0.00    +0.200 C 
ENDBRANCH  28  29
ENDBRANCH  25  28
ENDBRANCH  22  23
ENDBRANCH   4  22
TORSDOF 9
