REMARK  Name = ZINCpe00000FUjQf.0
REMARK                            x       y       z     vdW  Elec       q    Type
REMARK                         _______ _______ _______ _____ _____    ______ ____
ROOT
ATOM      1  N   LIG    1       -2.418   2.255   1.599  0.00  0.00    -0.980 NA
ATOM      2  C   LIG    1       -2.941   2.444   0.242  0.00  0.00    +0.240 C 
ATOM      3  C   LIG    1       -3.284   3.922  -0.012  0.00  0.00    +0.010 C 
ATOM      4  C   LIG    1       -2.091   4.474  -0.809  0.00  0.00    +0.200 C 
ATOM      5  O   LIG    1       -1.125   3.417  -0.969  0.00  0.00    -0.370 OA
ATOM      6  C   LIG    1       -1.777   2.158  -0.744  0.00  0.00    +0.190 C 
ATOM      7  C   LIG    1       -0.827   1.272   0.107  0.00  0.00    +0.080 C 
ATOM      8  C   LIG    1       -0.987   1.903   1.513  0.00  0.00    +0.250 C 
ENDROOT
BRANCH   8   9
ATOM      9  C   LIG    1       -0.638   0.899   2.581  0.00  0.00    +0.500 C 
ATOM     10  N   LIG    1        0.605   0.872   3.101  0.00  0.00    -0.610 N 
ATOM     11  C   LIG    1        1.584   1.889   2.709  0.00  0.00    +0.290 C 
ATOM     12  C   LIG    1        0.977  -0.173   4.057  0.00  0.00    +0.290 C 
ATOM     13  O   LIG    1       -1.476   0.115   2.973  0.00  0.00    -0.530 OA
ENDBRANCH   8   9
BRANCH   1  14
ATOM     14  S   LIG    1       -3.282   2.437   3.000  0.00  0.00    +2.720 S 
ATOM     15  O   LIG    1       -4.367   3.303   2.692  0.00  0.00    -0.940 OA
ATOM     16  O   LIG    1       -2.336   2.711   4.023  0.00  0.00    -0.950 OA
BRANCH  14  23
ATOM     17  C   LIG    1       -4.944   0.315   2.542  0.00  0.00    +0.210 A 
ATOM     18  C   LIG    1       -5.496  -0.921   2.842  0.00  0.00    -0.050 A 
ATOM     19  C   LIG    1       -5.104  -1.593   3.984  0.00  0.00    +0.080 A 
ATOM     20  C   LIG    1       -4.157  -1.036   4.825  0.00  0.00    +0.040 A 
ATOM     21  C   LIG    1       -3.601   0.196   4.524  0.00  0.00    +0.170 A 
ATOM     22  F   LIG    1       -3.775  -1.694   5.942  0.00  0.00    -0.140 F 
ATOM     23  C   LIG    1       -3.990   0.870   3.383  0.00  0.00    -0.660 A 
BRANCH  17  25
ATOM     24  C   LIG    1       -6.318   0.348   0.602  0.00  0.00    +0.250 C 
ATOM     25  O   LIG    1       -5.333   0.980   1.422  0.00  0.00    -0.310 OA
ENDBRANCH  17  25
ENDBRANCH  14  23
ENDBRANCH   1  14
TORSDOF 4
