REMARK  Name = ZINCrD000000C4aF.0
REMARK                            x       y       z     vdW  Elec       q    Type
REMARK                         _______ _______ _______ _____ _____    ______ ____
ROOT
ATOM      1  C   LIG    1       -1.456   7.277   0.145  0.00  0.00    +0.120 A 
ATOM      2  C   LIG    1       -0.264   8.000   0.136  0.00  0.00    +0.050 A 
ATOM      3  C   LIG    1       -0.276   9.373   0.227  0.00  0.00    +0.010 A 
ATOM      4  C   LIG    1       -1.484  10.053   0.342  0.00  0.00    +0.090 A 
ATOM      5  C   LIG    1       -2.689   9.327   0.358  0.00  0.00    -0.090 A 
ATOM      6  C   LIG    1       -3.758  10.320   0.488  0.00  0.00    -0.050 A 
ATOM      7  C   LIG    1       -3.171  11.526   0.540  0.00  0.00    +0.220 A 
ATOM      8  N   LIG    1       -1.812  11.387   0.455  0.00  0.00    -0.480 N 
ATOM      9  C   LIG    1       -2.667   7.935   0.259  0.00  0.00    +0.030 A 
ENDROOT
BRANCH   1  12
ATOM     10  O   LIG    1        0.298   5.947  -1.351  0.00  0.00    -0.480 OA
ATOM     11  C   LIG    1       -0.476   5.278  -0.695  0.00  0.00    +0.560 C 
ATOM     12  N   LIG    1       -1.427   5.881   0.045  0.00  0.00    -0.650 N 
ATOM     13  H   LIG    1       -2.092   5.348   0.508  0.00  0.00    +0.420 HD
BRANCH  11  14
ATOM     14  C   LIG    1       -0.373   3.801  -0.707  0.00  0.00    +0.100 A 
ATOM     15  N   LIG    1       -1.220   3.076   0.013  0.00  0.00    -0.450 NA
ATOM     16  C   LIG    1       -1.167   1.762   0.025  0.00  0.00    +0.280 A 
ATOM     17  C   LIG    1       -0.208   1.081  -0.709  0.00  0.00    +0.010 A 
ATOM     18  C   LIG    1        0.697   1.798  -1.475  0.00  0.00    +0.100 A 
ATOM     19  C   LIG    1        0.614   3.183  -1.474  0.00  0.00    -0.100 A 
ATOM     20 BR   LIG    1        1.820   4.217  -2.499  0.00  0.00    +0.010 Br
ENDBRANCH  11  14
ENDBRANCH   1  12
BRANCH   8  21
ATOM     21  C   LIG    1       -0.850  12.491   0.478  0.00  0.00    +0.310 C 
BRANCH  21  22
ATOM     22  C   LIG    1       -0.500  12.894  -0.956  0.00  0.00    +0.160 C 
BRANCH  22  23
ATOM     23  N   LIG    1        0.465  14.001  -0.932  0.00  0.00    -0.530 NA
ATOM     24  C   LIG    1       -0.142  15.217  -0.373  0.00  0.00    +0.150 C 
ATOM     25  C   LIG    1        0.912  16.326  -0.312  0.00  0.00    +0.220 C 
ATOM     26  O   LIG    1        1.447  16.541  -1.620  0.00  0.00    -0.380 OA
ATOM     27  C   LIG    1        2.048  15.376  -2.195  0.00  0.00    +0.220 C 
ATOM     28  C   LIG    1        1.005  14.258  -2.275  0.00  0.00    +0.160 C 
ENDBRANCH  22  23
ENDBRANCH  21  22
ENDBRANCH   8  21
TORSDOF 5
