REMARK  Name = ZINCpk00000eb3mH.0
REMARK                            x       y       z     vdW  Elec       q    Type
REMARK                         _______ _______ _______ _____ _____    ______ ____
ROOT
ATOM      1  C   LIG    1       -2.761   3.832   2.540  0.00  0.00    +0.600 C 
ATOM      2  N   LIG    1       -2.604   3.301   1.311  0.00  0.00    -0.710 N 
ATOM      3  H   LIG    1       -3.382   3.100   0.767  0.00  0.00    +0.410 HD
ATOM      4  O   LIG    1       -1.787   4.084   3.222  0.00  0.00    -0.500 OA
ENDROOT
BRANCH   1  12
ATOM      5  C   LIG    1       -8.241   3.713   1.754  0.00  0.00    +0.140 C 
ATOM      6  C   LIG    1       -7.675   4.242   3.046  0.00  0.00    +0.140 A 
ATOM      7  C   LIG    1       -8.510   4.685   4.008  0.00  0.00    +0.000 A 
ATOM      8  C   LIG    1       -8.001   5.182   5.220  0.00  0.00    +0.070 A 
ATOM      9  C   LIG    1       -6.656   5.215   5.420  0.00  0.00    +0.040 A 
ATOM     10  C   LIG    1       -5.797   4.748   4.405  0.00  0.00    +0.100 A 
ATOM     11  C   LIG    1       -4.418   4.649   4.312  0.00  0.00    -0.050 A 
ATOM     12  C   LIG    1       -4.118   4.107   3.059  0.00  0.00    +0.060 A 
ATOM     13  N   LIG    1       -5.253   3.877   2.415  0.00  0.00    -0.290 NA
ATOM     14  N   LIG    1       -6.322   4.268   3.231  0.00  0.00    -0.260 N 
ENDBRANCH   1  12
BRANCH   2  15
ATOM     15  C   LIG    1       -1.260   3.028   0.798  0.00  0.00    +0.260 C 
ATOM     16  C   LIG    1       -1.272   3.036  -0.741  0.00  0.00    +0.050 C 
ATOM     17  C   LIG    1       -0.825   1.630  -1.193  0.00  0.00    -0.020 C 
ATOM     18  C   LIG    1       -0.013   1.086   0.008  0.00  0.00    +0.020 C 
ATOM     19  C   LIG    1       -0.802   1.617   1.230  0.00  0.00    +0.150 C 
BRANCH  19  20
ATOM     20  O   LIG    1        0.044   1.692   2.379  0.00  0.00    -0.550 OA
ATOM     21  H   LIG    1        0.406   0.840   2.656  0.00  0.00    +0.380 HD
ENDBRANCH  19  20
BRANCH  17  22
ATOM     22  C   LIG    1        0.058   1.724  -2.439  0.00  0.00    +0.330 C 
BRANCH  22  23
ATOM     23  N   LIG    1        0.444   0.377  -2.865  0.00  0.00    -0.370 N 
ATOM     24  C   LIG    1        0.252  -0.154  -4.091  0.00  0.00    +0.220 A 
ATOM     25  C   LIG    1        0.748  -1.413  -4.078  0.00  0.00    -0.120 A 
ATOM     26  C   LIG    1        1.261  -1.660  -2.800  0.00  0.00    +0.220 A 
ATOM     27  N   LIG    1        1.085  -0.586  -2.074  0.00  0.00    -0.290 NA
ENDBRANCH  22  23
ENDBRANCH  17  22
ENDBRANCH   2  15
TORSDOF 5
