REMARK  Name = ZINCwJ00000005Ki.1
REMARK                            x       y       z     vdW  Elec       q    Type
REMARK                         _______ _______ _______ _____ _____    ______ ____
ROOT
ATOM      1  C   LIG    1        3.291   3.005   1.800  0.00  0.00    +0.290 C 
ENDROOT
BRANCH   1   2
ATOM      2  C   LIG    1        3.377   1.676   1.094  0.00  0.00    +0.500 C 
ATOM      3  N   LIG    1        2.395   1.296   0.252  0.00  0.00    -0.580 N 
ATOM      4  C   LIG    1        1.228   2.153   0.002  0.00  0.00    +0.330 C 
ATOM      5  C   LIG    1       -0.016   1.308   0.009  0.00  0.00    -0.060 C 
ATOM      6  C   LIG    1        0.002  -0.004   0.002  0.00  0.00    -0.000 C 
ATOM      7  C   LIG    1        1.252  -0.834   0.003  0.00  0.00    +0.080 C 
ATOM      8  C   LIG    1        2.449   0.004  -0.453  0.00  0.00    +0.310 C 
ATOM      9  O   LIG    1        4.329   0.949   1.283  0.00  0.00    -0.530 OA
BRANCH   6  10
ATOM     10  C   LIG    1       -1.294  -0.711  -0.007  0.00  0.00    -0.180 A 
ATOM     11  C   LIG    1       -1.867  -1.341  -1.065  0.00  0.00    +0.250 A 
ATOM     12  N   LIG    1       -3.063  -1.877  -0.689  0.00  0.00    -0.590 N 
ATOM     13  H   LIG    1       -3.656  -2.375  -1.273  0.00  0.00    +0.420 HD
ATOM     14  C   LIG    1       -3.309  -1.609   0.641  0.00  0.00    +0.090 A 
ATOM     15  C   LIG    1       -4.359  -1.920   1.497  0.00  0.00    +0.000 A 
ATOM     16  C   LIG    1       -4.316  -1.518   2.814  0.00  0.00    +0.030 A 
ATOM     17  C   LIG    1       -3.237  -0.790   3.295  0.00  0.00    -0.020 A 
ATOM     18  C   LIG    1       -2.188  -0.467   2.462  0.00  0.00    +0.030 A 
ATOM     19  C   LIG    1       -2.215  -0.875   1.130  0.00  0.00    -0.090 A 
ENDBRANCH   6  10
ENDBRANCH   1   2
BRANCH   1  23
ATOM     20  C   LIG    1        5.364   4.370   4.536  0.00  0.00    -0.010 C 
ATOM     21  C   LIG    1        5.359   2.861   4.858  0.00  0.00    +0.070 C 
ATOM     22  C   LIG    1        4.444   2.224   3.789  0.00  0.00    +0.270 C 
ATOM     23  N   LIG    1        4.473   3.182   2.654  0.00  0.00    -0.380 N 
ATOM     24  H   LIG    1        5.318   3.065   2.115  0.00  0.00    +0.440 HD
ATOM     25  C   LIG    1        4.450   4.520   3.301  0.00  0.00    +0.290 C 
BRANCH  20  26
ATOM     26  C   LIG    1        4.801   5.167   5.714  0.00  0.00    +0.320 C 
BRANCH  26  27
ATOM     27  N   LIG    1        5.741   5.110   6.836  0.00  0.00    -0.720 NA
ATOM     28  H   LIG    1        6.571   4.615   6.749  0.00  0.00    +0.420 HD
BRANCH  27  34
ATOM     29  C   LIG    1        2.688   7.897   9.501  0.00  0.00    +0.150 C 
ATOM     30  C   LIG    1        3.968   7.119   9.333  0.00  0.00    +0.080 C 
ATOM     31  C   LIG    1        4.890   7.037  10.368  0.00  0.00    +0.020 C 
ATOM     32  C   LIG    1        6.053   6.317  10.182  0.00  0.00    +0.370 C 
ATOM     33  N   LIG    1        6.297   5.709   9.037  0.00  0.00    -0.500 NA
ATOM     34  C   LIG    1        5.443   5.765   8.026  0.00  0.00    +0.440 C 
ATOM     35  H   LIG    1        7.122   5.210   8.932  0.00  0.00    +0.440 HD
ATOM     36  C   LIG    1        4.254   6.477   8.142  0.00  0.00    -0.030 C 
ENDBRANCH  27  34
ENDBRANCH  26  27
ENDBRANCH  20  26
ENDBRANCH   1  23
TORSDOF 6
