REMARK  Name = ZINCwJ00000005Ki.0
REMARK                            x       y       z     vdW  Elec       q    Type
REMARK                         _______ _______ _______ _____ _____    ______ ____
ROOT
ATOM      1  C   LIG    1        0.059   1.651  -2.347  0.00  0.00    +0.290 C 
ENDROOT
BRANCH   1   2
ATOM      2  C   LIG    1        0.421   0.247  -2.758  0.00  0.00    +0.500 C 
ATOM      3  N   LIG    1        1.198   0.041  -3.841  0.00  0.00    -0.580 N 
ATOM      4  C   LIG    1        1.707   1.164  -4.640  0.00  0.00    +0.330 C 
ATOM      5  C   LIG    1        1.564   0.835  -6.100  0.00  0.00    -0.060 C 
ATOM      6  C   LIG    1        1.256  -0.361  -6.545  0.00  0.00    -0.000 C 
ATOM      7  C   LIG    1        0.990  -1.548  -5.667  0.00  0.00    +0.090 C 
ATOM      8  C   LIG    1        1.575  -1.318  -4.266  0.00  0.00    +0.310 C 
ATOM      9  O   LIG    1        0.014  -0.698  -2.116  0.00  0.00    -0.530 OA
BRANCH   6  10
ATOM     10  C   LIG    1        1.165  -0.550  -8.006  0.00  0.00    -0.180 A 
ATOM     11  C   LIG    1        2.072  -1.172  -8.801  0.00  0.00    +0.250 A 
ATOM     12  N   LIG    1        1.640  -1.154 -10.095  0.00  0.00    -0.590 N 
ATOM     13  H   LIG    1        2.119  -1.540 -10.846  0.00  0.00    +0.420 HD
ATOM     14  C   LIG    1        0.428  -0.503 -10.183  0.00  0.00    +0.090 A 
ATOM     15  C   LIG    1       -0.421  -0.211 -11.246  0.00  0.00    +0.000 A 
ATOM     16  C   LIG    1       -1.596   0.471 -11.019  0.00  0.00    +0.030 A 
ATOM     17  C   LIG    1       -1.945   0.873  -9.737  0.00  0.00    -0.020 A 
ATOM     18  C   LIG    1       -1.118   0.593  -8.671  0.00  0.00    +0.030 A 
ATOM     19  C   LIG    1        0.074  -0.096  -8.886  0.00  0.00    -0.090 A 
ENDBRANCH   6  10
ENDBRANCH   1   2
BRANCH   1  23
ATOM     20  C   LIG    1       -1.253   3.020   0.771  0.00  0.00    +0.010 C 
ATOM     21  C   LIG    1       -0.798   1.615   1.234  0.00  0.00    +0.070 C 
ATOM     22  C   LIG    1       -0.013   1.086   0.008  0.00  0.00    +0.280 C 
ATOM     23  N   LIG    1       -0.788   1.606  -1.147  0.00  0.00    -0.380 N 
ATOM     24  H   LIG    1       -1.597   1.026  -1.313  0.00  0.00    +0.440 HD
ATOM     25  C   LIG    1       -1.209   2.972  -0.768  0.00  0.00    +0.290 C 
BRANCH  20  26
ATOM     26  C   LIG    1       -2.676   3.306   1.253  0.00  0.00    +0.310 C 
BRANCH  26  27
ATOM     27  N   LIG    1       -2.676   3.466   2.709  0.00  0.00    -0.710 NA
ATOM     28  H   LIG    1       -1.847   3.386   3.205  0.00  0.00    +0.420 HD
BRANCH  27  34
ATOM     29  C   LIG    1       -7.530   4.248   2.600  0.00  0.00    +0.150 C 
ATOM     30  C   LIG    1       -6.224   4.116   3.341  0.00  0.00    +0.080 C 
ATOM     31  C   LIG    1       -6.174   4.260   4.721  0.00  0.00    +0.020 C 
ATOM     32  C   LIG    1       -4.962   4.134   5.370  0.00  0.00    +0.370 C 
ATOM     33  N   LIG    1       -3.857   3.878   4.696  0.00  0.00    -0.500 NA
ATOM     34  C   LIG    1       -3.864   3.734   3.379  0.00  0.00    +0.440 C 
ATOM     35  H   LIG    1       -3.018   3.794   5.176  0.00  0.00    +0.440 HD
ATOM     36  C   LIG    1       -5.049   3.854   2.661  0.00  0.00    -0.040 C 
ENDBRANCH  27  34
ENDBRANCH  26  27
ENDBRANCH  20  26
ENDBRANCH   1  23
TORSDOF 6
