REMARK  Name = ZINCrD000000CV2f.0
REMARK                            x       y       z     vdW  Elec       q    Type
REMARK                         _______ _______ _______ _____ _____    ______ ____
ROOT
ATOM      1  O   LIG    1       -0.900   4.184   1.689  0.00  0.00    -0.520 OA
ATOM      2  C   LIG    1        0.239   4.236   2.110  0.00  0.00    +0.710 C 
ATOM      3  N   LIG    1        0.559   4.640   3.352  0.00  0.00    -0.710 N 
ATOM      4  H   LIG    1       -0.056   4.932   4.044  0.00  0.00    +0.440 HD
ATOM      5  C   LIG    1        2.026   4.560   3.456  0.00  0.00    +0.180 C 
ATOM      6  C   LIG    1        2.453   4.049   2.095  0.00  0.00    +0.540 C 
ATOM      7  O   LIG    1        3.583   3.828   1.716  0.00  0.00    -0.440 OA
ATOM      8  N   LIG    1        1.314   3.893   1.391  0.00  0.00    -0.570 N 
ENDROOT
BRANCH   5   9
ATOM      9  C   LIG    1        2.429   3.590   4.537  0.00  0.00    -0.100 A 
ATOM     10  C   LIG    1        3.659   3.715   5.155  0.00  0.00    +0.040 A 
ATOM     11  C   LIG    1        4.027   2.828   6.149  0.00  0.00    +0.010 A 
ATOM     12  C   LIG    1        3.169   1.810   6.519  0.00  0.00    +0.020 A 
ATOM     13  C   LIG    1        1.941   1.681   5.897  0.00  0.00    +0.010 A 
ATOM     14  C   LIG    1        1.571   2.571   4.906  0.00  0.00    +0.020 A 
ENDBRANCH   5   9
BRANCH   5  15
ATOM     15  C   LIG    1        2.627   5.942   3.725  0.00  0.00    +0.130 C 
BRANCH  15  16
ATOM     16  C   LIG    1        2.071   6.932   2.734  0.00  0.00    -0.100 A 
ATOM     17  C   LIG    1        2.719   7.145   1.532  0.00  0.00    +0.000 A 
ATOM     18  C   LIG    1        2.208   8.050   0.622  0.00  0.00    +0.000 A 
ATOM     19  C   LIG    1        1.052   8.749   0.917  0.00  0.00    +0.010 A 
ATOM     20  C   LIG    1        0.406   8.540   2.121  0.00  0.00    +0.000 A 
ATOM     21  C   LIG    1        0.916   7.631   3.030  0.00  0.00    +0.020 A 
ENDBRANCH  15  16
ENDBRANCH   5  15
BRANCH   8  22
ATOM     22  C   LIG    1        1.260   3.413   0.008  0.00  0.00    +0.460 C 
BRANCH  22  23
ATOM     23  C   LIG    1        1.136   1.911   0.002  0.00  0.00    +0.010 A 
ATOM     24  C   LIG    1        2.196   1.068  -0.013  0.00  0.00    -0.220 A 
ATOM     25  S   LIG    1        1.486  -0.500  -0.015  0.00  0.00    +0.480 S 
ATOM     26  N   LIG    1        0.002  -0.004   0.002  0.00  0.00    -0.270 NA
ATOM     27 CL   LIG    1        3.884   1.475  -0.027  0.00  0.00    +0.060 Cl
ATOM     28  N   LIG    1       -0.015   1.272   0.009  0.00  0.00    -0.200 NA
ENDBRANCH  22  23
ENDBRANCH   8  22
TORSDOF 5
