REMARK  Name = ZINCvU00000006K1.0
REMARK                            x       y       z     vdW  Elec       q    Type
REMARK                         _______ _______ _______ _____ _____    ______ ____
ROOT
ATOM      1  N   LIG    1       -0.016   1.344   0.009  0.00  0.00    -0.660 N 
ATOM      2  H   LIG    1        0.776   1.598  -0.490  0.00  0.00    +0.410 HD
ATOM      3  C   LIG    1       -0.009   0.225   0.761  0.00  0.00    +0.590 C 
ATOM      4  O   LIG    1       -0.967  -0.045   1.460  0.00  0.00    -0.500 OA
ENDROOT
BRANCH   1   8
ATOM      5  C   LIG    1       -3.449   3.702  -0.183  0.00  0.00    +0.130 A 
ATOM      6  C   LIG    1       -3.560   2.326  -0.045  0.00  0.00    -0.060 A 
ATOM      7  C   LIG    1       -2.423   1.544   0.012  0.00  0.00    +0.060 A 
ATOM      8  C   LIG    1       -1.169   2.136  -0.055  0.00  0.00    +0.110 A 
ATOM      9  C   LIG    1       -1.059   3.513  -0.193  0.00  0.00    +0.030 A 
ATOM     10  C   LIG    1       -2.196   4.294  -0.256  0.00  0.00    -0.090 A 
BRANCH   5  12
ATOM     11  C   LIG    1       -5.825   3.796  -0.163  0.00  0.00    +0.240 C 
ATOM     12  O   LIG    1       -4.569   4.471  -0.245  0.00  0.00    -0.310 OA
ENDBRANCH   5  12
BRANCH  10  13
ATOM     13  C   LIG    1       -2.077   5.789  -0.405  0.00  0.00    +0.140 C 
BRANCH  13  14
ATOM     14  C   LIG    1       -2.144   6.436   0.954  0.00  0.00    -0.080 A 
ATOM     15  C   LIG    1       -3.364   6.823   1.476  0.00  0.00    +0.020 A 
ATOM     16  C   LIG    1       -3.426   7.412   2.725  0.00  0.00    +0.000 A 
ATOM     17  C   LIG    1       -2.267   7.623   3.448  0.00  0.00    +0.000 A 
ATOM     18  C   LIG    1       -1.046   7.241   2.924  0.00  0.00    +0.000 A 
ATOM     19  C   LIG    1       -0.985   6.647   1.677  0.00  0.00    +0.000 A 
ENDBRANCH  13  14
ENDBRANCH  10  13
ENDBRANCH   1   8
BRANCH   3  20
ATOM     20  C   LIG    1        1.160  -0.671   0.736  0.00  0.00    -0.170 A 
ATOM     21  C   LIG    1        1.370  -1.724  -0.098  0.00  0.00    +0.070 A 
ATOM     22  O   LIG    1        2.548  -2.288   0.192  0.00  0.00    -0.160 OA
ATOM     23  C   LIG    1        3.158  -1.653   1.203  0.00  0.00    +0.300 A 
ATOM     24  C   LIG    1        0.424  -2.184  -1.177  0.00  0.00    +0.220 C 
ATOM     25  C   LIG    1        2.353  -0.608   1.609  0.00  0.00    -0.110 A 
BRANCH  23  26
ATOM     26  N   LIG    1        4.391  -1.987   1.745  0.00  0.00    -0.380 N 
ATOM     27  C   LIG    1        5.014  -1.335   2.773  0.00  0.00    +0.160 A 
ATOM     28  C   LIG    1        6.186  -1.954   3.016  0.00  0.00    -0.010 A 
ATOM     29  C   LIG    1        6.299  -3.022   2.102  0.00  0.00    -0.020 A 
ATOM     30  C   LIG    1        5.189  -3.020   1.337  0.00  0.00    +0.170 A 
ENDBRANCH  23  26
BRANCH  25  31
ATOM     31  C   LIG    1        2.616   0.335   2.654  0.00  0.00    +0.270 C 
ATOM     32  N   LIG    1        2.825   1.083   3.483  0.00  0.00    -0.390 NA
ENDBRANCH  25  31
ENDBRANCH   3  20
TORSDOF 7
