REMARK  Name = ZINCnE000001Ty1S.0
REMARK                            x       y       z     vdW  Elec       q    Type
REMARK                         _______ _______ _______ _____ _____    ______ ____
ROOT
ATOM      1  C   LIG    1        1.125   1.834  -0.026  0.00  0.00    -0.290 A 
ATOM      2  C   LIG    1        0.055   1.271   0.617  0.00  0.00    +0.310 A 
ATOM      3  N   LIG    1       -1.069   1.913   0.442  0.00  0.00    -0.450 NA
ATOM      4  C   LIG    1       -1.035   2.988  -0.295  0.00  0.00    +0.060 A 
ATOM      5  S   LIG    1        0.550   3.270  -0.869  0.00  0.00    +0.220 S 
ENDROOT
BRANCH   1  11
ATOM      6  C   LIG    1        5.639   3.875   0.736  0.00  0.00    -0.090 C 
ATOM      7  C   LIG    1        5.772   2.354   0.836  0.00  0.00    +0.030 C 
ATOM      8  C   LIG    1        4.911   1.698  -0.247  0.00  0.00    +0.270 C 
ATOM      9  N   LIG    1        3.533   2.193  -0.121  0.00  0.00    -0.600 N 
ATOM     10  C   LIG    1        3.301   3.644  -0.120  0.00  0.00    +0.260 C 
ATOM     11  C   LIG    1        2.502   1.332  -0.014  0.00  0.00    +0.590 C 
ATOM     12  O   LIG    1        2.713   0.139   0.092  0.00  0.00    -0.530 OA
ATOM     13  C   LIG    1        4.181   4.278   0.968  0.00  0.00    +0.030 C 
BRANCH   6  15
ATOM     14  O   LIG    1        7.140   5.533   1.506  0.00  0.00    -0.700 OA
ATOM     15  C   LIG    1        6.512   4.525   1.779  0.00  0.00    +0.500 C 
ATOM     16  O   LIG    1        6.589   4.042   2.896  0.00  0.00    -0.690 OA
ENDBRANCH   6  15
ENDBRANCH   1  11
BRANCH   4  17
ATOM     17  C   LIG    1       -2.204   3.840  -0.596  0.00  0.00    -0.020 A 
ATOM     18  C   LIG    1       -2.058   4.973  -1.399  0.00  0.00    +0.040 A 
ATOM     19  C   LIG    1       -3.155   5.761  -1.680  0.00  0.00    +0.030 A 
ATOM     20  C   LIG    1       -4.396   5.438  -1.160  0.00  0.00    +0.050 A 
ATOM     21  C   LIG    1       -4.548   4.320  -0.359  0.00  0.00    +0.020 A 
ATOM     22  C   LIG    1       -3.460   3.518  -0.074  0.00  0.00    +0.000 A 
ATOM     23 CL   LIG    1       -3.652   2.116   0.931  0.00  0.00    -0.030 Cl
ENDBRANCH   4  17
TORSDOF 3
