REMARK  Name = ZINCpe000027pHrC.0
REMARK                            x       y       z     vdW  Elec       q    Type
REMARK                         _______ _______ _______ _____ _____    ______ ____
ROOT
ATOM      1  C   LIG    1       -0.382   5.610   1.339  0.00  0.00    +0.600 C 
ATOM      2  N   LIG    1        0.952   5.676   1.153  0.00  0.00    -0.620 N 
ATOM      3  C   LIG    1        1.723   6.739   1.798  0.00  0.00    +0.330 C 
ATOM      4  C   LIG    1        2.335   7.649   0.728  0.00  0.00    -0.350 C 
ATOM      5  S   LIG    1        3.386   6.649  -0.365  0.00  0.00    +2.420 S 
ATOM      6  C   LIG    1        2.217   5.375  -0.920  0.00  0.00    -0.330 C 
ATOM      7  O   LIG    1        4.397   6.029   0.419  0.00  0.00    -0.930 OA
ATOM      8  O   LIG    1        3.761   7.440  -1.484  0.00  0.00    -0.930 OA
ATOM      9  C   LIG    1        1.615   4.682   0.307  0.00  0.00    +0.340 C 
ATOM     10  O   LIG    1       -1.008   4.658   0.916  0.00  0.00    -0.500 OA
ENDROOT
BRANCH   9  11
ATOM     11  C   LIG    1        0.611   3.651  -0.140  0.00  0.00    -0.210 A 
ATOM     12  C   LIG    1        0.588   2.350   0.229  0.00  0.00    +0.230 A 
ATOM     13  N   LIG    1       -0.463   1.767  -0.385  0.00  0.00    -0.380 N 
ATOM     14  N   LIG    1       -1.103   2.741  -1.162  0.00  0.00    -0.300 NA
ATOM     15  C   LIG    1       -0.859   0.361  -0.265  0.00  0.00    +0.350 C 
ATOM     16  C   LIG    1       -0.462   3.871  -1.010  0.00  0.00    +0.290 A 
ENDBRANCH   9  11
BRANCH   1  19
ATOM     17  N   LIG    1       -2.565   7.801   3.231  0.00  0.00    -0.350 N 
ATOM     18  C   LIG    1       -2.287   6.593   2.716  0.00  0.00    +0.320 A 
ATOM     19  C   LIG    1       -1.080   6.694   2.055  0.00  0.00    -0.300 A 
ATOM     20  C   LIG    1       -0.642   8.030   2.187  0.00  0.00    +0.260 A 
ATOM     21  N   LIG    1       -1.531   8.679   2.887  0.00  0.00    -0.280 NA
BRANCH  17  22
ATOM     22  C   LIG    1       -3.753   8.145   4.017  0.00  0.00    +0.320 C 
BRANCH  22  24
ATOM     23  C   LIG    1       -2.608  10.086   5.096  0.00  0.00    +0.030 C 
ATOM     24  C   LIG    1       -3.322   8.757   5.351  0.00  0.00    -0.030 C 
ATOM     25  C   LIG    1       -4.556   9.001   6.223  0.00  0.00    +0.030 C 
ENDBRANCH  22  24
ENDBRANCH  17  22
ENDBRANCH   1  19
TORSDOF 4
