REMARK  Name = ZINCvU0000000HCK.0
REMARK                            x       y       z     vdW  Elec       q    Type
REMARK                         _______ _______ _______ _____ _____    ______ ____
ROOT
ATOM      1  N   LIG    1        7.409   1.684   2.251  0.00  0.00    -0.330 N 
ATOM      2  N   LIG    1        7.435   0.775   1.180  0.00  0.00    -0.280 NA
ATOM      3  C   LIG    1        6.637   1.220   0.237  0.00  0.00    +0.120 A 
ATOM      4  C   LIG    1        6.077   2.415   0.665  0.00  0.00    -0.250 A 
ATOM      5  C   LIG    1        5.103   3.323  -0.029  0.00  0.00    +0.200 C 
ATOM      6  C   LIG    1        5.048   4.656   0.688  0.00  0.00    -0.280 C 
ATOM      7  C   LIG    1        4.413   5.712   0.009  0.00  0.00    +0.410 C 
ATOM      8  C   LIG    1        4.288   7.077   0.624  0.00  0.00    +0.040 C 
ATOM      9  C   LIG    1        4.250   6.932   2.149  0.00  0.00    -0.050 C 
ATOM     10  C   LIG    1        5.512   6.191   2.593  0.00  0.00    +0.100 C 
ATOM     11  C   LIG    1        4.210   8.317   2.798  0.00  0.00    +0.050 C 
ATOM     12  C   LIG    1        3.011   6.133   2.560  0.00  0.00    +0.030 C 
ATOM     13  O   LIG    1        3.955   5.515  -1.100  0.00  0.00    -0.470 OA
ATOM     14  C   LIG    1        5.575   4.840   1.917  0.00  0.00    +0.240 C 
ATOM     15  N   LIG    1        6.196   3.830   2.609  0.00  0.00    -0.630 N 
ATOM     16  H   LIG    1        6.369   3.913   3.559  0.00  0.00    +0.420 HD
ATOM     17  C   LIG    1        6.374   0.546  -1.085  0.00  0.00    +0.160 C 
ATOM     18  C   LIG    1        6.571   2.686   1.915  0.00  0.00    +0.320 A 
ENDROOT
BRANCH   1  24
ATOM     19  C   LIG    1        9.283  -1.146   5.811  0.00  0.00    +0.100 C 
ATOM     20  C   LIG    1        9.046   0.211   5.198  0.00  0.00    -0.060 A 
ATOM     21  C   LIG    1        9.534   1.345   5.821  0.00  0.00    +0.010 A 
ATOM     22  C   LIG    1        9.318   2.591   5.262  0.00  0.00    +0.050 A 
ATOM     23  C   LIG    1        8.614   2.707   4.079  0.00  0.00    -0.030 A 
ATOM     24  C   LIG    1        8.123   1.570   3.451  0.00  0.00    +0.160 A 
ATOM     25  C   LIG    1        8.337   0.320   4.017  0.00  0.00    +0.030 A 
ENDBRANCH   1  24
BRANCH   5  26
ATOM     26  C   LIG    1        3.735   2.692  -0.019  0.00  0.00    -0.070 A 
ATOM     27  C   LIG    1        3.096   2.409  -1.213  0.00  0.00    +0.050 A 
ATOM     28  C   LIG    1        1.842   1.830  -1.207  0.00  0.00    -0.010 A 
ATOM     29  C   LIG    1        1.223   1.532  -0.001  0.00  0.00    +0.100 A 
ATOM     30  C   LIG    1        1.863   1.822   1.195  0.00  0.00    -0.030 A 
ATOM     31  C   LIG    1        3.119   2.396   1.183  0.00  0.00    +0.020 A 
BRANCH  29  32
ATOM     32  O   LIG    1       -0.011   0.963   0.007  0.00  0.00    -0.500 OA
ATOM     33  H   LIG    1        0.002  -0.004   0.002  0.00  0.00    +0.390 HD
ENDBRANCH  29  32
ENDBRANCH   5  26
TORSDOF 3
