REMARK  Name = ZINCb80000002tW1.0
REMARK                            x       y       z     vdW  Elec       q    Type
REMARK                         _______ _______ _______ _____ _____    ______ ____
ROOT
ATOM      1  C   LIG    1       -1.329   1.940   0.019  0.00  0.00    +0.190 C 
ATOM      2  C   LIG    1       -1.645   2.400   1.446  0.00  0.00    +0.150 C 
ATOM      3  S   LIG    1       -3.203   3.338   1.420  0.00  0.00    -0.240 S 
ATOM      4  C   LIG    1       -4.312   2.198   0.537  0.00  0.00    +0.120 C 
ATOM      5  C   LIG    1       -3.630   1.766  -0.765  0.00  0.00    +0.210 C 
ATOM      6  N   LIG    1       -2.389   1.050  -0.462  0.00  0.00    -0.680 NA
ATOM      7  H   LIG    1       -2.077   0.514  -1.259  0.00  0.00    +0.360 HD
ENDROOT
BRANCH   1   8
ATOM      8  C   LIG    1       -0.014   1.204   0.009  0.00  0.00    +0.460 C 
ATOM      9  O   LIG    1        0.002  -0.004   0.002  0.00  0.00    -0.490 OA
BRANCH   8  10
ATOM     10  O   LIG    1        1.139   1.891   0.001  0.00  0.00    -0.360 OA
BRANCH  10  12
ATOM     11  C   LIG    1        3.568   2.065  -0.021  0.00  0.00    +0.070 C 
ATOM     12  C   LIG    1        2.367   1.117  -0.015  0.00  0.00    +0.200 C 
ENDBRANCH  10  12
ENDBRANCH   8  10
ENDBRANCH   1   8
TORSDOF 3
