REMARK  Name = ZINCrH00000No4AR.0
REMARK                            x       y       z     vdW  Elec       q    Type
REMARK                         _______ _______ _______ _____ _____    ______ ____
ROOT
ATOM      1  O   LIG    1        6.837   3.692  -0.389  0.00  0.00    -0.560 OA
ATOM      2  C   LIG    1        5.683   3.315  -0.309  0.00  0.00    +0.710 C 
ATOM      3  N   LIG    1        4.708   3.992  -0.947  0.00  0.00    -0.610 N 
ATOM      4  N   LIG    1        5.380   2.221   0.417  0.00  0.00    -0.670 N 
ATOM      5  H   LIG    1        4.454   1.964   0.543  0.00  0.00    +0.410 HD
ENDROOT
BRANCH   4   6
ATOM      6  C   LIG    1        6.410   1.450   0.992  0.00  0.00    +0.080 A 
ATOM      7  C   LIG    1        7.664   1.406   0.481  0.00  0.00    -0.010 A 
ATOM      8  S   LIG    1        8.544   0.348   1.512  0.00  0.00    +0.280 S 
ATOM      9  N   LIG    1        7.251   0.011   2.556  0.00  0.00    -0.450 NA
ATOM     10  C   LIG    1        6.223   0.682   2.125  0.00  0.00    +0.270 A 
ENDBRANCH   4   6
BRANCH   3  11
ATOM     11  C   LIG    1        3.318   3.538  -0.852  0.00  0.00    +0.300 C 
BRANCH  11  12
ATOM     12  C   LIG    1        2.684   4.101   0.422  0.00  0.00    +0.180 C 
ATOM     13  O   LIG    1        2.709   5.527   0.368  0.00  0.00    -0.360 OA
ATOM     14  C   LIG    1        1.973   6.143   1.431  0.00  0.00    +0.220 C 
ATOM     15  C   LIG    1        0.481   5.909   1.188  0.00  0.00    +0.060 C 
ATOM     16  C   LIG    1        0.235   4.450   0.896  0.00  0.00    -0.070 A 
ATOM     17  C   LIG    1       -1.056   3.959   0.995  0.00  0.00    +0.000 A 
ATOM     18  C   LIG    1       -1.319   2.630   0.724  0.00  0.00    +0.020 A 
ATOM     19  C   LIG    1       -0.287   1.785   0.363  0.00  0.00    +0.010 A 
ATOM     20  C   LIG    1        1.002   2.273   0.266  0.00  0.00    +0.010 A 
ATOM     21  C   LIG    1        1.265   3.607   0.533  0.00  0.00    -0.120 A 
ENDBRANCH  11  12
ENDBRANCH   3  11
BRANCH   3  22
ATOM     22  C   LIG    1        5.037   5.181  -1.736  0.00  0.00    +0.330 C 
BRANCH  22  23
ATOM     23  C   LIG    1        5.457   4.758  -3.146  0.00  0.00    -0.050 C 
ATOM     24  C   LIG    1        5.891   5.993  -3.942  0.00  0.00    +0.030 C 
ATOM     25  C   LIG    1        6.234   5.568  -5.374  0.00  0.00    -0.010 C 
ATOM     26  C   LIG    1        5.021   4.871  -5.996  0.00  0.00    +0.200 C 
ATOM     27  O   LIG    1        4.651   3.751  -5.189  0.00  0.00    -0.380 OA
ATOM     28  C   LIG    1        4.274   4.093  -3.854  0.00  0.00    +0.210 C 
ENDBRANCH  22  23
ENDBRANCH   3  22
TORSDOF 5
