REMARK  Name = ZINCqH0000005iZX.0
REMARK                            x       y       z     vdW  Elec       q    Type
REMARK                         _______ _______ _______ _____ _____    ______ ____
ROOT
ATOM      1  C   LIG    1       -1.695  -3.309  -2.385  0.00  0.00    +0.280 C 
ATOM      2  N   LIG    1       -1.756  -2.102  -1.556  0.00  0.00    -0.610 N 
ATOM      3  C   LIG    1       -2.471  -1.037  -1.968  0.00  0.00    +0.560 C 
ATOM      4  O   LIG    1       -2.448  -0.007  -1.328  0.00  0.00    -0.520 OA
ENDROOT
BRANCH   3   5
ATOM      5  C   LIG    1       -3.298  -1.125  -3.224  0.00  0.00    -0.120 C 
ATOM      6  C   LIG    1       -4.777  -0.747  -3.124  0.00  0.00    +0.090 C 
ATOM      7  C   LIG    1       -4.372  -2.213  -3.288  0.00  0.00    +0.050 C 
BRANCH   5   8
ATOM      8  C   LIG    1       -2.577  -0.783  -4.503  0.00  0.00    -0.060 A 
ATOM      9  C   LIG    1       -2.451  -1.733  -5.500  0.00  0.00    +0.060 A 
ATOM     10  C   LIG    1       -1.794  -1.419  -6.675  0.00  0.00    -0.010 A 
ATOM     11  C   LIG    1       -1.253  -0.157  -6.849  0.00  0.00    +0.100 A 
ATOM     12  C   LIG    1       -1.376   0.792  -5.848  0.00  0.00    -0.010 A 
ATOM     13  F   LIG    1       -0.607   0.149  -7.995  0.00  0.00    -0.140 F 
ATOM     14  C   LIG    1       -2.038   0.478  -4.676  0.00  0.00    +0.070 A 
ENDBRANCH   5   8
ENDBRANCH   3   5
BRANCH   2  15
ATOM     15  C   LIG    1       -1.040  -2.054  -0.279  0.00  0.00    +0.380 C 
BRANCH  15  16
ATOM     16  C   LIG    1        0.353  -1.524  -0.503  0.00  0.00    -0.250 A 
ATOM     17  C   LIG    1        1.450  -2.264  -0.786  0.00  0.00    +0.250 A 
ATOM     18  N   LIG    1        2.496  -1.417  -0.913  0.00  0.00    -0.320 N 
ATOM     19  N   LIG    1        2.024  -0.115  -0.701  0.00  0.00    -0.290 NA
ATOM     20  C   LIG    1        0.740  -0.181  -0.456  0.00  0.00    +0.270 A 
BRANCH  18  21
ATOM     21  C   LIG    1        3.819  -1.777  -1.205  0.00  0.00    +0.160 A 
ATOM     22  C   LIG    1        4.152  -3.113  -1.386  0.00  0.00    -0.010 A 
ATOM     23  C   LIG    1        5.456  -3.464  -1.679  0.00  0.00    +0.040 A 
ATOM     24  C   LIG    1        6.430  -2.489  -1.780  0.00  0.00    +0.000 A 
ATOM     25  C   LIG    1        6.103  -1.158  -1.594  0.00  0.00    +0.040 A 
ATOM     26  C   LIG    1        4.800  -0.800  -1.307  0.00  0.00    +0.020 A 
ENDBRANCH  18  21
ENDBRANCH  15  16
ENDBRANCH   2  15
TORSDOF 5
