REMARK  Name = ZINCrH000004pD7L.0
REMARK                            x       y       z     vdW  Elec       q    Type
REMARK                         _______ _______ _______ _____ _____    ______ ____
ROOT
ATOM      1  N   LIG    1        4.749  -1.833  -3.133  0.00  0.00    -0.530 NA
ATOM      2  C   LIG    1        6.061  -1.173  -3.086  0.00  0.00    +0.180 C 
ATOM      3  C   LIG    1        6.205  -0.423  -1.760  0.00  0.00    +0.190 C 
ATOM      4  N   LIG    1        5.119   0.561  -1.637  0.00  0.00    -0.530 NA
ATOM      5  C   LIG    1        3.807  -0.099  -1.684  0.00  0.00    +0.200 C 
ATOM      6  C   LIG    1        3.663  -0.850  -3.010  0.00  0.00    +0.200 C 
ENDROOT
BRANCH   1   8
ATOM      7  C   LIG    1        3.283  -3.401  -4.313  0.00  0.00    +0.080 C 
ATOM      8  C   LIG    1        4.603  -2.628  -4.360  0.00  0.00    +0.270 C 
BRANCH   8   9
ATOM      9  C   LIG    1        5.750  -3.599  -4.469  0.00  0.00    +0.190 A 
ATOM     10  N   LIG    1        6.474  -3.836  -5.536  0.00  0.00    -0.470 NA
ATOM     11  C   LIG    1        7.372  -4.766  -5.166  0.00  0.00    +0.180 A 
ATOM     12  N   LIG    1        7.148  -5.047  -3.917  0.00  0.00    -0.380 NA
ATOM     13  O   LIG    1        6.220  -4.388  -3.498  0.00  0.00    +0.090 OA
BRANCH  11  14
ATOM     14  C   LIG    1        8.439  -5.373  -6.039  0.00  0.00    +0.020 C 
ATOM     15  C   LIG    1        9.375  -4.272  -6.541  0.00  0.00    +0.060 C 
ATOM     16  C   LIG    1        7.785  -6.070  -7.234  0.00  0.00    +0.060 C 
ATOM     17  C   LIG    1        9.241  -6.394  -5.230  0.00  0.00    +0.050 C 
ENDBRANCH  11  14
ENDBRANCH   8   9
ENDBRANCH   1   8
BRANCH   4  18
ATOM     18  C   LIG    1        5.265   1.355  -0.411  0.00  0.00    +0.210 C 
BRANCH  18  19
ATOM     19  C   LIG    1        6.378   2.388  -0.601  0.00  0.00    +0.190 C 
BRANCH  19  20
ATOM     20  O   LIG    1        5.992   3.324  -1.609  0.00  0.00    -0.290 OA
BRANCH  20  21
ATOM     21  C   LIG    1        6.875   4.315  -1.902  0.00  0.00    +0.140 A 
ATOM     22  C   LIG    1        6.564   5.259  -2.870  0.00  0.00    +0.000 A 
ATOM     23  C   LIG    1        7.465   6.261  -3.172  0.00  0.00    +0.070 A 
ATOM     24  C   LIG    1        8.673   6.331  -2.500  0.00  0.00    -0.080 A 
ATOM     25  C   LIG    1        8.985   5.391  -1.534  0.00  0.00    +0.070 A 
ATOM     26 CL   LIG    1        9.802   7.595  -2.876  0.00  0.00    -0.070 Cl
ATOM     27  C   LIG    1        8.089   4.383  -1.234  0.00  0.00    -0.070 A 
ENDBRANCH  20  21
ENDBRANCH  19  20
ENDBRANCH  18  19
ENDBRANCH   4  18
TORSDOF 7
