REMARK  Name = ZINCrH000004s9O7.0
REMARK                            x       y       z     vdW  Elec       q    Type
REMARK                         _______ _______ _______ _____ _____    ______ ____
ROOT
ATOM      1  N   LIG    1       -1.237   2.067   0.019  0.00  0.00    -0.680 N 
ATOM      2  H   LIG    1       -2.068   1.572  -0.047  0.00  0.00    +0.410 HD
ATOM      3  C   LIG    1       -1.258   3.410   0.128  0.00  0.00    +0.730 C 
ATOM      4  N   LIG    1       -2.434   4.059   0.239  0.00  0.00    -0.630 N 
ATOM      5  C   LIG    1       -3.762   3.428   0.255  0.00  0.00    +0.260 C 
ATOM      6  C   LIG    1       -4.805   4.559   0.371  0.00  0.00    +0.050 C 
ATOM      7  C   LIG    1       -4.034   5.798  -0.155  0.00  0.00    +0.280 C 
ATOM      8  C   LIG    1       -2.602   5.517   0.371  0.00  0.00    +0.300 C 
ATOM      9  O   LIG    1       -0.216   4.037   0.127  0.00  0.00    -0.560 OA
ENDROOT
BRANCH   1  13
ATOM     10  C   LIG    1        2.400   0.033  -0.043  0.00  0.00    -0.070 A 
ATOM     11  C   LIG    1        1.290  -0.540   0.577  0.00  0.00    +0.090 A 
ATOM     12  C   LIG    1        0.089   0.135   0.598  0.00  0.00    -0.030 A 
ATOM     13  C   LIG    1       -0.017   1.387   0.001  0.00  0.00    +0.180 A 
ATOM     14  C   LIG    1        1.089   1.960  -0.618  0.00  0.00    +0.020 A 
ATOM     15  C   LIG    1        2.292   1.288  -0.642  0.00  0.00    +0.090 A 
BRANCH  10  21
ATOM     16  C   LIG    1        7.088  -0.107  -1.378  0.00  0.00    +0.140 C 
ATOM     17  C   LIG    1        5.906  -0.750  -0.700  0.00  0.00    +0.180 A 
ATOM     18  C   LIG    1        6.029  -1.998  -0.109  0.00  0.00    -0.090 A 
ATOM     19  C   LIG    1        4.917  -2.555   0.505  0.00  0.00    +0.330 A 
ATOM     20  N   LIG    1        3.778  -1.884   0.508  0.00  0.00    -0.520 NA
ATOM     21  C   LIG    1        3.693  -0.691  -0.067  0.00  0.00    +0.370 A 
ATOM     22  N   LIG    1        4.737  -0.133  -0.666  0.00  0.00    -0.520 NA
ENDBRANCH  10  21
ENDBRANCH   1  13
BRANCH   7  23
ATOM     23  N   LIG    1       -4.570   7.034   0.421  0.00  0.00    -0.360 N 
ATOM     24  C   LIG    1       -4.225   7.571   1.611  0.00  0.00    +0.250 A 
ATOM     25  C   LIG    1       -4.942   8.707   1.774  0.00  0.00    -0.180 A 
ATOM     26  C   LIG    1       -5.752   8.871   0.645  0.00  0.00    +0.270 A 
ATOM     27 CL   LIG    1       -4.870   9.773   3.143  0.00  0.00    -0.040 Cl
ATOM     28  N   LIG    1       -5.526   7.871  -0.169  0.00  0.00    -0.270 NA
ENDBRANCH   7  23
TORSDOF 3
