REMARK  Name = ZINCpk00000k495b.0
REMARK                            x       y       z     vdW  Elec       q    Type
REMARK                         _______ _______ _______ _____ _____    ______ ____
ROOT
ATOM      1  C   LIG    1       -0.656   3.329   1.307  0.00  0.00    +0.100 C 
ATOM      2  C   LIG    1       -1.124   2.239   0.312  0.00  0.00    +0.320 C 
ATOM      3  N   LIG    1        0.041   1.336   0.171  0.00  0.00    -0.620 N 
ATOM      4  C   LIG    1        1.209   2.247   0.142  0.00  0.00    +0.280 C 
ATOM      5  C   LIG    1        0.040  -0.009   0.083  0.00  0.00    +0.540 C 
ATOM      6  O   LIG    1       -0.999  -0.623   0.210  0.00  0.00    -0.520 OA
ATOM      7  N   LIG    1       -1.099   4.660   0.799  0.00  0.00    -0.650 NA
ATOM      8  H   LIG    1       -1.352   4.612  -0.177  0.00  0.00    +0.350 HD
ATOM      9  C   LIG    1        0.046   5.581   1.008  0.00  0.00    +0.210 C 
ATOM     10  C   LIG    1        1.274   4.708   0.644  0.00  0.00    +0.020 C 
ATOM     11  C   LIG    1        0.891   3.321   1.203  0.00  0.00    -0.010 C 
ENDROOT
BRANCH   1  12
ATOM     12  C   LIG    1       -1.125   3.071   2.716  0.00  0.00    +0.490 C 
ATOM     13  O   LIG    1       -0.420   2.462   3.486  0.00  0.00    -0.500 OA
BRANCH  12  15
ATOM     14  C   LIG    1       -2.713   3.232   4.486  0.00  0.00    +0.250 C 
ATOM     15  O   LIG    1       -2.327   3.517   3.116  0.00  0.00    -0.340 OA
ENDBRANCH  12  15
ENDBRANCH   1  12
BRANCH   5  16
ATOM     16  C   LIG    1        1.327  -0.749  -0.173  0.00  0.00    +0.250 C 
BRANCH  16  17
ATOM     17  C   LIG    1        1.702  -0.624  -1.651  0.00  0.00    -0.020 C 
ATOM     18  C   LIG    1        0.654  -1.340  -2.505  0.00  0.00    +0.020 C 
ATOM     19  C   LIG    1        3.073  -1.261  -1.885  0.00  0.00    +0.040 C 
ENDBRANCH  16  17
BRANCH  16  20
ATOM     20  N   LIG    1        1.153  -2.163   0.169  0.00  0.00    -0.730 N 
ATOM     21  H   LIG    1        0.297  -2.595   0.026  0.00  0.00    +0.410 HD
BRANCH  20  22
ATOM     22  C   LIG    1        2.222  -2.889   0.700  0.00  0.00    +0.220 A 
ATOM     23  C   LIG    1        3.402  -2.241   1.043  0.00  0.00    -0.080 A 
ATOM     24  C   LIG    1        4.455  -2.961   1.573  0.00  0.00    +0.050 A 
ATOM     25  C   LIG    1        4.339  -4.327   1.752  0.00  0.00    -0.060 A 
ATOM     26  C   LIG    1        3.167  -4.976   1.407  0.00  0.00    +0.050 A 
ATOM     27  C   LIG    1        2.109  -4.261   0.881  0.00  0.00    -0.070 A 
ENDBRANCH  20  22
ENDBRANCH  16  20
ENDBRANCH   5  16
TORSDOF 6
