REMARK  Name = ZINCqH0000031GoY.0
REMARK                            x       y       z     vdW  Elec       q    Type
REMARK                         _______ _______ _______ _____ _____    ______ ____
ROOT
ATOM      1  N   LIG    1       -0.172   1.425  -2.442  0.00  0.00    -0.720 N 
ATOM      2  H   LIG    1        0.679   0.972  -2.550  0.00  0.00    +0.400 HD
ATOM      3  C   LIG    1       -0.604   1.764  -1.212  0.00  0.00    +0.520 C 
ATOM      4  O   LIG    1       -1.669   2.329  -1.077  0.00  0.00    -0.510 OA
ENDROOT
BRANCH   1   5
ATOM      5  C   LIG    1       -0.988   1.739  -3.618  0.00  0.00    +0.330 C 
BRANCH   5   9
ATOM      6  C   LIG    1        1.005   0.375  -7.144  0.00  0.00    +0.160 A 
ATOM      7  C   LIG    1        0.128  -0.466  -6.471  0.00  0.00    +0.020 A 
ATOM      8  C   LIG    1       -0.514  -0.022  -5.331  0.00  0.00    +0.050 A 
ATOM      9  C   LIG    1       -0.285   1.258  -4.861  0.00  0.00    -0.130 A 
ATOM     10  C   LIG    1        0.583   2.100  -5.532  0.00  0.00    +0.050 A 
ATOM     11  C   LIG    1        1.233   1.660  -6.669  0.00  0.00    -0.020 A 
BRANCH   6  14
ATOM     12  C   LIG    1        1.782  -1.504 -10.311  0.00  0.00    +0.110 C 
ATOM     13  C   LIG    1        1.038  -0.930  -9.132  0.00  0.00    +0.510 C 
ATOM     14  N   LIG    1        1.657  -0.071  -8.299  0.00  0.00    -0.680 N 
ATOM     15  H   LIG    1        2.554   0.238  -8.499  0.00  0.00    +0.410 HD
ATOM     16  O   LIG    1       -0.117  -1.243  -8.934  0.00  0.00    -0.520 OA
ENDBRANCH   6  14
ENDBRANCH   5   9
ENDBRANCH   1   5
BRANCH   3  17
ATOM     17  C   LIG    1        0.235   1.440  -0.003  0.00  0.00    +0.220 C 
BRANCH  17  18
ATOM     18  O   LIG    1       -0.432   1.896   1.176  0.00  0.00    -0.290 OA
BRANCH  18  19
ATOM     19  C   LIG    1        0.196   1.681   2.362  0.00  0.00    +0.130 A 
ATOM     20  C   LIG    1        1.427   1.043   2.391  0.00  0.00    -0.070 A 
ATOM     21  C   LIG    1        2.063   0.825   3.598  0.00  0.00    -0.040 A 
ATOM     22  C   LIG    1        1.472   1.242   4.777  0.00  0.00    -0.030 A 
ATOM     23  C   LIG    1        0.245   1.878   4.751  0.00  0.00    +0.050 A 
ATOM     24  C   LIG    1       -0.392   2.103   3.546  0.00  0.00    -0.110 A 
ATOM     25  C   LIG    1       -1.727   2.801   3.518  0.00  0.00    +0.090 C 
BRANCH  21  26
ATOM     26  C   LIG    1        3.401   0.133   3.630  0.00  0.00    +0.020 C 
ATOM     27  C   LIG    1        3.294  -1.146   4.462  0.00  0.00    +0.040 C 
ATOM     28  C   LIG    1        4.442   1.064   4.257  0.00  0.00    +0.040 C 
ENDBRANCH  21  26
ENDBRANCH  18  19
ENDBRANCH  17  18
ENDBRANCH   3  17
TORSDOF 7
