REMARK  Name = ZINCtV000002EBbM.0
REMARK                            x       y       z     vdW  Elec       q    Type
REMARK                         _______ _______ _______ _____ _____    ______ ____
ROOT
ATOM      1  C   LIG    1       -0.017   1.413   0.010  0.00  0.00    +0.200 A 
ATOM      2  C   LIG    1        0.002  -0.004   0.002  0.00  0.00    -0.150 A 
ATOM      3  C   LIG    1       -1.096  -0.962   0.007  0.00  0.00    -0.030 A 
ATOM      4  C   LIG    1       -0.713  -2.238  -0.004  0.00  0.00    +0.010 A 
ATOM      5  S   LIG    1        1.034  -2.378  -0.021  0.00  0.00    +0.200 S 
ATOM      6  C   LIG    1        1.247  -0.634  -0.013  0.00  0.00    +0.100 A 
ATOM      7  N   LIG    1        2.357   0.117  -0.019  0.00  0.00    -0.490 NA
ATOM      8  C   LIG    1        2.287   1.428  -0.011  0.00  0.00    +0.540 A 
ATOM      9  N   LIG    1        1.134   2.071   0.002  0.00  0.00    -0.530 NA
ENDROOT
BRANCH   3  10
ATOM     10  C   LIG    1       -2.520  -0.551   0.022  0.00  0.00    -0.050 A 
ATOM     11  C   LIG    1       -2.970   0.378   0.959  0.00  0.00    +0.070 A 
ATOM     12  C   LIG    1       -4.295   0.761   0.966  0.00  0.00    +0.000 A 
ATOM     13  C   LIG    1       -5.181   0.215   0.051  0.00  0.00    +0.110 A 
ATOM     14  C   LIG    1       -4.740  -0.713  -0.878  0.00  0.00    -0.010 A 
ATOM     15  F   LIG    1       -6.479   0.589   0.066  0.00  0.00    -0.130 F 
ATOM     16  C   LIG    1       -3.415  -1.098  -0.897  0.00  0.00    +0.070 A 
ENDBRANCH   3  10
BRANCH   1  17
ATOM     17  S   LIG    1       -1.547   2.287   0.022  0.00  0.00    +0.080 S 
BRANCH  17  19
ATOM     18  C   LIG    1       -0.196   4.272  -1.281  0.00  0.00    +0.090 C 
ATOM     19  C   LIG    1       -0.936   3.991   0.028  0.00  0.00    +0.110 C 
BRANCH  19  20
ATOM     20  C   LIG    1       -2.098   4.941   0.163  0.00  0.00    +0.180 A 
ATOM     21  N   LIG    1       -3.225   4.875  -0.488  0.00  0.00    -0.260 NA
ATOM     22  N   LIG    1       -3.989   5.844  -0.127  0.00  0.00    -0.260 NA
ATOM     23  C   LIG    1       -3.369   6.571   0.777  0.00  0.00    +0.250 A 
ATOM     24  O   LIG    1       -2.161   6.007   0.981  0.00  0.00    -0.210 OA
BRANCH  23  25
ATOM     25  C   LIG    1       -3.897   7.771   1.444  0.00  0.00    -0.160 A 
ATOM     26  C   LIG    1       -5.124   8.318   1.225  0.00  0.00    +0.100 A 
ATOM     27  C   LIG    1       -5.388   9.443   1.975  0.00  0.00    +0.020 A 
ATOM     28  C   LIG    1       -4.405   9.822   2.798  0.00  0.00    -0.010 A 
ATOM     29  S   LIG    1       -3.044   8.718   2.656  0.00  0.00    +0.170 S 
ENDBRANCH  23  25
ENDBRANCH  19  20
ENDBRANCH  17  19
ENDBRANCH   1  17
TORSDOF 5
