REMARK  Name = ZINCqH0000037XlD.0
REMARK                            x       y       z     vdW  Elec       q    Type
REMARK                         _______ _______ _______ _____ _____    ______ ____
ROOT
ATOM      1  C   LIG    1       -2.309  -0.278  -0.147  0.00  0.00    +0.690 C 
ATOM      2  N   LIG    1       -3.371  -1.088   0.029  0.00  0.00    -0.650 N 
ATOM      3  H   LIG    1       -3.247  -2.049   0.073  0.00  0.00    +0.420 HD
ATOM      4  O   LIG    1       -2.474   0.921  -0.295  0.00  0.00    -0.630 OA
ENDROOT
BRANCH   1  10
ATOM      5  C   LIG    1        2.094   0.743  -0.570  0.00  0.00    +0.270 A 
ATOM      6  C   LIG    1        1.320  -0.385  -0.371  0.00  0.00    -0.090 A 
ATOM      7  C   LIG    1       -0.023   0.012  -0.336  0.00  0.00    +0.500 A 
ATOM      8  N   LIG    1       -0.064   1.377  -0.513  0.00  0.00    -0.480 N 
ATOM      9  H   LIG    1       -0.863   1.926  -0.536  0.00  0.00    +0.460 HD
ATOM     10  N   LIG    1       -1.074  -0.789  -0.161  0.00  0.00    -0.650 NA
ATOM     11  N   LIG    1        1.254   1.831  -0.659  0.00  0.00    -0.480 N 
ATOM     12  H   LIG    1        1.526   2.751  -0.798  0.00  0.00    +0.450 HD
BRANCH   5  17
ATOM     13  C   LIG    1        7.415  -0.166  -0.800  0.00  0.00    +0.140 C 
ATOM     14  C   LIG    1        6.000   0.353  -0.775  0.00  0.00    -0.200 A 
ATOM     15  C   LIG    1        5.662   1.639  -0.922  0.00  0.00    -0.010 A 
ATOM     16  C   LIG    1        4.311   1.896  -0.873  0.00  0.00    +0.050 A 
ATOM     17  C   LIG    1        3.555   0.775  -0.670  0.00  0.00    -0.200 A 
ATOM     18  S   LIG    1        4.617  -0.622  -0.555  0.00  0.00    +0.270 S 
ENDBRANCH   5  17
ENDBRANCH   1  10
BRANCH   2  19
ATOM     19  C   LIG    1       -4.656  -0.542   0.150  0.00  0.00    +0.070 A 
ATOM     20  C   LIG    1       -5.646  -0.901  -0.724  0.00  0.00    +0.130 A 
ATOM     21  C   LIG    1       -6.923  -0.339  -0.580  0.00  0.00    -0.280 A 
ATOM     22  C   LIG    1       -7.165   0.546   0.413  0.00  0.00    +0.380 A 
ATOM     23  N   LIG    1       -6.183   0.904   1.282  0.00  0.00    -0.600 N 
ATOM     24  H   LIG    1       -6.376   1.542   1.988  0.00  0.00    +0.430 HD
ATOM     25  C   LIG    1       -4.947   0.381   1.179  0.00  0.00    +0.520 A 
ATOM     26  O   LIG    1       -4.076   0.708   1.969  0.00  0.00    -0.510 OA
BRANCH  21  27
ATOM     27  C   LIG    1       -8.026  -0.723  -1.533  0.00  0.00    +0.530 C 
ATOM     28  F   LIG    1       -8.251  -2.101  -1.454  0.00  0.00    -0.170 F 
ATOM     29  F   LIG    1       -7.653  -0.385  -2.838  0.00  0.00    -0.170 F 
ATOM     30  F   LIG    1       -9.197  -0.038  -1.190  0.00  0.00    -0.180 F 
ENDBRANCH  21  27
ENDBRANCH   2  19
TORSDOF 4
