REMARK  Name = ZINCqH0000038Axq.0
REMARK                            x       y       z     vdW  Elec       q    Type
REMARK                         _______ _______ _______ _____ _____    ______ ____
ROOT
ATOM      1  C   LIG    1        5.296   6.697  -0.018  0.00  0.00    +0.350 C 
ATOM      2  C   LIG    1        5.336   7.336  -1.407  0.00  0.00    +0.040 C 
ENDROOT
BRANCH   1   3
ATOM      3  N   LIG    1        4.881   7.697   0.968  0.00  0.00    -0.740 N 
ATOM      4  H   LIG    1        3.949   7.766   1.227  0.00  0.00    +0.390 HD
ATOM      5  C   LIG    1        5.795   8.523   1.516  0.00  0.00    +0.710 C 
ATOM      6  N   LIG    1        5.400   9.509   2.346  0.00  0.00    -0.630 N 
ATOM      7  C   LIG    1        3.992   9.630   2.749  0.00  0.00    +0.250 C 
ATOM      8  C   LIG    1        3.925   9.667   4.283  0.00  0.00    +0.020 C 
ATOM      9  C   LIG    1        4.825  10.791   4.801  0.00  0.00    -0.010 C 
ATOM     10  C   LIG    1        6.273  10.518   4.389  0.00  0.00    +0.020 C 
ATOM     11  C   LIG    1        6.369  10.487   2.860  0.00  0.00    +0.300 C 
ATOM     12  O   LIG    1        6.975   8.379   1.261  0.00  0.00    -0.580 OA
BRANCH   9  13
ATOM     13  C   LIG    1        4.732  10.857   6.326  0.00  0.00    +0.180 C 
BRANCH  13  14
ATOM     14  O   LIG    1        3.406  11.227   6.707  0.00  0.00    -0.570 OA
ATOM     15  H   LIG    1        3.274  11.289   7.663  0.00  0.00    +0.380 HD
ENDBRANCH  13  14
ENDBRANCH   9  13
ENDBRANCH   1   3
BRANCH   1  18
ATOM     16  C   LIG    1        6.051   3.771  -0.043  0.00  0.00    +0.150 C 
ATOM     17  C   LIG    1        4.623   4.254  -0.029  0.00  0.00    +0.090 A 
ATOM     18  C   LIG    1        4.313   5.554  -0.018  0.00  0.00    -0.230 A 
ATOM     19  S   LIG    1        2.557   5.702  -0.013  0.00  0.00    +0.090 S 
ATOM     20  C   LIG    1        2.414   3.946  -0.015  0.00  0.00    +0.120 A 
ATOM     21  N   LIG    1        3.606   3.422  -0.027  0.00  0.00    -0.460 NA
BRANCH  20  22
ATOM     22  C   LIG    1        1.144   3.189  -0.011  0.00  0.00    -0.040 A 
ATOM     23  C   LIG    1        1.161   1.793  -0.020  0.00  0.00    +0.110 A 
ATOM     24  C   LIG    1       -0.026   1.092  -0.017  0.00  0.00    +0.000 A 
ATOM     25  C   LIG    1       -1.235   1.770  -0.010  0.00  0.00    +0.120 A 
ATOM     26  C   LIG    1       -1.257   3.155   0.004  0.00  0.00    +0.000 A 
ATOM     27  F   LIG    1       -2.395   1.078  -0.012  0.00  0.00    -0.130 F 
ATOM     28  C   LIG    1       -0.076   3.867   0.001  0.00  0.00    +0.070 A 
ENDBRANCH  20  22
ENDBRANCH   1  18
TORSDOF 5
