REMARK  Name = ZINCqH0000003I3z.0
REMARK                            x       y       z     vdW  Elec       q    Type
REMARK                         _______ _______ _______ _____ _____    ______ ____
ROOT
ATOM      1  N   LIG    1        2.328   4.837   0.006  0.00  0.00    -0.420 N 
ATOM      2  C   LIG    1        1.674   6.059   0.019  0.00  0.00    +0.060 A 
ATOM      3  C   LIG    1        2.101   7.378   0.021  0.00  0.00    +0.010 A 
ATOM      4  C   LIG    1        1.175   8.400   0.035  0.00  0.00    +0.030 A 
ATOM      5  C   LIG    1       -0.183   8.118   0.047  0.00  0.00    +0.010 A 
ATOM      6  C   LIG    1       -0.625   6.814   0.045  0.00  0.00    +0.060 A 
ATOM      7  C   LIG    1        0.299   5.767   0.030  0.00  0.00    +0.060 A 
ATOM      8  N   LIG    1        0.177   4.414   0.018  0.00  0.00    -0.490 NA
ATOM      9  C   LIG    1        1.366   3.863   0.010  0.00  0.00    +0.250 A 
ENDROOT
BRANCH   1  13
ATOM     10  C   LIG    1        6.456   4.238  -0.036  0.00  0.00    +0.150 A 
ATOM     11  C   LIG    1        5.687   3.841  -1.120  0.00  0.00    +0.000 A 
ATOM     12  C   LIG    1        4.321   4.039  -1.107  0.00  0.00    +0.080 A 
ATOM     13  C   LIG    1        3.716   4.635  -0.008  0.00  0.00    +0.070 A 
ATOM     14  C   LIG    1        4.487   5.037   1.074  0.00  0.00    +0.070 A 
ATOM     15  C   LIG    1        5.853   4.834   1.062  0.00  0.00    -0.060 A 
BRANCH  10  16
ATOM     16  O   LIG    1        7.802   4.043  -0.050  0.00  0.00    -0.310 OA
BRANCH  16  18
ATOM     17  C   LIG    1       10.019   4.176   0.903  0.00  0.00    +0.070 C 
ATOM     18  C   LIG    1        8.532   4.476   1.100  0.00  0.00    +0.180 C 
ENDBRANCH  16  18
ENDBRANCH  10  16
ENDBRANCH   1  13
BRANCH   9  19
ATOM     19  S   LIG    1        1.680   2.129  -0.003  0.00  0.00    +0.090 S 
BRANCH  19  20
ATOM     20  C   LIG    1       -0.018   1.503   0.010  0.00  0.00    +0.110 C 
BRANCH  20  21
ATOM     21  C   LIG    1        0.002  -0.004   0.002  0.00  0.00    +0.540 C 
ATOM     22  N   LIG    1       -1.156  -0.694   0.009  0.00  0.00    -0.700 N 
ATOM     23  H   LIG    1       -2.002  -0.220   0.020  0.00  0.00    +0.410 HD
ATOM     24  O   LIG    1        1.060  -0.596  -0.011  0.00  0.00    -0.520 OA
BRANCH  22  25
ATOM     25  C   LIG    1       -1.136  -2.159   0.001  0.00  0.00    +0.220 C 
ATOM     26  C   LIG    1       -2.116  -2.873  -0.932  0.00  0.00    +0.020 C 
ATOM     27  C   LIG    1       -2.352  -2.885   0.581  0.00  0.00    +0.020 C 
ENDBRANCH  22  25
ENDBRANCH  20  21
ENDBRANCH  19  20
ENDBRANCH   9  19
TORSDOF 7
