REMARK  Name = ZINCrD000000fRCt.0
REMARK                            x       y       z     vdW  Elec       q    Type
REMARK                         _______ _______ _______ _____ _____    ______ ____
ROOT
ATOM      1  C   LIG    1       -6.880  -0.461   1.924  0.00  0.00    +0.010 C 
ATOM      2  C   LIG    1       -7.297   0.275   0.649  0.00  0.00    +0.100 C 
ENDROOT
BRANCH   1   5
ATOM      3  N   LIG    1       -9.052  -0.915   3.016  0.00  0.00    -0.650 N 
ATOM      4  H   LIG    1       -9.142   0.039   3.166  0.00  0.00    +0.430 HD
ATOM      5  C   LIG    1       -7.983  -1.395   2.349  0.00  0.00    +0.540 C 
ATOM      6  O   LIG    1       -7.910  -2.577   2.091  0.00  0.00    -0.500 OA
BRANCH   3  12
ATOM      7  C   LIG    1      -10.760  -1.469   4.646  0.00  0.00    -0.210 A 
ATOM      8  C   LIG    1      -11.741  -2.355   5.107  0.00  0.00    +0.090 A 
ATOM      9  C   LIG    1      -11.970  -3.535   4.435  0.00  0.00    -0.020 A 
ATOM     10  C   LIG    1      -11.240  -3.849   3.300  0.00  0.00    +0.070 A 
ATOM     11  C   LIG    1      -10.273  -2.983   2.828  0.00  0.00    +0.010 A 
ATOM     12  C   LIG    1      -10.026  -1.789   3.490  0.00  0.00    +0.210 A 
BRANCH   7  14
ATOM     13  C   LIG    1      -11.214   0.074   6.658  0.00  0.00    +0.090 C 
ATOM     14  C   LIG    1      -10.504  -0.213   5.360  0.00  0.00    +0.400 C 
ATOM     15  O   LIG    1       -9.722   0.595   4.905  0.00  0.00    -0.470 OA
ENDBRANCH   7  14
ENDBRANCH   3  12
ENDBRANCH   1   5
BRANCH   1  16
ATOM     16  S   LIG    1       -5.370  -1.415   1.604  0.00  0.00    +0.100 S 
BRANCH  16  17
ATOM     17  C   LIG    1       -4.174  -0.165   1.272  0.00  0.00    -0.060 A 
ATOM     18  N   LIG    1       -4.386   1.119   1.271  0.00  0.00    -0.240 NA
ATOM     19  N   LIG    1       -3.411   1.874   1.010  0.00  0.00    -0.280 NA
ATOM     20  C   LIG    1       -2.264   1.318   0.761  0.00  0.00    +0.250 A 
ATOM     21  S   LIG    1       -2.475  -0.430   0.874  0.00  0.00    +0.160 S 
BRANCH  20  22
ATOM     22  N   LIG    1       -1.079   1.983   0.454  0.00  0.00    -0.480 N 
ATOM     23  C   LIG    1        0.003   1.284   0.057  0.00  0.00    +0.520 C 
ATOM     24  O   LIG    1        1.066   1.848  -0.098  0.00  0.00    -0.490 OA
ATOM     25  C   LIG    1       -0.106  -0.199  -0.188  0.00  0.00    +0.140 C 
BRANCH  22  26
ATOM     26  C   LIG    1       -1.009   3.443   0.562  0.00  0.00    +0.210 C 
ATOM     27  C   LIG    1        0.173   4.145  -0.110  0.00  0.00    +0.060 C 
ATOM     28  C   LIG    1        0.115   4.035   1.415  0.00  0.00    +0.040 C 
ENDBRANCH  22  26
ENDBRANCH  20  22
ENDBRANCH  16  17
ENDBRANCH   1  16
TORSDOF 7
