REMARK  Name = ZINCpe000000Udkn.0
REMARK                            x       y       z     vdW  Elec       q    Type
REMARK                         _______ _______ _______ _____ _____    ______ ____
ROOT
ATOM      1  C   LIG    1        3.380   5.834  -0.914  0.00  0.00    +0.520 C 
ATOM      2  N   LIG    1        3.534   7.165  -1.061  0.00  0.00    -0.620 N 
ATOM      3  C   LIG    1        4.587   7.712  -1.929  0.00  0.00    +0.320 C 
ATOM      4  C   LIG    1        3.943   8.725  -2.889  0.00  0.00    +0.190 C 
ATOM      5  N   LIG    1        3.199   9.725  -2.110  0.00  0.00    -0.450 N 
ATOM      6  C   LIG    1        2.092   9.106  -1.369  0.00  0.00    +0.230 C 
ATOM      7  C   LIG    1        2.656   8.109  -0.352  0.00  0.00    +0.300 C 
ATOM      8  O   LIG    1        4.173   5.072  -1.425  0.00  0.00    -0.510 OA
ENDROOT
BRANCH   5   9
ATOM      9  C   LIG    1        2.742  10.747  -2.923  0.00  0.00    +0.420 A 
ATOM     10  N   LIG    1        1.495  11.143  -3.053  0.00  0.00    -0.360 NA
ATOM     11  N   LIG    1        1.417  12.118  -3.886  0.00  0.00    -0.020 NA
ATOM     12  N   LIG    1        2.586  12.406  -4.348  0.00  0.00    -0.080 NA
ATOM     13  N   LIG    1        3.494  11.523  -3.738  0.00  0.00    -0.390 N 
ATOM     14  C   LIG    1        4.943  11.457  -3.941  0.00  0.00    +0.390 C 
ENDBRANCH   5   9
BRANCH   1  15
ATOM     15  C   LIG    1        2.223   5.293  -0.115  0.00  0.00    +0.170 C 
ATOM     16  C   LIG    1        2.396   5.676   1.357  0.00  0.00    +0.060 C 
BRANCH  15  17
ATOM     17  O   LIG    1        2.186   3.869  -0.235  0.00  0.00    -0.280 OA
BRANCH  17  21
ATOM     18  C   LIG    1       -1.532   2.081  -0.171  0.00  0.00    -0.120 A 
ATOM     19  C   LIG    1       -1.417   3.442   0.047  0.00  0.00    +0.050 A 
ATOM     20  C   LIG    1       -0.173   4.043   0.027  0.00  0.00    -0.080 A 
ATOM     21  C   LIG    1        0.961   3.281  -0.216  0.00  0.00    +0.120 A 
ATOM     22  C   LIG    1        0.842   1.917  -0.440  0.00  0.00    -0.010 A 
ATOM     23  C   LIG    1       -0.404   1.321  -0.419  0.00  0.00    +0.050 A 
BRANCH  18  25
ATOM     24  C   LIG    1       -3.493   1.444  -1.548  0.00  0.00    +0.020 C 
ATOM     25  C   LIG    1       -2.889   1.427  -0.142  0.00  0.00    +0.060 C 
ENDBRANCH  18  25
ENDBRANCH  17  21
ENDBRANCH  15  17
ENDBRANCH   1  15
TORSDOF 5
