REMARK  Name = ZINCkj00000GeT3R.0
REMARK                            x       y       z     vdW  Elec       q    Type
REMARK                         _______ _______ _______ _____ _____    ______ ____
ROOT
ATOM      1  N   LIG    1       -3.666   2.038  -0.158  0.00  0.00    -0.500 N 
ATOM      2  H   LIG    1       -3.704   2.336   0.805  0.00  0.00    +0.430 HD
ATOM      3  H   LIG    1       -4.454   1.439  -0.356  0.00  0.00    +0.440 HD
ENDROOT
BRANCH   1   4
ATOM      4  C   LIG    1       -2.418   1.299  -0.393  0.00  0.00    +0.170 C 
ATOM      5  C   LIG    1       -2.426   0.008   0.430  0.00  0.00    +0.070 C 
ATOM      6  C   LIG    1       -1.237  -0.866   0.011  0.00  0.00    +0.210 C 
ATOM      7  C   LIG    1        0.002  -0.004   0.002  0.00  0.00    +0.270 A 
ATOM      8  N   LIG    1        1.246  -0.391  -0.013  0.00  0.00    -0.520 NA
ATOM      9  C   LIG    1        2.050   0.675  -0.015  0.00  0.00    +0.450 A 
ATOM     10  N   LIG    1        1.317   1.761  -0.001  0.00  0.00    -0.300 NA
ATOM     11  N   LIG    1       -0.016   1.343   0.009  0.00  0.00    -0.390 N 
ATOM     12  C   LIG    1       -1.225   2.166   0.020  0.00  0.00    +0.350 C 
ENDBRANCH   1   4
BRANCH   1  13
ATOM     13  C   LIG    1       -3.713   3.214  -1.037  0.00  0.00    +0.340 C 
BRANCH  13  18
ATOM     14  C   LIG    1       -6.157   5.854   0.137  0.00  0.00    -0.010 A 
ATOM     15  C   LIG    1       -7.362   5.353  -0.361  0.00  0.00    +0.150 A 
ATOM     16  C   LIG    1       -7.373   4.170  -1.069  0.00  0.00    +0.020 A 
ATOM     17  C   LIG    1       -6.191   3.481  -1.292  0.00  0.00    +0.150 A 
ATOM     18  C   LIG    1       -4.993   3.971  -0.795  0.00  0.00    -0.200 A 
ATOM     19  F   LIG    1       -6.207   2.325  -1.991  0.00  0.00    -0.120 F 
ATOM     20  C   LIG    1       -4.970   5.152  -0.086  0.00  0.00    +0.150 A 
BRANCH  14  22
ATOM     21  N   LIG    1       -6.126   8.056   1.458  0.00  0.00    -0.370 NA
ATOM     22  C   LIG    1       -6.140   7.082   0.874  0.00  0.00    +0.230 C 
ENDBRANCH  14  22
ENDBRANCH  13  18
ENDBRANCH   1  13
TORSDOF 4
