REMARK  Name = ZINCpe00000bYS4g.0
REMARK                            x       y       z     vdW  Elec       q    Type
REMARK                         _______ _______ _______ _____ _____    ______ ____
ROOT
ATOM      1  C   LIG    1        4.396   1.880  -0.030  0.00  0.00    +0.600 C 
ATOM      2  N   LIG    1        5.738   1.788   0.058  0.00  0.00    -0.650 N 
ATOM      3  C   LIG    1        6.726   0.699   0.084  0.00  0.00    +0.280 C 
ATOM      4  C   LIG    1        7.745   1.685  -0.510  0.00  0.00    +0.240 C 
ATOM      5  C   LIG    1        6.859   2.734   0.176  0.00  0.00    +0.300 C 
ATOM      6  O   LIG    1        3.866   2.971  -0.119  0.00  0.00    -0.540 OA
ENDROOT
BRANCH   1  10
ATOM      7  C   LIG    1        3.828  -2.912   1.219  0.00  0.00    +0.100 C 
ATOM      8  C   LIG    1        3.285  -1.659   0.581  0.00  0.00    -0.140 A 
ATOM      9  C   LIG    1        4.055  -0.509   0.567  0.00  0.00    +0.110 A 
ATOM     10  C   LIG    1        3.571   0.658  -0.018  0.00  0.00    -0.160 A 
ATOM     11  C   LIG    1        2.290   0.663  -0.597  0.00  0.00    +0.180 A 
ATOM     12  N   LIG    1        1.545   1.615  -1.233  0.00  0.00    -0.490 N 
ATOM     13  H   LIG    1        1.822   2.530  -1.395  0.00  0.00    +0.450 HD
ATOM     14  N   LIG    1        0.318   1.060  -1.611  0.00  0.00    -0.240 NA
ATOM     15  C   LIG    1        0.260  -0.189  -1.245  0.00  0.00    +0.280 A 
ATOM     16  C   LIG    1        1.517  -0.513  -0.576  0.00  0.00    -0.190 A 
ATOM     17  C   LIG    1        2.028  -1.671   0.019  0.00  0.00    +0.140 A 
ENDBRANCH   1  10
BRANCH   4  18
ATOM     18  N   LIG    1        7.736   1.757  -1.974  0.00  0.00    -0.680 N 
ATOM     19  H   LIG    1        6.975   2.142  -2.436  0.00  0.00    +0.420 HD
ATOM     20  C   LIG    1        8.785   1.288  -2.678  0.00  0.00    +0.580 C 
ATOM     21  O   LIG    1        9.738   0.805  -2.099  0.00  0.00    -0.490 OA
BRANCH  20  22
ATOM     22  C   LIG    1        8.776   1.360  -4.160  0.00  0.00    +0.260 C 
ATOM     23  N   LIG    1        7.807   1.854  -4.821  0.00  0.00    -0.530 NA
ATOM     24  C   LIG    1        7.808   1.916  -6.156  0.00  0.00    +0.530 C 
ATOM     25  S   LIG    1        9.340   1.209  -6.708  0.00  0.00    -0.210 S 
ATOM     26  O   LIG    1        6.926   2.371  -6.859  0.00  0.00    -0.370 OA
ATOM     27  C   LIG    1        9.923   0.858  -5.013  0.00  0.00    +0.210 C 
ENDBRANCH  20  22
ENDBRANCH   4  18
TORSDOF 3
