REMARK  Name = ZINCpe00000bYS4g.2
REMARK                            x       y       z     vdW  Elec       q    Type
REMARK                         _______ _______ _______ _____ _____    ______ ____
ROOT
ATOM      1  C   LIG    1        4.396   1.880  -0.030  0.00  0.00    +0.600 C 
ATOM      2  N   LIG    1        5.738   1.789   0.058  0.00  0.00    -0.640 N 
ATOM      3  C   LIG    1        6.726   0.699   0.085  0.00  0.00    +0.270 C 
ATOM      4  C   LIG    1        7.745   1.685  -0.509  0.00  0.00    +0.250 C 
ATOM      5  C   LIG    1        6.859   2.734   0.176  0.00  0.00    +0.280 C 
ATOM      6  O   LIG    1        3.866   2.971  -0.121  0.00  0.00    -0.540 OA
ENDROOT
BRANCH   1  10
ATOM      7  C   LIG    1        3.828  -2.911   1.224  0.00  0.00    +0.100 C 
ATOM      8  C   LIG    1        3.285  -1.659   0.584  0.00  0.00    -0.140 A 
ATOM      9  C   LIG    1        4.055  -0.508   0.569  0.00  0.00    +0.100 A 
ATOM     10  C   LIG    1        3.571   0.658  -0.018  0.00  0.00    -0.160 A 
ATOM     11  C   LIG    1        2.291   0.662  -0.598  0.00  0.00    +0.180 A 
ATOM     12  N   LIG    1        1.546   1.613  -1.234  0.00  0.00    -0.490 N 
ATOM     13  H   LIG    1        1.823   2.528  -1.397  0.00  0.00    +0.450 HD
ATOM     14  N   LIG    1        0.319   1.058  -1.613  0.00  0.00    -0.240 NA
ATOM     15  C   LIG    1        0.262  -0.190  -1.246  0.00  0.00    +0.280 A 
ATOM     16  C   LIG    1        1.518  -0.514  -0.576  0.00  0.00    -0.190 A 
ATOM     17  C   LIG    1        2.029  -1.672   0.020  0.00  0.00    +0.140 A 
ENDBRANCH   1  10
BRANCH   4  18
ATOM     18  N   LIG    1        9.091   1.573   0.058  0.00  0.00    -0.700 N 
ATOM     19  H   LIG    1        9.253   1.834   0.978  0.00  0.00    +0.410 HD
ATOM     20  C   LIG    1       10.105   1.108  -0.699  0.00  0.00    +0.580 C 
ATOM     21  O   LIG    1        9.902   0.781  -1.854  0.00  0.00    -0.520 OA
BRANCH  20  22
ATOM     22  C   LIG    1       11.452   0.996  -0.132  0.00  0.00    +0.050 A 
ATOM     23  C   LIG    1       11.709   1.350   1.143  0.00  0.00    +0.030 A 
ATOM     24  S   LIG    1       13.440   1.047   1.375  0.00  0.00    +0.020 S 
ATOM     25  C   LIG    1       13.704   0.458  -0.276  0.00  0.00    +0.500 A 
ATOM     26  O   LIG    1       14.752   0.073  -0.763  0.00  0.00    -0.450 OA
ATOM     27  N   LIG    1       12.504   0.522  -0.875  0.00  0.00    -0.620 N 
ATOM     28  H   LIG    1       12.385   0.246  -1.798  0.00  0.00    +0.430 HD
ENDBRANCH  20  22
ENDBRANCH   4  18
TORSDOF 3
