REMARK  Name = ZINCpe00000bYS4g.1
REMARK                            x       y       z     vdW  Elec       q    Type
REMARK                         _______ _______ _______ _____ _____    ______ ____
ROOT
ATOM      1  C   LIG    1       -0.014   1.212   0.009  0.00  0.00    +0.600 C 
ATOM      2  N   LIG    1        1.149   1.675  -0.490  0.00  0.00    -0.640 N 
ATOM      3  C   LIG    1        1.582   2.866  -1.236  0.00  0.00    +0.270 C 
ATOM      4  C   LIG    1        2.976   2.678  -0.615  0.00  0.00    +0.250 C 
ATOM      5  C   LIG    1        2.543   1.208  -0.533  0.00  0.00    +0.280 C 
ATOM      6  O   LIG    1       -0.040   0.157   0.614  0.00  0.00    -0.510 OA
ENDROOT
BRANCH   1  16
ATOM      7  C   LIG    1       -2.390   5.047  -2.086  0.00  0.00    +0.100 C 
ATOM      8  C   LIG    1       -2.437   3.837  -1.189  0.00  0.00    -0.150 A 
ATOM      9  C   LIG    1       -3.616   3.508  -0.600  0.00  0.00    +0.130 A 
ATOM     10  C   LIG    1       -3.704   2.385   0.247  0.00  0.00    -0.220 A 
ATOM     11  C   LIG    1       -4.718   1.792   0.980  0.00  0.00    +0.290 A 
ATOM     12  N   LIG    1       -4.201   0.727   1.605  0.00  0.00    -0.430 N 
ATOM     13  H   LIG    1       -4.696   0.129   2.188  0.00  0.00    +0.450 HD
ATOM     14  N   LIG    1       -2.842   0.602   1.294  0.00  0.00    -0.270 NA
ATOM     15  C   LIG    1       -2.499   1.572   0.475  0.00  0.00    +0.140 A 
ATOM     16  C   LIG    1       -1.255   1.980  -0.184  0.00  0.00    -0.120 A 
ATOM     17  C   LIG    1       -1.274   3.102  -0.998  0.00  0.00    +0.110 A 
ENDBRANCH   1  16
BRANCH   4  18
ATOM     18  N   LIG    1        4.086   2.927  -1.539  0.00  0.00    -0.700 N 
ATOM     19  H   LIG    1        4.245   2.322  -2.280  0.00  0.00    +0.410 HD
ATOM     20  C   LIG    1        4.885   3.997  -1.359  0.00  0.00    +0.580 C 
ATOM     21  O   LIG    1        4.685   4.757  -0.429  0.00  0.00    -0.520 OA
BRANCH  20  22
ATOM     22  C   LIG    1        5.995   4.246  -2.283  0.00  0.00    +0.060 A 
ATOM     23  C   LIG    1        6.241   3.424  -3.322  0.00  0.00    +0.030 A 
ATOM     24  S   LIG    1        7.653   4.115  -4.143  0.00  0.00    +0.020 S 
ATOM     25  C   LIG    1        7.818   5.477  -3.021  0.00  0.00    +0.500 A 
ATOM     26  O   LIG    1        8.654   6.362  -3.054  0.00  0.00    -0.450 OA
ATOM     27  N   LIG    1        6.823   5.330  -2.130  0.00  0.00    -0.620 N 
ATOM     28  H   LIG    1        6.698   5.962  -1.405  0.00  0.00    +0.430 HD
ENDBRANCH  20  22
ENDBRANCH   4  18
TORSDOF 3
