REMARK  Name = ZINCrD00000F5LoE.1
REMARK                            x       y       z     vdW  Elec       q    Type
REMARK                         _______ _______ _______ _____ _____    ______ ____
ROOT
ATOM      1  C   LIG    1        6.836  -0.976  -1.410  0.00  0.00    +0.290 A 
ATOM      2  N   LIG    1        5.858  -1.835  -1.444  0.00  0.00    -0.270 NA
ATOM      3  N   LIG    1        4.685  -1.382  -1.540  0.00  0.00    -0.100 NA
ATOM      4  C   LIG    1        4.534  -0.099  -1.598  0.00  0.00    -0.570 A 
ATOM      5  S   LIG    1        6.135   0.639  -1.525  0.00  0.00    +0.190 S 
ENDROOT
BRANCH   1   8
ATOM      6  O   LIG    1        7.766  -3.459  -1.255  0.00  0.00    -0.460 OA
ATOM      7  C   LIG    1        8.589  -2.563  -1.233  0.00  0.00    +0.550 C 
ATOM      8  N   LIG    1        8.189  -1.278  -1.308  0.00  0.00    -0.620 N 
ATOM      9  H   LIG    1        8.845  -0.564  -1.291  0.00  0.00    +0.430 HD
BRANCH   7  10
ATOM     10  C   LIG    1       10.014  -2.880  -1.125  0.00  0.00    -0.090 C 
ATOM     11  C   LIG    1       10.414  -4.166  -1.050  0.00  0.00    +0.150 C 
BRANCH  11  12
ATOM     12  C   LIG    1       11.847  -4.485  -0.942  0.00  0.00    -0.090 A 
ATOM     13  C   LIG    1       12.796  -3.458  -0.923  0.00  0.00    +0.030 A 
ATOM     14  C   LIG    1       14.136  -3.765  -0.815  0.00  0.00    +0.010 A 
ATOM     15  C   LIG    1       14.543  -5.086  -0.739  0.00  0.00    +0.030 A 
ATOM     16  C   LIG    1       13.610  -6.108  -0.763  0.00  0.00    +0.010 A 
ATOM     17  C   LIG    1       12.266  -5.817  -0.864  0.00  0.00    +0.040 A 
ENDBRANCH  11  12
ENDBRANCH   7  10
ENDBRANCH   1   8
BRANCH   4  18
ATOM     18  S   LIG    1        3.001   0.760  -1.733  0.00  0.00    +2.520 S 
ATOM     19  O   LIG    1        3.341   1.987  -2.363  0.00  0.00    -0.910 OA
ATOM     20  O   LIG    1        2.132  -0.171  -2.363  0.00  0.00    -0.890 OA
BRANCH  18  21
ATOM     21  C   LIG    1        2.490   1.046  -0.016  0.00  0.00    -0.240 C 
BRANCH  21  22
ATOM     22  C   LIG    1        1.175   1.783   0.000  0.00  0.00    -0.120 A 
ATOM     23  C   LIG    1       -0.013   1.076   0.008  0.00  0.00    +0.080 A 
ATOM     24  C   LIG    1       -1.219   1.750   0.017  0.00  0.00    +0.000 A 
ATOM     25  C   LIG    1       -1.237   3.135   0.030  0.00  0.00    +0.120 A 
ATOM     26  C   LIG    1       -0.047   3.842   0.022  0.00  0.00    +0.000 A 
ATOM     27  F   LIG    1       -2.416   3.795   0.045  0.00  0.00    -0.130 F 
ATOM     28  C   LIG    1        1.158   3.165   0.007  0.00  0.00    +0.070 A 
ENDBRANCH  21  22
ENDBRANCH  18  21
ENDBRANCH   4  18
TORSDOF 6
