REMARK  Name = ZINCrH000004v3Eg.1
REMARK                            x       y       z     vdW  Elec       q    Type
REMARK                         _______ _______ _______ _____ _____    ______ ____
ROOT
ATOM      1  O   LIG    1        2.834   0.388  -0.346  0.00  0.00    -0.490 OA
ATOM      2  C   LIG    1        2.507   1.548  -0.181  0.00  0.00    +0.600 C 
ATOM      3  N   LIG    1        3.450   2.497  -0.018  0.00  0.00    -0.670 N 
ATOM      4  H   LIG    1        3.193   3.431   0.037  0.00  0.00    +0.410 HD
ENDROOT
BRANCH   3   5
ATOM      5  C   LIG    1        4.798   2.136   0.073  0.00  0.00    +0.170 A 
ATOM      6  C   LIG    1        5.779   2.979  -0.433  0.00  0.00    +0.020 A 
ATOM      7  C   LIG    1        7.110   2.623  -0.344  0.00  0.00    +0.100 A 
ATOM      8  C   LIG    1        7.469   1.422   0.251  0.00  0.00    +0.110 A 
ATOM      9  C   LIG    1        6.488   0.577   0.759  0.00  0.00    +0.110 A 
ATOM     10  F   LIG    1        6.837  -0.592   1.339  0.00  0.00    -0.120 F 
ATOM     11  C   LIG    1        5.157   0.936   0.675  0.00  0.00    +0.030 A 
BRANCH   8  12
ATOM     12  N   LIG    1        8.822   1.060   0.341  0.00  0.00    -0.330 N 
ATOM     13  C   LIG    1        9.323  -0.062   0.892  0.00  0.00    +0.490 A 
ATOM     14  N   LIG    1       10.626  -0.025   0.772  0.00  0.00    -0.530 NA
ATOM     15  C   LIG    1       10.993   1.101   0.163  0.00  0.00    +0.440 A 
ATOM     16  N   LIG    1        9.924   1.799  -0.121  0.00  0.00    -0.320 NA
ENDBRANCH   8  12
ENDBRANCH   3   5
BRANCH   2  17
ATOM     17  C   LIG    1        1.082   1.915  -0.160  0.00  0.00    -0.040 A 
ATOM     18  C   LIG    1        0.006   1.062  -0.313  0.00  0.00    +0.050 A 
ATOM     19  C   LIG    1       -1.134   1.882  -0.224  0.00  0.00    +0.070 A 
ATOM     20  N   LIG    1       -0.721   3.116  -0.025  0.00  0.00    -0.240 NA
ATOM     21  N   LIG    1        0.562   3.167   0.013  0.00  0.00    -0.370 N 
ATOM     22  H   LIG    1        1.084   3.974   0.146  0.00  0.00    +0.450 HD
BRANCH  19  23
ATOM     23  C   LIG    1       -2.546   1.436  -0.332  0.00  0.00    +0.000 A 
ATOM     24  C   LIG    1       -3.581   2.362  -0.224  0.00  0.00    +0.050 A 
ATOM     25  C   LIG    1       -4.892   1.943  -0.325  0.00  0.00    +0.030 A 
ATOM     26  C   LIG    1       -5.180   0.607  -0.532  0.00  0.00    +0.040 A 
ATOM     27  C   LIG    1       -4.155  -0.318  -0.640  0.00  0.00    -0.030 A 
ATOM     28 CL   LIG    1       -4.524  -1.994  -0.902  0.00  0.00    -0.060 Cl
ATOM     29  C   LIG    1       -2.840   0.092  -0.546  0.00  0.00    +0.050 A 
ENDBRANCH  19  23
ENDBRANCH   2  17
TORSDOF 4
