REMARK  Name = ZINCrH000004v3Eg.0
REMARK                            x       y       z     vdW  Elec       q    Type
REMARK                         _______ _______ _______ _____ _____    ______ ____
ROOT
ATOM      1  O   LIG    1        3.373   3.588   0.091  0.00  0.00    -0.500 OA
ATOM      2  C   LIG    1        2.310   4.177   0.104  0.00  0.00    +0.610 C 
ATOM      3  N   LIG    1        1.156   3.487   0.010  0.00  0.00    -0.660 N 
ATOM      4  H   LIG    1        0.312   3.960  -0.057  0.00  0.00    +0.420 HD
ENDROOT
BRANCH   3   5
ATOM      5  C   LIG    1        1.176   2.088   0.008  0.00  0.00    +0.180 A 
ATOM      6  C   LIG    1        2.134   1.406   0.747  0.00  0.00    +0.040 A 
ATOM      7  C   LIG    1        2.154   0.025   0.745  0.00  0.00    +0.100 A 
ATOM      8  C   LIG    1        1.217  -0.682   0.006  0.00  0.00    +0.110 A 
ATOM      9  C   LIG    1        0.256  -0.000  -0.734  0.00  0.00    +0.110 A 
ATOM     10  F   LIG    1       -0.656  -0.689  -1.454  0.00  0.00    -0.130 F 
ATOM     11  C   LIG    1        0.237   1.381  -0.733  0.00  0.00    +0.010 A 
BRANCH   8  12
ATOM     12  N   LIG    1        1.238  -2.085   0.005  0.00  0.00    -0.330 N 
ATOM     13  C   LIG    1        0.397  -2.905  -0.654  0.00  0.00    +0.490 A 
ATOM     14  N   LIG    1        0.752  -4.139  -0.401  0.00  0.00    -0.540 NA
ATOM     15  C   LIG    1        1.802  -4.148   0.419  0.00  0.00    +0.440 A 
ATOM     16  N   LIG    1        2.137  -2.914   0.695  0.00  0.00    -0.310 NA
ENDBRANCH   8  12
ENDBRANCH   3   5
BRANCH   2  17
ATOM     17  C   LIG    1        2.283   5.649   0.224  0.00  0.00    -0.020 A 
ATOM     18  N   LIG    1        1.207   6.411   0.245  0.00  0.00    -0.240 NA
ATOM     19  N   LIG    1        1.536   7.648   0.361  0.00  0.00    -0.370 N 
ATOM     20  H   LIG    1        0.911   8.388   0.400  0.00  0.00    +0.450 HD
ATOM     21  C   LIG    1        2.893   7.766   0.416  0.00  0.00    +0.060 A 
ATOM     22  C   LIG    1        3.404   6.501   0.330  0.00  0.00    +0.020 A 
BRANCH  21  23
ATOM     23  C   LIG    1        3.665   9.022   0.543  0.00  0.00    -0.010 A 
ATOM     24  C   LIG    1        5.059   8.986   0.592  0.00  0.00    +0.050 A 
ATOM     25  C   LIG    1        5.774  10.161   0.705  0.00  0.00    +0.040 A 
ATOM     26  C   LIG    1        5.111  11.372   0.782  0.00  0.00    +0.040 A 
ATOM     27  C   LIG    1        3.728  11.415   0.739  0.00  0.00    -0.030 A 
ATOM     28 CL   LIG    1        2.905  12.941   0.835  0.00  0.00    -0.060 Cl
ATOM     29  C   LIG    1        3.002  10.247   0.620  0.00  0.00    +0.020 A 
ENDBRANCH  21  23
ENDBRANCH   2  17
TORSDOF 4
