REMARK  Name = ZINC9u0000000C4p.0
REMARK                            x       y       z     vdW  Elec       q    Type
REMARK                         _______ _______ _______ _____ _____    ______ ____
ROOT
ATOM      1  C   LIG    1        0.739  -2.027  -1.265  0.00  0.00    -0.040 C 
ATOM      2  C   LIG    1        1.584  -2.532  -0.094  0.00  0.00    +0.050 C 
ENDROOT
BRANCH   1   3
ATOM      3  C   LIG    1        1.334  -2.514  -2.561  0.00  0.00    +0.360 C 
ATOM      4  O   LIG    1        2.162  -1.847  -3.134  0.00  0.00    -0.450 OA
BRANCH   3   5
ATOM      5  C   LIG    1        0.896  -3.834  -3.142  0.00  0.00    +0.020 C 
ATOM      6  C   LIG    1        1.647  -4.090  -4.450  0.00  0.00    +0.030 C 
ENDBRANCH   3   5
ENDBRANCH   1   3
BRANCH   1   7
ATOM      7  C   LIG    1        0.718  -0.497  -1.257  0.00  0.00    +0.020 C 
BRANCH   7   9
ATOM      8  C   LIG    1       -0.019   1.526   0.010  0.00  0.00    +0.010 C 
ATOM      9  C   LIG    1        0.002  -0.004   0.002  0.00  0.00    +0.000 C 
ENDBRANCH   7   9
ENDBRANCH   1   7
TORSDOF 4
