REMARK  Name = ZINCrD000000Bg1f.0
REMARK                            x       y       z     vdW  Elec       q    Type
REMARK                         _______ _______ _______ _____ _____    ______ ____
ROOT
ATOM      1  O   LIG    1        3.801  -1.835  -0.045  0.00  0.00    -0.490 OA
ATOM      2  C   LIG    1        3.753  -0.620  -0.038  0.00  0.00    +0.550 C 
ATOM      3  N   LIG    1        4.892   0.101  -0.045  0.00  0.00    -0.720 N 
ATOM      4  H   LIG    1        4.853   1.070  -0.039  0.00  0.00    +0.400 HD
ENDROOT
BRANCH   2   5
ATOM      5  C   LIG    1        2.446   0.066  -0.021  0.00  0.00    -0.070 A 
ATOM      6  C   LIG    1        2.383   1.450  -0.013  0.00  0.00    +0.060 A 
ATOM      7  C   LIG    1        1.153   2.104   0.002  0.00  0.00    +0.120 A 
ATOM      8  C   LIG    1       -0.017   1.402   0.010  0.00  0.00    +0.060 A 
ATOM      9  C   LIG    1        0.002  -0.004   0.002  0.00  0.00    +0.100 A 
ATOM     10  N   LIG    1       -1.135  -0.707   0.009  0.00  0.00    -0.420 NA
ATOM     11  C   LIG    1       -1.090  -2.020   0.001  0.00  0.00    +0.270 A 
ATOM     12  C   LIG    1        0.135  -2.690  -0.014  0.00  0.00    +0.260 A 
ATOM     13  N   LIG    1        1.266  -2.019  -0.021  0.00  0.00    -0.390 NA
ATOM     14  F   LIG    1        1.118   3.454   0.009  0.00  0.00    -0.120 F 
ATOM     15  C   LIG    1        1.244  -0.685  -0.013  0.00  0.00    +0.100 A 
ENDBRANCH   2   5
BRANCH   3  16
ATOM     16  C   LIG    1        6.189  -0.580  -0.061  0.00  0.00    +0.250 C 
BRANCH  16  17
ATOM     17  C   LIG    1        7.311   0.460  -0.066  0.00  0.00    +0.260 C 
BRANCH  17  18
ATOM     18  C   LIG    1        8.645  -0.240  -0.083  0.00  0.00    -0.120 A 
ATOM     19  C   LIG    1        9.300  -0.462   1.088  0.00  0.00    +0.040 A 
ATOM     20  C   LIG    1       10.543  -1.120   1.077  0.00  0.00    -0.050 A 
ATOM     21  C   LIG    1       11.246  -1.371   2.266  0.00  0.00    +0.020 A 
ATOM     22  C   LIG    1       12.450  -2.005   2.216  0.00  0.00    +0.020 A 
ATOM     23  C   LIG    1       12.996  -2.411   1.000  0.00  0.00    +0.010 A 
ATOM     24  C   LIG    1       12.343  -2.184  -0.172  0.00  0.00    +0.020 A 
ATOM     25  C   LIG    1       11.099  -1.532  -0.160  0.00  0.00    -0.050 A 
ATOM     26  C   LIG    1       10.395  -1.281  -1.350  0.00  0.00    +0.030 A 
ATOM     27  C   LIG    1        9.192  -0.646  -1.300  0.00  0.00    +0.010 A 
ENDBRANCH  17  18
BRANCH  17  28
ATOM     28  O   LIG    1        7.191   1.284  -1.227  0.00  0.00    -0.550 OA
ATOM     29  H   LIG    1        7.248   0.799  -2.062  0.00  0.00    +0.380 HD
ENDBRANCH  17  28
ENDBRANCH  16  17
ENDBRANCH   3  16
TORSDOF 5
