REMARK  Name = ZINCrD00000hQ51s.0
REMARK                            x       y       z     vdW  Elec       q    Type
REMARK                         _______ _______ _______ _____ _____    ______ ____
ROOT
ATOM      1  C   LIG    1        2.490   1.047  -0.016  0.00  0.00    +0.220 C 
ATOM      2  C   LIG    1        2.983   0.913  -1.459  0.00  0.00    +0.190 C 
ATOM      3  N   LIG    1        4.226   0.128  -1.476  0.00  0.00    -0.470 N 
ATOM      4  C   LIG    1        4.009  -1.203  -0.891  0.00  0.00    +0.130 C 
ATOM      5  C   LIG    1        3.506  -1.048   0.547  0.00  0.00    +0.250 C 
ATOM      6  C   LIG    1        5.327  -1.981  -0.889  0.00  0.00    +0.050 C 
ATOM      7  O   LIG    1        2.315  -0.256   0.547  0.00  0.00    -0.370 OA
ENDROOT
BRANCH   1  14
ATOM      8  C   LIG    1        2.451   3.937   0.000  0.00  0.00    +0.090 C 
ATOM      9  C   LIG    1        1.156   3.166   0.008  0.00  0.00    -0.070 A 
ATOM     10  C   LIG    1       -0.050   3.840   0.022  0.00  0.00    +0.000 A 
ATOM     11  C   LIG    1       -1.238   3.133   0.029  0.00  0.00    +0.010 A 
ATOM     12  C   LIG    1       -1.219   1.751   0.017  0.00  0.00    -0.010 A 
ATOM     13  C   LIG    1       -0.013   1.076   0.008  0.00  0.00    +0.040 A 
ATOM     14  C   LIG    1        1.175   1.783   0.000  0.00  0.00    -0.090 A 
ENDBRANCH   1  14
BRANCH   3  15
ATOM     15  C   LIG    1        4.733   0.030  -2.759  0.00  0.00    +0.530 A 
ATOM     16  N   LIG    1        5.972   0.434  -2.997  0.00  0.00    -0.530 NA
ATOM     17  C   LIG    1        6.492   0.355  -4.213  0.00  0.00    +0.360 A 
ATOM     18  C   LIG    1        5.728  -0.156  -5.244  0.00  0.00    -0.160 A 
ATOM     19  C   LIG    1        4.425  -0.574  -4.963  0.00  0.00    +0.450 A 
ATOM     20  N   LIG    1        3.969  -0.472  -3.719  0.00  0.00    -0.600 NA
BRANCH  19  21
ATOM     21  N   LIG    1        3.623  -1.094  -5.965  0.00  0.00    -0.710 N 
ATOM     22  H   LIG    1        2.719  -1.382  -5.762  0.00  0.00    +0.410 HD
BRANCH  21  23
ATOM     23  C   LIG    1        4.138  -1.208  -7.331  0.00  0.00    +0.210 C 
ATOM     24  C   LIG    1        3.381  -2.314  -8.073  0.00  0.00    +0.020 C 
ATOM     25  C   LIG    1        3.874  -2.371  -9.523  0.00  0.00    +0.010 C 
ATOM     26  C   LIG    1        3.684  -0.998 -10.173  0.00  0.00    +0.200 C 
ATOM     27  O   LIG    1        4.389  -0.012  -9.416  0.00  0.00    -0.370 OA
ATOM     28  C   LIG    1        3.938   0.119  -8.066  0.00  0.00    +0.210 C 
ENDBRANCH  21  23
ENDBRANCH  19  21
ENDBRANCH   3  15
TORSDOF 4
