REMARK  Name = ZINCtV00000L6kbV.0
REMARK                            x       y       z     vdW  Elec       q    Type
REMARK                         _______ _______ _______ _____ _____    ______ ____
ROOT
ATOM      1  C   LIG    1        3.660   3.116  -0.111  0.00  0.00    +0.230 A 
ATOM      2  N   LIG    1        3.789   1.881   0.314  0.00  0.00    -0.270 NA
ATOM      3  N   LIG    1        2.648   1.290   0.297  0.00  0.00    -0.280 NA
ATOM      4  C   LIG    1        1.720   2.112  -0.141  0.00  0.00    +0.110 A 
ATOM      5  N   LIG    1        2.333   3.300  -0.421  0.00  0.00    -0.440 N 
ENDROOT
BRANCH   1  11
ATOM      6  C   LIG    1        8.445   4.218  -1.003  0.00  0.00    +0.090 C 
ATOM      7  C   LIG    1        7.041   4.654  -0.667  0.00  0.00    -0.080 A 
ATOM      8  C   LIG    1        6.761   5.995  -0.479  0.00  0.00    +0.020 A 
ATOM      9  C   LIG    1        5.476   6.403  -0.171  0.00  0.00    +0.020 A 
ATOM     10  C   LIG    1        4.463   5.474  -0.054  0.00  0.00    +0.000 A 
ATOM     11  C   LIG    1        4.740   4.118  -0.238  0.00  0.00    -0.010 A 
ATOM     12  C   LIG    1        6.039   3.713  -0.549  0.00  0.00    +0.050 A 
ENDBRANCH   1  11
BRANCH   5  13
ATOM     13  C   LIG    1        1.706   4.518  -0.940  0.00  0.00    +0.240 C 
ATOM     14  C   LIG    1        0.632   4.996   0.039  0.00  0.00    +0.030 C 
ATOM     15  C   LIG    1       -0.430   3.907   0.203  0.00  0.00    +0.010 C 
ATOM     16  C   LIG    1       -1.072   3.611  -1.153  0.00  0.00    +0.050 C 
ATOM     17  C   LIG    1        0.002   3.133  -2.133  0.00  0.00    +0.020 C 
ATOM     18  C   LIG    1        1.064   4.223  -2.297  0.00  0.00    +0.000 C 
ATOM     19  C   LIG    1        2.138   3.744  -3.276  0.00  0.00    +0.030 C 
ENDBRANCH   5  13
BRANCH   4  20
ATOM     20  S   LIG    1        0.008   1.747  -0.337  0.00  0.00    +0.230 S 
BRANCH  20  21
ATOM     21  C   LIG    1       -0.013   0.025   0.220  0.00  0.00    -0.060 C 
BRANCH  21  22
ATOM     22  C   LIG    1       -1.418  -0.513   0.137  0.00  0.00    +0.450 C 
ATOM     23  O   LIG    1       -2.318   0.198  -0.260  0.00  0.00    -0.440 OA
BRANCH  22  24
ATOM     24  C   LIG    1       -1.687  -1.844   0.521  0.00  0.00    -0.300 A 
ATOM     25  C   LIG    1       -2.919  -2.447   0.491  0.00  0.00    +0.130 A 
ATOM     26  C   LIG    1       -2.895  -3.750   0.919  0.00  0.00    +0.010 A 
ATOM     27  C   LIG    1       -1.688  -4.205   1.289  0.00  0.00    -0.160 A 
ATOM     28 CL   LIG    1       -1.378  -5.813   1.867  0.00  0.00    +0.000 Cl
ATOM     29  S   LIG    1       -0.496  -2.998   1.107  0.00  0.00    +0.290 S 
ENDBRANCH  22  24
ENDBRANCH  21  22
ENDBRANCH  20  21
ENDBRANCH   4  20
TORSDOF 6
