REMARK  Name = ZINCnE000001ISTN.0
REMARK                            x       y       z     vdW  Elec       q    Type
REMARK                         _______ _______ _______ _____ _____    ______ ____
ROOT
ATOM      1  C   LIG    1       -1.766   2.985  -1.931  0.00  0.00    -0.070 A 
ATOM      2  C   LIG    1       -1.373   2.870  -3.249  0.00  0.00    +0.030 A 
ATOM      3  C   LIG    1       -0.306   3.612  -3.723  0.00  0.00    +0.000 A 
ATOM      4  C   LIG    1        0.376   4.469  -2.878  0.00  0.00    -0.010 A 
ATOM      5  C   LIG    1       -0.006   4.588  -1.557  0.00  0.00    +0.010 A 
ATOM      6  C   LIG    1       -1.079   3.843  -1.075  0.00  0.00    -0.050 A 
ENDROOT
BRANCH   6   7
ATOM      7  C   LIG    1       -1.494   3.967   0.345  0.00  0.00    -0.040 A 
ATOM      8  C   LIG    1       -2.808   4.305   0.663  0.00  0.00    +0.010 A 
ATOM      9  C   LIG    1       -3.189   4.413   1.985  0.00  0.00    +0.000 A 
ATOM     10  C   LIG    1       -2.267   4.198   2.993  0.00  0.00    +0.000 A 
ATOM     11  C   LIG    1       -0.960   3.867   2.683  0.00  0.00    +0.000 A 
ATOM     12  C   LIG    1       -0.569   3.751   1.365  0.00  0.00    +0.020 A 
ENDBRANCH   6   7
BRANCH   1  13
ATOM     13  C   LIG    1       -2.933   2.181  -1.419  0.00  0.00    +0.330 C 
BRANCH  13  15
ATOM     14  C   LIG    1       -4.432   1.642  -3.393  0.00  0.00    +0.270 C 
ATOM     15  N   LIG    1       -3.377   1.248  -2.457  0.00  0.00    -0.630 N 
ATOM     16  C   LIG    1       -2.814   0.026  -2.550  0.00  0.00    +0.520 C 
ATOM     17  O   LIG    1       -1.884  -0.270  -1.831  0.00  0.00    -0.480 OA
BRANCH  16  18
ATOM     18  C   LIG    1       -3.341  -0.971  -3.550  0.00  0.00    -0.160 C 
ATOM     19  C   LIG    1       -3.086  -0.457  -4.968  0.00  0.00    +0.040 C 
ATOM     20  C   LIG    1       -4.845  -1.159  -3.338  0.00  0.00    +0.040 C 
BRANCH  18  21
ATOM     21  C   LIG    1       -2.639  -2.291  -3.360  0.00  0.00    +0.510 C 
ATOM     22  O   LIG    1       -2.920  -3.239  -4.073  0.00  0.00    -0.700 OA
ATOM     23  O   LIG    1       -1.789  -2.410  -2.494  0.00  0.00    -0.660 OA
ENDBRANCH  18  21
ENDBRANCH  16  18
ENDBRANCH  13  15
ENDBRANCH   1  13
TORSDOF 5
