REMARK  Name = ZINCpk00000ebnJL.0
REMARK                            x       y       z     vdW  Elec       q    Type
REMARK                         _______ _______ _______ _____ _____    ______ ____
ROOT
ATOM      1  N   LIG    1        7.496   8.161  -0.025  0.00  0.00    -0.670 N 
ATOM      2  H   LIG    1        8.337   7.681  -0.085  0.00  0.00    +0.420 HD
ATOM      3  C   LIG    1        6.344   7.483   0.153  0.00  0.00    +0.520 C 
ATOM      4  O   LIG    1        5.306   8.086   0.324  0.00  0.00    -0.490 OA
ENDROOT
BRANCH   1   8
ATOM      5  C   LIG    1        7.444  12.316  -0.319  0.00  0.00    -0.160 A 
ATOM      6  C   LIG    1        8.530  11.669   0.278  0.00  0.00    +0.100 A 
ATOM      7  C   LIG    1        8.543  10.296   0.374  0.00  0.00    -0.010 A 
ATOM      8  C   LIG    1        7.478   9.552  -0.123  0.00  0.00    +0.170 A 
ATOM      9  C   LIG    1        6.398  10.192  -0.723  0.00  0.00    +0.010 A 
ATOM     10  C   LIG    1        6.376  11.565  -0.817  0.00  0.00    +0.070 A 
BRANCH   5  14
ATOM     11  N   LIG    1        6.378  14.409  -1.000  0.00  0.00    -0.850 N 
ATOM     12  H   LIG    1        6.367  15.377  -1.069  0.00  0.00    +0.410 HD
ATOM     13  H   LIG    1        5.636  13.889  -1.346  0.00  0.00    +0.400 HD
ATOM     14  C   LIG    1        7.426  13.788  -0.424  0.00  0.00    +0.560 C 
ATOM     15  O   LIG    1        8.357  14.439   0.009  0.00  0.00    -0.540 OA
ENDBRANCH   5  14
ENDBRANCH   1   8
BRANCH   3  16
ATOM     16  C   LIG    1        6.347   5.976   0.140  0.00  0.00    +0.270 C 
BRANCH  16  17
ATOM     17  O   LIG    1        4.996   5.488   0.351  0.00  0.00    -0.330 OA
BRANCH  17  18
ATOM     18  C   LIG    1        4.825   4.157   0.367  0.00  0.00    +0.470 C 
ATOM     19  O   LIG    1        5.773   3.424   0.210  0.00  0.00    -0.480 OA
BRANCH  18  20
ATOM     20  C   LIG    1        3.451   3.576   0.582  0.00  0.00    +0.290 C 
BRANCH  20  21
ATOM     21  O   LIG    1        3.527   2.149   0.557  0.00  0.00    -0.290 OA
BRANCH  21  22
ATOM     22  C   LIG    1        2.366   1.466   0.737  0.00  0.00    +0.090 A 
ATOM     23  C   LIG    1        1.179   2.154   0.933  0.00  0.00    -0.040 A 
ATOM     24  C   LIG    1       -0.001   1.457   1.115  0.00  0.00    +0.050 A 
ATOM     25  C   LIG    1        0.001   0.075   1.103  0.00  0.00    +0.020 A 
ATOM     26  C   LIG    1        1.184  -0.616   0.908  0.00  0.00    +0.030 A 
ATOM     27  C   LIG    1        2.367   0.076   0.725  0.00  0.00    +0.080 A 
ATOM     28  F   LIG    1        3.522  -0.598   0.535  0.00  0.00    -0.130 F 
ENDBRANCH  21  22
ENDBRANCH  20  21
ENDBRANCH  18  20
ENDBRANCH  17  18
ENDBRANCH  16  17
ENDBRANCH   3  16
TORSDOF 8
