REMARK  Name = ZINCrD000000CVMN.0
REMARK                            x       y       z     vdW  Elec       q    Type
REMARK                         _______ _______ _______ _____ _____    ______ ____
ROOT
ATOM      1  O   LIG    1       -0.409   5.796  -2.381  0.00  0.00    -0.520 OA
ATOM      2  C   LIG    1        0.216   5.918  -1.346  0.00  0.00    +0.700 C 
ATOM      3  N   LIG    1       -0.158   5.359  -0.176  0.00  0.00    -0.710 N 
ATOM      4  H   LIG    1       -0.941   4.810  -0.017  0.00  0.00    +0.450 HD
ATOM      5  C   LIG    1        0.861   5.747   0.815  0.00  0.00    +0.280 C 
ATOM      6  C   LIG    1        1.837   6.590   0.018  0.00  0.00    +0.530 C 
ATOM      7  O   LIG    1        2.844   7.127   0.426  0.00  0.00    -0.440 OA
ATOM      8  N   LIG    1        1.351   6.618  -1.239  0.00  0.00    -0.520 N 
ENDROOT
BRANCH   5   9
ATOM      9  C   LIG    1        0.240   6.560   1.922  0.00  0.00    -0.090 A 
ATOM     10  C   LIG    1       -0.775   7.453   1.637  0.00  0.00    +0.010 A 
ATOM     11  C   LIG    1       -1.347   8.200   2.651  0.00  0.00    +0.030 A 
ATOM     12  C   LIG    1       -0.903   8.055   3.951  0.00  0.00    +0.000 A 
ATOM     13  C   LIG    1        0.120   7.163   4.239  0.00  0.00    +0.110 A 
ATOM     14  C   LIG    1        0.688   6.411   3.221  0.00  0.00    +0.020 A 
BRANCH  13  15
ATOM     15  O   LIG    1        0.562   7.023   5.516  0.00  0.00    -0.500 OA
ATOM     16  H   LIG    1        0.095   6.344   6.022  0.00  0.00    +0.390 HD
ENDBRANCH  13  15
ENDBRANCH   5   9
BRANCH   8  17
ATOM     17  C   LIG    1        1.961   7.297  -2.305  0.00  0.00    +0.130 A 
ATOM     18  C   LIG    1        1.460   7.161  -3.593  0.00  0.00    +0.050 A 
ATOM     19  C   LIG    1        2.057   7.834  -4.640  0.00  0.00    +0.040 A 
ATOM     20  C   LIG    1        3.164   8.637  -4.408  0.00  0.00    +0.090 A 
ATOM     21  C   LIG    1        3.668   8.769  -3.122  0.00  0.00    +0.030 A 
ATOM     22  C   LIG    1        3.068   8.101  -2.073  0.00  0.00    +0.040 A 
BRANCH  20  23
ATOM     23  O   LIG    1        3.755   9.296  -5.440  0.00  0.00    -0.250 OA
BRANCH  23  24
ATOM     24  C   LIG    1        4.934   8.817  -5.910  0.00  0.00    +0.310 A 
ATOM     25  C   LIG    1        5.617   9.518  -6.895  0.00  0.00    -0.040 A 
ATOM     26  C   LIG    1        6.822   9.021  -7.362  0.00  0.00    +0.100 A 
ATOM     27  C   LIG    1        7.296   7.829  -6.832  0.00  0.00    -0.070 A 
ATOM     28  C   LIG    1        6.561   7.183  -5.858  0.00  0.00    +0.300 A 
ATOM     29  N   LIG    1        5.419   7.684  -5.429  0.00  0.00    -0.530 NA
ENDBRANCH  23  24
ENDBRANCH  20  23
ENDBRANCH   8  17
TORSDOF 5
