REMARK  Name = ZINCqH0000005qdH.0
REMARK                            x       y       z     vdW  Elec       q    Type
REMARK                         _______ _______ _______ _____ _____    ______ ____
ROOT
ATOM      1  S   LIG    1       -5.061   0.906   0.053  0.00  0.00    +0.090 S 
ENDROOT
BRANCH   1   4
ATOM      2  C   LIG    1       -2.477   3.855   0.047  0.00  0.00    +0.480 A 
ATOM      3  N   LIG    1       -3.584   3.129   0.053  0.00  0.00    -0.580 NA
ATOM      4  C   LIG    1       -3.542   1.799   0.044  0.00  0.00    +0.340 A 
ATOM      5  N   LIG    1       -2.410   1.121   0.030  0.00  0.00    -0.550 NA
ATOM      6  C   LIG    1       -1.233   1.764   0.018  0.00  0.00    +0.200 A 
ATOM      7  C   LIG    1       -0.013   1.076   0.008  0.00  0.00    +0.030 A 
ATOM      8  C   LIG    1        1.157   1.778   0.001  0.00  0.00    +0.060 A 
ATOM      9  C   LIG    1        1.157   3.169   0.009  0.00  0.00    -0.010 A 
ATOM     10  C   LIG    1       -0.014   3.870   0.024  0.00  0.00    +0.050 A 
ATOM     11  C   LIG    1       -1.230   3.180   0.032  0.00  0.00    -0.200 A 
BRANCH   2  13
ATOM     12  C   LIG    1       -3.833   5.911   0.072  0.00  0.00    +0.310 C 
ATOM     13  N   LIG    1       -2.535   5.232   0.056  0.00  0.00    -0.700 N 
ATOM     14  H   LIG    1       -1.716   5.753   0.051  0.00  0.00    +0.410 HD
ENDBRANCH   2  13
ENDBRANCH   1   4
BRANCH   1  15
ATOM     15  C   LIG    1       -4.429  -0.790   0.037  0.00  0.00    +0.060 C 
BRANCH  15  16
ATOM     16  C   LIG    1       -3.679  -1.059   1.316  0.00  0.00    -0.080 A 
ATOM     17  C   LIG    1       -4.326  -0.950   2.532  0.00  0.00    +0.030 A 
ATOM     18  C   LIG    1       -3.639  -1.201   3.706  0.00  0.00    +0.000 A 
ATOM     19  C   LIG    1       -2.303  -1.551   3.663  0.00  0.00    +0.010 A 
ATOM     20  C   LIG    1       -1.654  -1.655   2.446  0.00  0.00    -0.010 A 
ATOM     21  C   LIG    1       -2.342  -1.408   1.273  0.00  0.00    +0.050 A 
ENDBRANCH  15  16
BRANCH  15  22
ATOM     22  C   LIG    1       -5.580  -1.754  -0.083  0.00  0.00    +0.550 C 
ATOM     23  N   LIG    1       -5.364  -3.013  -0.513  0.00  0.00    -0.690 N 
ATOM     24  H   LIG    1       -4.466  -3.298  -0.747  0.00  0.00    +0.400 HD
ATOM     25  O   LIG    1       -6.702  -1.398   0.209  0.00  0.00    -0.520 OA
BRANCH  23  26
ATOM     26  C   LIG    1       -6.483  -3.950  -0.629  0.00  0.00    +0.220 C 
ATOM     27  C   LIG    1       -6.267  -5.376  -0.117  0.00  0.00    +0.010 C 
ATOM     28  C   LIG    1       -6.338  -5.105  -1.622  0.00  0.00    +0.020 C 
ENDBRANCH  23  26
ENDBRANCH  15  22
ENDBRANCH   1  15
TORSDOF 6
