REMARK  Name = ZINCvU00000009W9.0
REMARK                            x       y       z     vdW  Elec       q    Type
REMARK                         _______ _______ _______ _____ _____    ______ ____
ROOT
ATOM      1  C   LIG    1        3.783  -0.983  -0.041  0.00  0.00    +0.310 C 
ENDROOT
BRANCH   1   2
ATOM      2  C   LIG    1        4.269  -1.110  -1.462  0.00  0.00    -0.100 A 
ATOM      3  C   LIG    1        3.373  -1.399  -2.475  0.00  0.00    +0.020 A 
ATOM      4  C   LIG    1        3.818  -1.512  -3.779  0.00  0.00    +0.000 A 
ATOM      5  C   LIG    1        5.159  -1.343  -4.069  0.00  0.00    +0.010 A 
ATOM      6  C   LIG    1        6.055  -1.058  -3.055  0.00  0.00    +0.000 A 
ATOM      7  C   LIG    1        5.610  -0.942  -1.752  0.00  0.00    +0.030 A 
ENDBRANCH   1   2
BRANCH   1  10
ATOM      8  O   LIG    1        3.520   1.701  -0.023  0.00  0.00    -0.500 OA
ATOM      9  C   LIG    1        2.478   1.075  -0.016  0.00  0.00    +0.560 C 
ATOM     10  N   LIG    1        2.502  -0.272  -0.024  0.00  0.00    -0.720 N 
ATOM     11  H   LIG    1        1.670  -0.772  -0.019  0.00  0.00    +0.400 HD
BRANCH   9  12
ATOM     12  C   LIG    1        1.186   1.792   0.000  0.00  0.00    -0.130 A 
ATOM     13  C   LIG    1       -0.013   1.076   0.008  0.00  0.00    +0.060 A 
ATOM     14  C   LIG    1       -1.216   1.751   0.017  0.00  0.00    +0.020 A 
ATOM     15  C   LIG    1       -1.237   3.134   0.031  0.00  0.00    +0.060 A 
ATOM     16  C   LIG    1       -0.054   3.851   0.023  0.00  0.00    +0.020 A 
ATOM     17  C   LIG    1        1.158   3.189   0.008  0.00  0.00    +0.010 A 
ATOM     18 CL   LIG    1        2.642   4.089  -0.001  0.00  0.00    -0.030 Cl
ENDBRANCH   9  12
ENDBRANCH   1  10
BRANCH   1  19
ATOM     19  C   LIG    1        3.601  -2.377   0.562  0.00  0.00    +0.220 C 
BRANCH  19  20
ATOM     20  C   LIG    1        3.234  -2.250   2.019  0.00  0.00    +0.190 A 
ATOM     21  N   LIG    1        2.024  -2.163   2.511  0.00  0.00    -0.460 NA
ATOM     22  C   LIG    1        2.183  -2.067   3.851  0.00  0.00    +0.210 A 
ATOM     23  N   LIG    1        3.468  -2.101   4.090  0.00  0.00    -0.360 NA
ATOM     24  O   LIG    1        4.083  -2.210   3.051  0.00  0.00    +0.100 OA
BRANCH  22  25
ATOM     25  C   LIG    1        1.101  -1.947   4.860  0.00  0.00    +0.040 A 
ATOM     26  C   LIG    1       -0.231  -1.919   4.456  0.00  0.00    +0.040 A 
ATOM     27  C   LIG    1       -1.236  -1.813   5.400  0.00  0.00    +0.130 A 
ATOM     28  C   LIG    1       -0.918  -1.722   6.745  0.00  0.00    -0.010 A 
ATOM     29  C   LIG    1        0.406  -1.744   7.151  0.00  0.00    +0.140 A 
ATOM     30  F   LIG    1        0.710  -1.657   8.464  0.00  0.00    -0.120 F 
ATOM     31  F   LIG    1       -2.529  -1.791   5.010  0.00  0.00    -0.120 F 
ATOM     32  C   LIG    1        1.417  -1.857   6.214  0.00  0.00    +0.020 A 
ENDBRANCH  22  25
ENDBRANCH  19  20
ENDBRANCH   1  19
TORSDOF 6
