REMARK  Name = ZINCpk00000KfKFI.0
REMARK                            x       y       z     vdW  Elec       q    Type
REMARK                         _______ _______ _______ _____ _____    ______ ____
ROOT
ATOM      1  C   LIG    1       -1.407  -0.243   2.990  0.00  0.00    +0.150 C 
ATOM      2  C   LIG    1       -1.403   0.321   4.413  0.00  0.00    +0.170 C 
ATOM      3  N   LIG    1       -2.783   0.371   4.919  0.00  0.00    -0.520 NA
ATOM      4  C   LIG    1       -3.390  -0.968   4.909  0.00  0.00    +0.160 C 
ATOM      5  C   LIG    1       -3.374  -1.519   3.481  0.00  0.00    +0.230 C 
ATOM      6  O   LIG    1       -2.030  -1.531   2.995  0.00  0.00    -0.370 OA
ENDROOT
BRANCH   1   7
ATOM      7  C   LIG    1        0.032  -0.373   2.487  0.00  0.00    +0.360 C 
BRANCH   7  11
ATOM      8  C   LIG    1        0.028  -3.225  -1.639  0.00  0.00    +0.190 C 
ATOM      9  C   LIG    1        0.022  -2.048  -0.698  0.00  0.00    +0.220 A 
ATOM     10  N   LIG    1        0.036  -2.120   0.607  0.00  0.00    -0.300 NA
ATOM     11  N   LIG    1        0.023  -0.799   1.086  0.00  0.00    -0.370 N 
ATOM     12  C   LIG    1        0.002  -0.004   0.002  0.00  0.00    +0.270 A 
ATOM     13  C   LIG    1       -0.018   1.503   0.010  0.00  0.00    +0.190 C 
ATOM     14  N   LIG    1       -0.003  -0.767  -1.061  0.00  0.00    -0.540 NA
ENDBRANCH   7  11
ENDBRANCH   1   7
BRANCH   3  15
ATOM     15  C   LIG    1       -2.829   0.960   6.264  0.00  0.00    +0.220 C 
BRANCH  15  16
ATOM     16  C   LIG    1       -4.263   1.222   6.649  0.00  0.00    +0.510 C 
ATOM     17  N   LIG    1       -4.550   1.764   7.848  0.00  0.00    -0.730 N 
ATOM     18  H   LIG    1       -3.834   1.985   8.464  0.00  0.00    +0.400 HD
ATOM     19  O   LIG    1       -5.157   0.944   5.878  0.00  0.00    -0.520 OA
BRANCH  17  20
ATOM     20  C   LIG    1       -5.944   2.018   8.222  0.00  0.00    +0.230 C 
ATOM     21  C   LIG    1       -6.393   3.354   7.597  0.00  0.00    +0.020 C 
ATOM     22  C   LIG    1       -7.896   3.372   7.535  0.00  0.00    +0.000 C 
ATOM     23  C   LIG    1       -8.529   4.061   8.759  0.00  0.00    +0.000 C 
ATOM     24  C   LIG    1       -7.836   3.682  10.082  0.00  0.00    +0.000 C 
ATOM     25  C   LIG    1       -7.500   2.217  10.158  0.00  0.00    +0.030 C 
ATOM     26  C   LIG    1       -6.049   2.021   9.674  0.00  0.00    +0.010 C 
ENDBRANCH  17  20
ENDBRANCH  15  16
ENDBRANCH   3  15
TORSDOF 5
