REMARK  Name = ZINCrH000004rbZ4.0
REMARK                            x       y       z     vdW  Elec       q    Type
REMARK                         _______ _______ _______ _____ _____    ______ ____
ROOT
ATOM      1  S   LIG    1       -4.415   4.479  -1.335  0.00  0.00    +2.610 S 
ATOM      2  O   LIG    1       -4.048   5.663  -0.641  0.00  0.00    -0.950 OA
ATOM      3  O   LIG    1       -5.451   3.636  -0.851  0.00  0.00    -0.950 OA
ENDROOT
BRANCH   1   4
ATOM      4  N   LIG    1       -4.978   5.020  -2.796  0.00  0.00    -0.960 NA
BRANCH   4   5
ATOM      5  C   LIG    1       -4.507   6.299  -3.334  0.00  0.00    +0.210 C 
ATOM      6  C   LIG    1       -5.119   6.779  -4.652  0.00  0.00    +0.030 C 
ATOM      7  C   LIG    1       -3.679   6.262  -4.620  0.00  0.00    +0.010 C 
ENDBRANCH   4   5
BRANCH   4   8
ATOM      8  C   LIG    1       -5.946   4.220  -3.550  0.00  0.00    +0.360 C 
BRANCH   8  13
ATOM      9  C   LIG    1       -3.144   0.847  -7.314  0.00  0.00    +0.090 C 
ATOM     10  C   LIG    1       -3.874   1.726  -6.332  0.00  0.00    -0.080 A 
ATOM     11  C   LIG    1       -4.384   2.944  -6.742  0.00  0.00    +0.010 A 
ATOM     12  C   LIG    1       -5.058   3.749  -5.842  0.00  0.00    +0.020 A 
ATOM     13  C   LIG    1       -5.215   3.340  -4.531  0.00  0.00    -0.110 A 
ATOM     14  C   LIG    1       -4.706   2.122  -4.122  0.00  0.00    +0.000 A 
ATOM     15  C   LIG    1       -4.036   1.315  -5.022  0.00  0.00    -0.080 A 
ATOM     16  C   LIG    1       -3.481  -0.013  -4.576  0.00  0.00    +0.090 C 
ENDBRANCH   8  13
ENDBRANCH   4   8
ENDBRANCH   1   4
BRANCH   1  17
ATOM     17  C   LIG    1       -2.943   3.503  -1.751  0.00  0.00    -0.350 C 
BRANCH  17  18
ATOM     18  C   LIG    1       -2.324   2.942  -0.469  0.00  0.00    +0.110 C 
BRANCH  18  19
ATOM     19  C   LIG    1       -1.101   2.132  -0.814  0.00  0.00    -0.100 A 
ATOM     20  C   LIG    1       -1.217   0.780  -1.080  0.00  0.00    +0.050 A 
ATOM     21  C   LIG    1       -0.101   0.033  -1.394  0.00  0.00    +0.000 A 
ATOM     22  C   LIG    1        1.153   0.637  -1.454  0.00  0.00    +0.110 A 
ATOM     23  O   LIG    1        2.367   0.100  -1.756  0.00  0.00    -0.300 OA
ATOM     24  C   LIG    1        3.404   0.975  -1.281  0.00  0.00    +0.240 C 
ATOM     25  C   LIG    1        2.722   2.364  -1.313  0.00  0.00    +0.070 C 
ATOM     26  C   LIG    1        1.256   1.996  -1.185  0.00  0.00    -0.170 A 
ATOM     27  C   LIG    1        0.141   2.739  -0.871  0.00  0.00    +0.070 A 
ENDBRANCH  18  19
ENDBRANCH  17  18
ENDBRANCH   1  17
TORSDOF 7
