REMARK  Name = ZINC5c0000002Dqj.0
REMARK                            x       y       z     vdW  Elec       q    Type
REMARK                         _______ _______ _______ _____ _____    ______ ____
ROOT
ATOM      1  N   LIG    1       -0.012   1.005   0.008  0.00  0.00    -0.640 N 
ATOM      2  H   LIG    1       -0.500   1.339  -0.810  0.00  0.00    +0.440 HD
ATOM      3  H   LIG    1        0.935   1.354   0.000  0.00  0.00    +0.440 HD
ATOM      4  H   LIG    1        0.002  -0.004   0.002  0.00  0.00    +0.440 HD
ENDROOT
BRANCH   1   5
ATOM      5  C   LIG    1       -0.699   1.479   1.216  0.00  0.00    +0.330 C 
BRANCH   5   6
ATOM      6  C   LIG    1        0.030   0.979   2.437  0.00  0.00    -0.090 C 
ATOM      7  C   LIG    1        0.439   1.828   3.349  0.00  0.00    +0.130 C 
ATOM      8 CL   LIG    1        1.278   1.253   4.756  0.00  0.00    -0.040 Cl
ENDBRANCH   5   6
ENDBRANCH   1   5
TORSDOF 2
