REMARK  Name = ZINCvU00000004ql.0
REMARK                            x       y       z     vdW  Elec       q    Type
REMARK                         _______ _______ _______ _____ _____    ______ ____
ROOT
ATOM      1  C   LIG    1       -0.016   1.095  -0.004  0.00  0.00    +0.070 C 
ENDROOT
BRANCH   1   2
ATOM      2  C   LIG    1       -0.736   1.602  -1.226  0.00  0.00    -0.090 A 
ATOM      3  C   LIG    1       -0.880   2.962  -1.429  0.00  0.00    +0.040 A 
ATOM      4  C   LIG    1       -1.537   3.427  -2.553  0.00  0.00    +0.000 A 
ATOM      5  C   LIG    1       -2.058   2.533  -3.470  0.00  0.00    +0.010 A 
ATOM      6  C   LIG    1       -1.918   1.173  -3.264  0.00  0.00    +0.000 A 
ATOM      7  C   LIG    1       -1.258   0.708  -2.142  0.00  0.00    +0.060 A 
ENDBRANCH   1   2
BRANCH   1  10
ATOM      8  N   LIG    1        2.336   1.006  -0.765  0.00  0.00    -0.660 N 
ATOM      9  H   LIG    1        2.118   0.194  -1.248  0.00  0.00    +0.410 HD
ATOM     10  C   LIG    1        1.400   1.609  -0.005  0.00  0.00    +0.540 C 
ATOM     11  O   LIG    1        1.698   2.566   0.677  0.00  0.00    -0.500 OA
BRANCH   8  17
ATOM     12  C   LIG    1        5.307   4.911  -0.467  0.00  0.00    +0.090 C 
ATOM     13  C   LIG    1        5.090   3.441  -0.717  0.00  0.00    -0.070 A 
ATOM     14  C   LIG    1        6.162   2.630  -1.038  0.00  0.00    -0.010 A 
ATOM     15  C   LIG    1        5.968   1.280  -1.269  0.00  0.00    +0.030 A 
ATOM     16  C   LIG    1        4.700   0.739  -1.179  0.00  0.00    -0.120 A 
ATOM     17  C   LIG    1        3.621   1.551  -0.857  0.00  0.00    +0.150 A 
ATOM     18  C   LIG    1        4.489  -0.732  -1.432  0.00  0.00    +0.080 C 
ATOM     19  C   LIG    1        3.819   2.907  -0.631  0.00  0.00    +0.020 A 
ENDBRANCH   8  17
ENDBRANCH   1  10
BRANCH   1  20
ATOM     20  S   LIG    1       -0.868   1.677   1.483  0.00  0.00    +0.080 S 
BRANCH  20  21
ATOM     21  C   LIG    1       -2.403   0.829   1.309  0.00  0.00    +0.140 A 
ATOM     22  N   LIG    1       -2.742   0.023   0.329  0.00  0.00    -0.280 NA
ATOM     23  N   LIG    1       -3.933  -0.422   0.523  0.00  0.00    -0.270 NA
ATOM     24  C   LIG    1       -4.423   0.075   1.623  0.00  0.00    +0.190 A 
ATOM     25  N   LIG    1       -3.466   0.890   2.163  0.00  0.00    -0.460 N 
ATOM     26  C   LIG    1       -3.562   1.667   3.401  0.00  0.00    +0.360 C 
BRANCH  24  27
ATOM     27  C   LIG    1       -5.790  -0.197   2.194  0.00  0.00    +0.250 C 
BRANCH  27  28
ATOM     28  C   LIG    1       -6.770   0.813   1.654  0.00  0.00    -0.190 A 
ATOM     29  C   LIG    1       -7.485   0.669   0.537  0.00  0.00    +0.040 A 
ATOM     30  C   LIG    1       -8.324   1.730   0.241  0.00  0.00    +0.010 A 
ATOM     31  C   LIG    1       -8.284   2.738   1.113  0.00  0.00    -0.030 A 
ATOM     32  S   LIG    1       -7.141   2.364   2.396  0.00  0.00    +0.090 S 
ENDBRANCH  27  28
ENDBRANCH  24  27
ENDBRANCH  20  21
ENDBRANCH   1  20
TORSDOF 7
