REMARK  Name = ZINCrD000000Ajpx.0
REMARK                            x       y       z     vdW  Elec       q    Type
REMARK                         _______ _______ _______ _____ _____    ______ ____
ROOT
ATOM      1  O   LIG    1        3.884   1.700  -0.968  0.00  0.00    -0.540 OA
ATOM      2  C   LIG    1        4.095   1.984   0.192  0.00  0.00    +0.510 C 
ATOM      3  N   LIG    1        3.466   3.035   0.754  0.00  0.00    -0.720 N 
ATOM      4  H   LIG    1        3.635   3.263   1.682  0.00  0.00    +0.410 HD
ENDROOT
BRANCH   3   5
ATOM      5  C   LIG    1        2.526   3.834  -0.036  0.00  0.00    +0.290 C 
ATOM      6  C   LIG    1        2.524   5.255   0.501  0.00  0.00    +0.060 C 
ATOM      7  C   LIG    1        1.572   6.108  -0.348  0.00  0.00    +0.110 C 
ATOM      8  S   LIG    1       -0.123   5.609   0.073  0.00  0.00    -0.090 S 
ATOM      9  C   LIG    1       -0.027   3.847   0.035  0.00  0.00    -0.110 A 
ATOM     10  C   LIG    1       -1.226   3.130   0.036  0.00  0.00    +0.110 A 
ATOM     11  C   LIG    1       -1.220   1.751   0.017  0.00  0.00    +0.010 A 
ATOM     12  C   LIG    1       -0.013   1.076   0.008  0.00  0.00    +0.040 A 
ATOM     13  C   LIG    1        1.171   1.781   0.000  0.00  0.00    +0.040 A 
ATOM     14  F   LIG    1       -2.403   3.794   0.051  0.00  0.00    -0.130 F 
ATOM     15  C   LIG    1        1.179   3.174   0.008  0.00  0.00    -0.080 A 
ENDBRANCH   3   5
BRANCH   2  16
ATOM     16  C   LIG    1        5.062   1.162   1.005  0.00  0.00    +0.100 C 
BRANCH  16  17
ATOM     17  C   LIG    1        5.633   0.040   0.136  0.00  0.00    +0.150 C 
BRANCH  17  18
ATOM     18  C   LIG    1        6.600  -0.782   0.949  0.00  0.00    +0.450 A 
ATOM     19  N   LIG    1        6.802  -0.447   2.193  0.00  0.00    -0.600 NA
ATOM     20  C   LIG    1        7.651  -1.132   2.983  0.00  0.00    +0.530 A 
ATOM     21  C   LIG    1        8.358  -2.288   2.402  0.00  0.00    -0.210 A 
ATOM     22  C   LIG    1        9.253  -3.056   3.143  0.00  0.00    +0.110 A 
ATOM     23  C   LIG    1        9.884  -4.126   2.546  0.00  0.00    -0.010 A 
ATOM     24  C   LIG    1        9.632  -4.440   1.218  0.00  0.00    +0.080 A 
ATOM     25  C   LIG    1        8.748  -3.688   0.472  0.00  0.00    -0.020 A 
ATOM     26  C   LIG    1        8.103  -2.607   1.056  0.00  0.00    +0.170 A 
ATOM     27  O   LIG    1        7.829  -0.806   4.144  0.00  0.00    -0.480 OA
ATOM     28  N   LIG    1        7.204  -1.826   0.355  0.00  0.00    -0.620 N 
ATOM     29  H   LIG    1        7.011  -2.030  -0.573  0.00  0.00    +0.420 HD
ENDBRANCH  17  18
ENDBRANCH  16  17
ENDBRANCH   2  16
TORSDOF 4
