REMARK  Name = ZINCrD00000hQ5Ua.0
REMARK                            x       y       z     vdW  Elec       q    Type
REMARK                         _______ _______ _______ _____ _____    ______ ____
ROOT
ATOM      1  O   LIG    1       -1.218   3.136  -4.155  0.00  0.00    -0.510 OA
ATOM      2  C   LIG    1       -1.163   2.832  -2.979  0.00  0.00    +0.710 C 
ATOM      3  N   LIG    1       -0.318   1.878  -2.481  0.00  0.00    -0.550 N 
ATOM      4  C   LIG    1       -0.798   1.612  -1.157  0.00  0.00    +0.210 C 
ATOM      5  C   LIG    1       -0.013   1.086   0.008  0.00  0.00    -0.270 C 
ATOM      6  S   LIG    1       -0.950   1.717   1.465  0.00  0.00    +2.400 S 
ATOM      7  C   LIG    1       -2.140   2.763   0.505  0.00  0.00    -0.270 C 
ATOM      8  O   LIG    1       -0.105   2.553   2.245  0.00  0.00    -0.900 OA
ATOM      9  O   LIG    1       -1.651   0.644   2.078  0.00  0.00    -0.900 OA
ATOM     10  C   LIG    1       -1.331   3.025  -0.756  0.00  0.00    +0.220 C 
ATOM     11  N   LIG    1       -1.939   3.404  -2.011  0.00  0.00    -0.560 N 
ENDROOT
BRANCH   3  12
ATOM     12  C   LIG    1        0.777   1.289  -3.124  0.00  0.00    +0.180 A 
ATOM     13  C   LIG    1        1.539   0.333  -2.466  0.00  0.00    -0.040 A 
ATOM     14  C   LIG    1        2.615  -0.250  -3.105  0.00  0.00    +0.040 A 
ATOM     15  C   LIG    1        2.942   0.127  -4.395  0.00  0.00    -0.010 A 
ATOM     16  C   LIG    1        2.189   1.083  -5.051  0.00  0.00    +0.050 A 
ATOM     17  C   LIG    1        1.107   1.665  -4.419  0.00  0.00    +0.000 A 
ENDBRANCH   3  12
BRANCH  11  18
ATOM     18  C   LIG    1       -3.082   4.191  -2.195  0.00  0.00    +0.190 A 
ATOM     19  C   LIG    1       -3.760   4.701  -1.096  0.00  0.00    +0.010 A 
ATOM     20  C   LIG    1       -4.887   5.478  -1.282  0.00  0.00    +0.060 A 
ATOM     21  C   LIG    1       -5.339   5.749  -2.560  0.00  0.00    +0.040 A 
ATOM     22  C   LIG    1       -4.666   5.242  -3.656  0.00  0.00    -0.150 A 
ATOM     23  C   LIG    1       -3.536   4.469  -3.478  0.00  0.00    +0.050 A 
BRANCH  22  24
ATOM     24  C   LIG    1       -5.163   5.539  -5.048  0.00  0.00    +0.510 C 
ATOM     25  F   LIG    1       -5.473   4.340  -5.698  0.00  0.00    -0.170 F 
ATOM     26  F   LIG    1       -4.168   6.214  -5.764  0.00  0.00    -0.170 F 
ATOM     27  F   LIG    1       -6.308   6.339  -4.973  0.00  0.00    -0.170 F 
ENDBRANCH  22  24
ENDBRANCH  11  18
TORSDOF 3
