REMARK  Name = ZINCpk00000ebf7A.0
REMARK                            x       y       z     vdW  Elec       q    Type
REMARK                         _______ _______ _______ _____ _____    ______ ____
ROOT
ATOM      1  C   LIG    1       -2.715   3.036   1.813  0.00  0.00    +0.520 C 
ATOM      2  N   LIG    1       -3.323   2.155   0.995  0.00  0.00    -0.610 N 
ATOM      3  C   LIG    1       -4.775   1.944   1.067  0.00  0.00    +0.250 C 
ATOM      4  C   LIG    1       -5.372   2.137  -0.330  0.00  0.00    +0.010 C 
ATOM      5  C   LIG    1       -4.652   1.218  -1.319  0.00  0.00    +0.020 C 
ATOM      6  C   LIG    1       -3.168   1.585  -1.373  0.00  0.00    +0.020 C 
ATOM      7  C   LIG    1       -2.546   1.386   0.013  0.00  0.00    +0.310 C 
ATOM      8  O   LIG    1       -1.530   3.261   1.690  0.00  0.00    -0.480 OA
ENDROOT
BRANCH   7   9
ATOM      9  C   LIG    1       -1.121   1.875   0.002  0.00  0.00    -0.220 A 
ATOM     10  C   LIG    1       -0.676   3.020  -0.565  0.00  0.00    +0.250 A 
ATOM     11  N   LIG    1        0.654   3.095  -0.352  0.00  0.00    -0.370 N 
ATOM     12  N   LIG    1        1.041   1.956   0.365  0.00  0.00    -0.300 NA
ATOM     13  C   LIG    1        1.538   4.177  -0.794  0.00  0.00    +0.340 C 
ATOM     14  C   LIG    1       -0.023   1.224   0.574  0.00  0.00    +0.230 A 
ENDBRANCH   7   9
BRANCH   1  18
ATOM     15  C   LIG    1       -4.409   5.924   3.263  0.00  0.00    +0.170 C 
ATOM     16  N   LIG    1       -3.383   5.740   4.026  0.00  0.00    -0.300 NA
ATOM     17  O   LIG    1       -2.655   4.574   3.694  0.00  0.00    -0.170 OA
ATOM     18  C   LIG    1       -3.509   3.743   2.882  0.00  0.00    +0.130 C 
ATOM     19  C   LIG    1       -4.468   4.786   2.262  0.00  0.00    +0.090 C 
BRANCH  15  23
ATOM     20  C   LIG    1       -6.698  10.124   4.714  0.00  0.00    +0.360 C 
ATOM     21  N   LIG    1       -6.362   8.895   3.992  0.00  0.00    -0.360 N 
ATOM     22  C   LIG    1       -5.319   8.086   4.258  0.00  0.00    +0.300 A 
ATOM     23  C   LIG    1       -5.360   7.049   3.350  0.00  0.00    -0.210 A 
ATOM     24  C   LIG    1       -6.484   7.261   2.523  0.00  0.00    +0.280 A 
ATOM     25  N   LIG    1       -7.073   8.359   2.912  0.00  0.00    -0.290 NA
ENDBRANCH  15  23
ENDBRANCH   1  18
TORSDOF 3
