REMARK  Name = ZINCqH0000034mPf.1
REMARK                            x       y       z     vdW  Elec       q    Type
REMARK                         _______ _______ _______ _____ _____    ______ ____
ROOT
ATOM      1  N   LIG    1       -6.026   2.838  -0.442  0.00  0.00    -0.670 NA
ATOM      2  H   LIG    1       -5.661   2.190  -1.124  0.00  0.00    +0.340 HD
ENDROOT
BRANCH   1   3
ATOM      3  C   LIG    1       -4.967   3.723   0.062  0.00  0.00    +0.190 C 
ATOM      4  C   LIG    1       -5.298   4.150   1.494  0.00  0.00    +0.050 C 
BRANCH   3   5
ATOM      5  C   LIG    1       -3.651   2.990   0.048  0.00  0.00    -0.110 A 
ATOM      6  C   LIG    1       -3.598   1.660   0.421  0.00  0.00    +0.070 A 
ATOM      7  C   LIG    1       -2.393   0.985   0.409  0.00  0.00    -0.020 A 
ATOM      8  C   LIG    1       -1.234   1.644   0.017  0.00  0.00    +0.160 A 
ATOM      9  N   LIG    1       -0.011   0.966   0.007  0.00  0.00    -0.660 N 
ATOM     10  H   LIG    1        0.002  -0.004   0.002  0.00  0.00    +0.410 HD
ATOM     11  C   LIG    1        1.148   1.650   0.000  0.00  0.00    +0.520 C 
ATOM     12  C   LIG    1        1.154   3.155   0.028  0.00  0.00    +0.080 C 
ATOM     13  C   LIG    1       -0.032   3.695  -0.772  0.00  0.00    +0.090 C 
ATOM     14  O   LIG    1        2.200   1.047  -0.029  0.00  0.00    -0.520 OA
ATOM     15  C   LIG    1       -1.290   2.980  -0.352  0.00  0.00    -0.120 A 
ATOM     16  C   LIG    1       -2.498   3.650  -0.338  0.00  0.00    +0.060 A 
ENDBRANCH   3   5
ENDBRANCH   1   3
BRANCH   1  17
ATOM     17  C   LIG    1       -7.141   3.616  -0.999  0.00  0.00    +0.300 C 
BRANCH  17  26
ATOM     18  N   LIG    1       -8.269   2.180  -2.769  0.00  0.00    -0.490 N 
ATOM     19  C   LIG    1       -9.379   1.361  -2.834  0.00  0.00    +0.050 A 
ATOM     20  C   LIG    1       -9.954   0.589  -3.834  0.00  0.00    +0.010 A 
ATOM     21  C   LIG    1      -11.101  -0.128  -3.568  0.00  0.00    +0.030 A 
ATOM     22  C   LIG    1      -11.682  -0.084  -2.309  0.00  0.00    +0.000 A 
ATOM     23  C   LIG    1      -11.129   0.669  -1.312  0.00  0.00    +0.070 A 
ATOM     24  C   LIG    1       -9.967   1.405  -1.558  0.00  0.00    +0.040 A 
ATOM     25  N   LIG    1       -9.200   2.227  -0.797  0.00  0.00    -0.470 NA
ATOM     26  C   LIG    1       -8.205   2.676  -1.504  0.00  0.00    +0.280 A 
BRANCH  18  28
ATOM     27  C   LIG    1       -6.201   1.429  -3.838  0.00  0.00    +0.040 C 
ATOM     28  C   LIG    1       -7.332   2.460  -3.860  0.00  0.00    +0.280 C 
ENDBRANCH  18  28
ENDBRANCH  17  26
ENDBRANCH   1  17
TORSDOF 5
