REMARK  Name = ZINCvU0000000GJ9.0
REMARK                            x       y       z     vdW  Elec       q    Type
REMARK                         _______ _______ _______ _____ _____    ______ ____
ROOT
ATOM      1  C   LIG    1        4.566   3.588   1.521  0.00  0.00    +0.160 A 
ATOM      2  N   LIG    1        5.622   3.545   0.740  0.00  0.00    -0.270 NA
ATOM      3  N   LIG    1        6.561   4.276   1.223  0.00  0.00    -0.240 NA
ATOM      4  C   LIG    1        6.168   4.828   2.351  0.00  0.00    +0.270 A 
ATOM      5  N   LIG    1        4.875   4.403   2.577  0.00  0.00    -0.410 N 
ENDROOT
BRANCH   5   6
ATOM      6  C   LIG    1        4.050   4.736   3.660  0.00  0.00    +0.100 A 
ATOM      7  C   LIG    1        3.638   6.050   3.843  0.00  0.00    +0.050 A 
ATOM      8  C   LIG    1        2.822   6.374   4.909  0.00  0.00    +0.040 A 
ATOM      9  C   LIG    1        2.424   5.394   5.799  0.00  0.00    +0.030 A 
ATOM     10  C   LIG    1        2.836   4.086   5.623  0.00  0.00    +0.030 A 
ATOM     11  C   LIG    1        3.648   3.755   4.556  0.00  0.00    +0.030 A 
ENDBRANCH   5   6
BRANCH   4  12
ATOM     12  C   LIG    1        6.957   5.725   3.208  0.00  0.00    +0.030 A 
ATOM     13  C   LIG    1        8.305   5.911   3.146  0.00  0.00    +0.030 A 
ATOM     14  C   LIG    1        8.631   6.853   4.141  0.00  0.00    -0.050 A 
ATOM     15  C   LIG    1        7.482   7.186   4.762  0.00  0.00    +0.200 A 
ATOM     16  O   LIG    1        6.473   6.504   4.196  0.00  0.00    -0.170 OA
ENDBRANCH   4  12
BRANCH   1  17
ATOM     17  S   LIG    1        3.039   2.748   1.260  0.00  0.00    +0.080 S 
BRANCH  17  18
ATOM     18  C   LIG    1        3.405   1.907  -0.300  0.00  0.00    +0.060 C 
BRANCH  18  19
ATOM     19  C   LIG    1        2.253   1.006  -0.667  0.00  0.00    -0.080 A 
ATOM     20  C   LIG    1        0.993   1.540  -0.861  0.00  0.00    +0.050 A 
ATOM     21  C   LIG    1       -0.063   0.715  -1.198  0.00  0.00    +0.010 A 
ATOM     22  C   LIG    1        0.141  -0.645  -1.339  0.00  0.00    +0.030 A 
ATOM     23  C   LIG    1        1.401  -1.179  -1.144  0.00  0.00    +0.010 A 
ATOM     24  C   LIG    1        2.457  -0.354  -0.807  0.00  0.00    +0.040 A 
ENDBRANCH  18  19
BRANCH  18  26
ATOM     25  N   LIG    1        4.721   2.893  -2.147  0.00  0.00    -0.590 N 
ATOM     26  C   LIG    1        3.609   2.930  -1.387  0.00  0.00    +0.540 C 
ATOM     27  O   LIG    1        2.772   3.787  -1.578  0.00  0.00    -0.520 OA
BRANCH  25  29
ATOM     28  C   LIG    1        5.764   5.080  -2.479  0.00  0.00    +0.010 C 
ATOM     29  C   LIG    1        4.970   3.948  -3.133  0.00  0.00    +0.270 C 
ENDBRANCH  25  29
BRANCH  25  30
ATOM     30  C   LIG    1        5.682   1.798  -1.987  0.00  0.00    +0.280 C 
ATOM     31  C   LIG    1        5.228   0.597  -2.818  0.00  0.00    +0.010 C 
ENDBRANCH  25  30
ENDBRANCH  18  26
ENDBRANCH  17  18
ENDBRANCH   1  17
TORSDOF 8
