REMARK  Name = ZINCzw0000000fpO.2
REMARK                            x       y       z     vdW  Elec       q    Type
REMARK                         _______ _______ _______ _____ _____    ______ ____
ROOT
ATOM      1  O   LIG    1       -1.075   1.936   0.018  0.00  0.00    -0.520 OA
ATOM      2  C   LIG    1       -0.016   1.344   0.009  0.00  0.00    +0.500 C 
ATOM      3  N   LIG    1        0.002  -0.004   0.002  0.00  0.00    -0.590 N 
ATOM      4  C   LIG    1        1.277  -0.735  -0.020  0.00  0.00    +0.270 C 
ATOM      5  C   LIG    1        1.302  -1.704   1.173  0.00  0.00    +0.290 C 
ATOM      6  N   LIG    1        0.047  -2.470   1.181  0.00  0.00    -1.000 NA
ATOM      7  C   LIG    1       -1.228  -1.739   1.198  0.00  0.00    +0.290 C 
ATOM      8  C   LIG    1       -1.253  -0.769   0.010  0.00  0.00    +0.300 C 
ENDROOT
BRANCH   6   9
ATOM      9  S   LIG    1        0.070  -4.125   1.172  0.00  0.00    +2.600 S 
ATOM     10  O   LIG    1       -1.157  -4.496   1.788  0.00  0.00    -0.940 OA
ATOM     11  O   LIG    1        1.317  -4.462   1.763  0.00  0.00    -0.940 OA
BRANCH   9  12
ATOM     12  C   LIG    1        0.058  -4.568  -0.587  0.00  0.00    -0.300 C 
BRANCH  12  13
ATOM     13  C   LIG    1        0.077  -6.069  -0.727  0.00  0.00    -0.110 A 
ATOM     14  C   LIG    1        1.283  -6.740  -0.809  0.00  0.00    +0.030 A 
ATOM     15  C   LIG    1        1.300  -8.117  -0.933  0.00  0.00    +0.010 A 
ATOM     16  C   LIG    1        0.112  -8.821  -0.985  0.00  0.00    +0.030 A 
ATOM     17  C   LIG    1       -1.093  -8.149  -0.908  0.00  0.00    +0.010 A 
ATOM     18  C   LIG    1       -1.111  -6.773  -0.779  0.00  0.00    +0.030 A 
ENDBRANCH  12  13
ENDBRANCH   9  12
ENDBRANCH   6   9
BRANCH   2  19
ATOM     19  C   LIG    1        1.278   2.115   0.001  0.00  0.00    +0.290 C 
BRANCH  19  20
ATOM     20  N   LIG    1        0.991   3.555   0.012  0.00  0.00    -0.380 N 
ATOM     21  C   LIG    1        0.347   3.925   1.290  0.00  0.00    +0.270 C 
ATOM     22  C   LIG    1        1.506   4.429   2.186  0.00  0.00    +0.080 C 
ATOM     23  C   LIG    1        2.397   5.173   1.156  0.00  0.00    +0.100 C 
ATOM     24  C   LIG    1        2.248   4.314  -0.117  0.00  0.00    +0.230 C 
ATOM     25  H   LIG    1        0.376   3.785  -0.754  0.00  0.00    +0.430 HD
BRANCH  24  26
ATOM     26  C   LIG    1        2.188   5.203  -1.332  0.00  0.00    -0.130 A 
ATOM     27  C   LIG    1        1.016   5.865  -1.644  0.00  0.00    +0.010 A 
ATOM     28  C   LIG    1        0.955   6.689  -2.755  0.00  0.00    +0.050 A 
ATOM     29  C   LIG    1        2.071   6.838  -3.560  0.00  0.00    +0.100 A 
ATOM     30  O   LIG    1        2.023   7.642  -4.662  0.00  0.00    -0.320 OA
ATOM     31  C   LIG    1        2.810   8.833  -4.600  0.00  0.00    +0.230 C 
ATOM     32  C   LIG    1        4.248   8.551  -5.006  0.00  0.00    +0.000 C 
ATOM     33  C   LIG    1        4.950   7.612  -4.037  0.00  0.00    +0.230 C 
ATOM     34  O   LIG    1        4.341   6.320  -4.052  0.00  0.00    -0.320 OA
ATOM     35  C   LIG    1        3.247   6.168  -3.251  0.00  0.00    +0.080 A 
ATOM     36  C   LIG    1        3.306   5.350  -2.135  0.00  0.00    +0.060 A 
ENDBRANCH  24  26
ENDBRANCH  19  20
ENDBRANCH   2  19
TORSDOF 6
