REMARK  Name = ZINCzw0000000fpO.1
REMARK                            x       y       z     vdW  Elec       q    Type
REMARK                         _______ _______ _______ _____ _____    ______ ____
ROOT
ATOM      1  O   LIG    1        2.182   5.715   6.816  0.00  0.00    -0.520 OA
ATOM      2  C   LIG    1        1.741   5.447   5.719  0.00  0.00    +0.500 C 
ATOM      3  N   LIG    1        0.774   6.213   5.176  0.00  0.00    -0.590 N 
ATOM      4  C   LIG    1        0.235   5.905   3.844  0.00  0.00    +0.270 C 
ATOM      5  C   LIG    1       -1.292   5.756   3.961  0.00  0.00    +0.290 C 
ATOM      6  N   LIG    1       -1.821   6.918   4.688  0.00  0.00    -1.000 NA
ATOM      7  C   LIG    1       -1.278   7.230   6.017  0.00  0.00    +0.300 C 
ATOM      8  C   LIG    1        0.245   7.376   5.902  0.00  0.00    +0.300 C 
ENDROOT
BRANCH   6   9
ATOM      9  S   LIG    1       -3.009   7.860   4.021  0.00  0.00    +2.600 S 
ATOM     10  O   LIG    1       -3.675   8.429   5.139  0.00  0.00    -0.940 OA
ATOM     11  O   LIG    1       -3.689   6.987   3.129  0.00  0.00    -0.940 OA
BRANCH   9  12
ATOM     12  C   LIG    1       -2.109   9.137   3.098  0.00  0.00    -0.290 C 
BRANCH  12  13
ATOM     13  C   LIG    1       -3.093  10.067   2.438  0.00  0.00    -0.110 A 
ATOM     14  C   LIG    1       -3.547   9.799   1.160  0.00  0.00    +0.030 A 
ATOM     15  C   LIG    1       -4.453  10.650   0.555  0.00  0.00    +0.010 A 
ATOM     16  C   LIG    1       -4.899  11.774   1.226  0.00  0.00    +0.030 A 
ATOM     17  C   LIG    1       -4.441  12.045   2.502  0.00  0.00    +0.020 A 
ATOM     18  C   LIG    1       -3.538  11.191   3.107  0.00  0.00    +0.030 A 
ENDBRANCH  12  13
ENDBRANCH   9  12
ENDBRANCH   6   9
BRANCH   2  19
ATOM     19  C   LIG    1        2.275   4.259   4.962  0.00  0.00    +0.280 C 
BRANCH  19  20
ATOM     20  N   LIG    1        3.312   3.594   5.761  0.00  0.00    -0.370 N 
ATOM     21  C   LIG    1        4.495   4.475   5.872  0.00  0.00    +0.270 C 
ATOM     22  C   LIG    1        5.709   3.513   5.836  0.00  0.00    +0.080 C 
ATOM     23  C   LIG    1        5.233   2.447   4.815  0.00  0.00    +0.090 C 
ATOM     24  C   LIG    1        3.721   2.341   5.102  0.00  0.00    +0.230 C 
ATOM     25  H   LIG    1        2.955   3.392   6.683  0.00  0.00    +0.430 HD
BRANCH  24  26
ATOM     26  C   LIG    1        2.965   2.171   3.809  0.00  0.00    -0.140 A 
ATOM     27  C   LIG    1        3.226   3.011   2.743  0.00  0.00    +0.030 A 
ATOM     28  C   LIG    1        2.536   2.862   1.553  0.00  0.00    +0.040 A 
ATOM     29  C   LIG    1        1.581   1.867   1.434  0.00  0.00    +0.100 A 
ATOM     30  O   LIG    1        0.894   1.708   0.266  0.00  0.00    -0.310 OA
ATOM     31  C   LIG    1       -0.498   2.028   0.311  0.00  0.00    +0.240 C 
ATOM     32  C   LIG    1       -1.307   0.845   0.819  0.00  0.00    -0.010 C 
ATOM     33  C   LIG    1       -0.977   0.494   2.261  0.00  0.00    +0.230 C 
ATOM     34  O   LIG    1        0.375   0.046   2.377  0.00  0.00    -0.310 OA
ATOM     35  C   LIG    1        1.318   1.024   2.505  0.00  0.00    +0.080 A 
ATOM     36  C   LIG    1        2.011   1.176   3.694  0.00  0.00    +0.060 A 
ENDBRANCH  24  26
ENDBRANCH  19  20
ENDBRANCH   2  19
TORSDOF 6
