REMARK  Name = ZINCrH000004lLYE.0
REMARK                            x       y       z     vdW  Elec       q    Type
REMARK                         _______ _______ _______ _____ _____    ______ ____
ROOT
ATOM      1  C   LIG    1       -2.468  -2.654   0.092  0.00  0.00    +0.280 A 
ATOM      2  N   LIG    1       -1.300  -2.091   0.098  0.00  0.00    -0.500 NA
ATOM      3  C   LIG    1       -1.269  -0.768   0.006  0.00  0.00    +0.130 A 
ATOM      4  C   LIG    1       -2.470  -0.168  -0.076  0.00  0.00    -0.110 A 
ATOM      5  S   LIG    1       -3.713  -1.416  -0.042  0.00  0.00    +0.200 S 
ENDROOT
BRANCH   3   6
ATOM      6  C   LIG    1        0.002  -0.004   0.002  0.00  0.00    -0.020 A 
ATOM      7  C   LIG    1       -0.017   1.389   0.010  0.00  0.00    +0.020 A 
ATOM      8  C   LIG    1        1.171   2.087   0.002  0.00  0.00    +0.000 A 
ATOM      9  C   LIG    1        2.388   1.416  -0.013  0.00  0.00    -0.070 A 
ATOM     10  C   LIG    1        3.644   2.248  -0.034  0.00  0.00    +0.080 C 
ATOM     11  C   LIG    1        4.849   1.411   0.390  0.00  0.00    +0.020 C 
ATOM     12  C   LIG    1        4.867   0.128  -0.449  0.00  0.00    +0.020 C 
ATOM     13  C   LIG    1        3.697  -0.750  -0.012  0.00  0.00    +0.070 C 
ATOM     14  C   LIG    1        2.413   0.038  -0.015  0.00  0.00    -0.080 A 
ATOM     15  C   LIG    1        1.222  -0.673  -0.010  0.00  0.00    +0.040 A 
ENDBRANCH   3   6
BRANCH   1  17
ATOM     16  C   LIG    1       -3.964  -4.492   0.164  0.00  0.00    +0.500 C 
ATOM     17  N   LIG    1       -2.701  -4.021   0.179  0.00  0.00    -0.620 N 
ATOM     18  H   LIG    1       -1.955  -4.636   0.251  0.00  0.00    +0.420 HD
ATOM     19  O   LIG    1       -4.897  -3.722   0.074  0.00  0.00    -0.480 OA
BRANCH  16  20
ATOM     20  C   LIG    1       -4.216  -5.974   0.259  0.00  0.00    +0.270 C 
BRANCH  20  21
ATOM     21  C   LIG    1       -3.660  -6.657  -0.964  0.00  0.00    -0.260 A 
ATOM     22  C   LIG    1       -2.480  -7.315  -1.041  0.00  0.00    +0.260 A 
ATOM     23  N   LIG    1       -2.349  -7.781  -2.300  0.00  0.00    -0.370 N 
ATOM     24  N   LIG    1       -3.487  -7.397  -3.022  0.00  0.00    -0.290 NA
ATOM     25  C   LIG    1       -1.218  -8.552  -2.822  0.00  0.00    +0.360 C 
ATOM     26  C   LIG    1       -4.274  -6.729  -2.218  0.00  0.00    +0.270 A 
ENDBRANCH  20  21
BRANCH  20  28
ATOM     27  C   LIG    1       -6.132  -6.239   1.674  0.00  0.00    +0.220 C 
ATOM     28  O   LIG    1       -5.623  -6.214   0.339  0.00  0.00    -0.350 OA
ENDBRANCH  20  28
ENDBRANCH  16  20
ENDBRANCH   1  17
TORSDOF 5
