REMARK  Name = ZINCwl0000000lmb.1
REMARK                            x       y       z     vdW  Elec       q    Type
REMARK                         _______ _______ _______ _____ _____    ______ ____
ROOT
ATOM      1  C   LIG    1       -4.064   9.642   3.003  0.00  0.00    +0.340 C 
ENDROOT
BRANCH   1   5
ATOM      2  N   LIG    1       -6.923  10.543   5.132  0.00  0.00    -0.740 N 
ATOM      3  H   LIG    1       -7.671  10.268   4.579  0.00  0.00    +0.400 HD
ATOM      4  C   LIG    1       -5.661  10.376   4.691  0.00  0.00    +0.700 C 
ATOM      5  N   LIG    1       -5.437   9.824   3.482  0.00  0.00    -0.750 N 
ATOM      6  H   LIG    1       -6.184   9.549   2.929  0.00  0.00    +0.400 HD
ATOM      7  O   LIG    1       -4.724  10.721   5.385  0.00  0.00    -0.580 OA
BRANCH   2   8
ATOM      8  C   LIG    1       -7.167  11.143   6.446  0.00  0.00    +0.280 C 
BRANCH   8   9
ATOM      9  C   LIG    1       -8.674  11.218   6.701  0.00  0.00    +0.070 C 
BRANCH   9  14
ATOM     10  C   LIG    1       -9.302  13.770   9.424  0.00  0.00    -0.140 A 
ATOM     11  C   LIG    1       -9.387  12.951  10.550  0.00  0.00    +0.050 A 
ATOM     12  C   LIG    1       -9.240  11.585  10.419  0.00  0.00    +0.010 A 
ATOM     13  C   LIG    1       -9.015  11.027   9.174  0.00  0.00    +0.040 A 
ATOM     14  C   LIG    1       -8.925  11.834   8.053  0.00  0.00    -0.090 A 
ATOM     15  C   LIG    1       -9.069  13.201   8.170  0.00  0.00    +0.090 A 
BRANCH  10  19
ATOM     16  N   LIG    1       -9.683  15.781  10.768  0.00  0.00    -0.850 N 
ATOM     17  H   LIG    1       -9.786  16.741  10.855  0.00  0.00    +0.410 HD
ATOM     18  H   LIG    1       -9.742  15.213  11.553  0.00  0.00    +0.400 HD
ATOM     19  C   LIG    1       -9.459  15.234   9.557  0.00  0.00    +0.560 C 
ATOM     20  O   LIG    1       -9.385  15.945   8.573  0.00  0.00    -0.540 OA
ENDBRANCH  10  19
ENDBRANCH   9  14
ENDBRANCH   8   9
ENDBRANCH   2   8
ENDBRANCH   1   5
BRANCH   1  21
ATOM     21  C   LIG    1       -4.089   9.011   1.635  0.00  0.00    -0.100 A 
ATOM     22  C   LIG    1       -4.131   9.808   0.507  0.00  0.00    +0.080 A 
ATOM     23  C   LIG    1       -4.154   9.229  -0.748  0.00  0.00    +0.030 A 
ATOM     24  C   LIG    1       -4.135   7.852  -0.875  0.00  0.00    +0.040 A 
ATOM     25  C   LIG    1       -4.092   7.055   0.254  0.00  0.00    -0.160 A 
ATOM     26  C   LIG    1       -4.074   7.634   1.509  0.00  0.00    +0.060 A 
BRANCH  25  27
ATOM     27  C   LIG    1       -4.071   5.554   0.116  0.00  0.00    +0.320 C 
BRANCH  27  28
ATOM     28  N   LIG    1       -2.680   5.090   0.034  0.00  0.00    -0.380 N 
ATOM     29  C   LIG    1       -2.066   5.602  -1.196  0.00  0.00    +0.240 C 
ATOM     30  C   LIG    1       -0.594   5.187  -1.247  0.00  0.00    +0.070 C 
ATOM     31  C   LIG    1       -0.499   3.659  -1.226  0.00  0.00    +0.060 C 
ATOM     32  C   LIG    1       -1.208   3.131   0.025  0.00  0.00    -0.010 C 
ATOM     33  C   LIG    1       -2.657   3.622   0.029  0.00  0.00    +0.290 C 
ATOM     34  H   LIG    1       -2.165   5.430   0.833  0.00  0.00    +0.420 HD
BRANCH  32  35
ATOM     35  C   LIG    1       -1.187   1.624   0.017  0.00  0.00    +0.530 C 
ATOM     36  O   LIG    1       -2.229   1.003   0.018  0.00  0.00    -0.530 OA
ATOM     37  N   LIG    1       -0.011   0.966   0.007  0.00  0.00    -0.840 N 
ATOM     38  H   LIG    1        0.822   1.462   0.002  0.00  0.00    +0.410 HD
ATOM     39  H   LIG    1        0.002  -0.004   0.002  0.00  0.00    +0.420 HD
ENDBRANCH  32  35
ENDBRANCH  27  28
ENDBRANCH  25  27
ENDBRANCH   1  21
TORSDOF 9
