REMARK  Name = ZINCwl0000000lmb.0
REMARK                            x       y       z     vdW  Elec       q    Type
REMARK                         _______ _______ _______ _____ _____    ______ ____
ROOT
ATOM      1  C   LIG    1       -5.584   1.619   0.152  0.00  0.00    +0.340 C 
ENDROOT
BRANCH   1   5
ATOM      2  N   LIG    1       -7.854   4.073   1.683  0.00  0.00    -0.740 N 
ATOM      3  H   LIG    1       -7.489   4.141   2.579  0.00  0.00    +0.400 HD
ATOM      4  C   LIG    1       -7.283   3.247   0.784  0.00  0.00    +0.700 C 
ATOM      5  N   LIG    1       -6.205   2.517   1.129  0.00  0.00    -0.750 N 
ATOM      6  H   LIG    1       -5.839   2.585   2.026  0.00  0.00    +0.400 HD
ATOM      7  O   LIG    1       -7.741   3.162  -0.340  0.00  0.00    -0.580 OA
BRANCH   2   8
ATOM      8  C   LIG    1       -9.026   4.867   1.307  0.00  0.00    +0.280 C 
BRANCH   8   9
ATOM      9  C   LIG    1       -9.474   5.712   2.502  0.00  0.00    +0.070 C 
BRANCH   9  14
ATOM     10  C   LIG    1      -13.062   6.774   1.940  0.00  0.00    -0.140 A 
ATOM     11  C   LIG    1      -12.888   8.049   1.399  0.00  0.00    +0.050 A 
ATOM     12  C   LIG    1      -11.615   8.551   1.221  0.00  0.00    +0.010 A 
ATOM     13  C   LIG    1      -10.514   7.796   1.583  0.00  0.00    +0.040 A 
ATOM     14  C   LIG    1      -10.680   6.529   2.115  0.00  0.00    -0.090 A 
ATOM     15  C   LIG    1      -11.947   6.016   2.298  0.00  0.00    +0.090 A 
BRANCH  10  19
ATOM     16  N   LIG    1      -15.499   6.965   1.786  0.00  0.00    -0.850 N 
ATOM     17  H   LIG    1      -16.392   6.607   1.913  0.00  0.00    +0.410 HD
ATOM     18  H   LIG    1      -15.380   7.850   1.410  0.00  0.00    +0.400 HD
ATOM     19  C   LIG    1      -14.423   6.230   2.133  0.00  0.00    +0.560 C 
ATOM     20  O   LIG    1      -14.572   5.120   2.605  0.00  0.00    -0.540 OA
ENDBRANCH  10  19
ENDBRANCH   9  14
ENDBRANCH   8   9
ENDBRANCH   2   8
ENDBRANCH   1   5
BRANCH   1  21
ATOM     21  C   LIG    1       -4.406   0.924   0.785  0.00  0.00    -0.100 A 
ATOM     22  C   LIG    1       -4.583  -0.282   1.435  0.00  0.00    +0.070 A 
ATOM     23  C   LIG    1       -3.502  -0.920   2.015  0.00  0.00    +0.030 A 
ATOM     24  C   LIG    1       -2.244  -0.351   1.945  0.00  0.00    +0.050 A 
ATOM     25  C   LIG    1       -2.067   0.856   1.295  0.00  0.00    -0.160 A 
ATOM     26  C   LIG    1       -3.149   1.497   0.719  0.00  0.00    +0.050 A 
BRANCH  25  27
ATOM     27  C   LIG    1       -0.696   1.477   1.218  0.00  0.00    +0.320 C 
BRANCH  27  28
ATOM     28  N   LIG    1       -0.012   1.005   0.008  0.00  0.00    -0.380 N 
ATOM     29  C   LIG    1       -0.730   1.490  -1.177  0.00  0.00    +0.240 C 
ATOM     30  C   LIG    1       -0.068   0.935  -2.441  0.00  0.00    +0.050 C 
ATOM     31  C   LIG    1        1.388   1.405  -2.497  0.00  0.00    +0.070 C 
ATOM     32  C   LIG    1        2.108   0.958  -1.221  0.00  0.00    +0.010 C 
ATOM     33  C   LIG    1        1.366   1.511  -0.003  0.00  0.00    +0.290 C 
ATOM     34  H   LIG    1        0.002  -0.004   0.002  0.00  0.00    +0.430 HD
BRANCH  32  35
ATOM     35  C   LIG    1        2.129  -0.547  -1.156  0.00  0.00    +0.520 C 
ATOM     36  O   LIG    1        1.603  -1.122  -0.227  0.00  0.00    -0.560 OA
ATOM     37  N   LIG    1        2.733  -1.256  -2.131  0.00  0.00    -0.830 N 
ATOM     38  H   LIG    1        2.747  -2.225  -2.089  0.00  0.00    +0.420 HD
ATOM     39  H   LIG    1        3.154  -0.796  -2.875  0.00  0.00    +0.410 HD
ENDBRANCH  32  35
ENDBRANCH  27  28
ENDBRANCH  25  27
ENDBRANCH   1  21
TORSDOF 9
