REMARK  Name = ZINCrg00001JduRd.0
REMARK                            x       y       z     vdW  Elec       q    Type
REMARK                         _______ _______ _______ _____ _____    ______ ____
ROOT
ATOM      1  N   LIG    1       -3.842  -2.783  -2.059  0.00  0.00    -0.510 N 
ATOM      2  C   LIG    1       -4.917  -2.214  -1.538  0.00  0.00    +0.560 A 
ATOM      3  C   LIG    1       -5.074  -0.783  -1.839  0.00  0.00    -0.200 A 
ATOM      4  S   LIG    1       -3.671  -0.386  -2.850  0.00  0.00    +0.160 S 
ATOM      5  C   LIG    1       -6.071   0.044  -1.440  0.00  0.00    +0.200 C 
ATOM      6  O   LIG    1       -5.716  -2.830  -0.858  0.00  0.00    -0.470 OA
ATOM      7  C   LIG    1       -2.994  -2.023  -2.810  0.00  0.00    +0.170 A 
ATOM      8  C   LIG    1       -1.832  -2.450  -3.427  0.00  0.00    -0.140 C 
ENDROOT
BRANCH   5   9
ATOM      9  C   LIG    1       -6.059   1.458  -1.845  0.00  0.00    +0.130 A 
ATOM     10  C   LIG    1       -7.090   2.308  -1.430  0.00  0.00    +0.010 A 
ATOM     11  C   LIG    1       -7.064   3.635  -1.820  0.00  0.00    +0.070 A 
ATOM     12  C   LIG    1       -6.011   4.073  -2.611  0.00  0.00    -0.020 A 
ATOM     13  C   LIG    1       -5.022   3.178  -2.986  0.00  0.00    +0.270 A 
ATOM     14  N   LIG    1       -5.071   1.919  -2.607  0.00  0.00    -0.470 NA
ENDBRANCH   5   9
BRANCH   8  15
ATOM     15  C   LIG    1       -1.680  -3.788  -3.773  0.00  0.00    +0.390 C 
ATOM     16  O   LIG    1       -2.660  -4.483  -3.965  0.00  0.00    -0.470 OA
BRANCH  15  17
ATOM     17  C   LIG    1       -0.300  -4.379  -3.909  0.00  0.00    -0.110 C 
ATOM     18  C   LIG    1        0.442  -4.254  -2.577  0.00  0.00    +0.040 C 
ATOM     19  C   LIG    1        0.472  -3.627  -4.995  0.00  0.00    +0.050 C 
ATOM     20  C   LIG    1       -0.413  -5.855  -4.294  0.00  0.00    +0.050 C 
ENDBRANCH  15  17
ENDBRANCH   8  15
BRANCH   1  21
ATOM     21  C   LIG    1       -3.568  -4.204  -1.833  0.00  0.00    +0.320 C 
BRANCH  21  24
ATOM     22  N   LIG    1       -4.442  -6.381  -2.617  0.00  0.00    -0.720 N 
ATOM     23  H   LIG    1       -3.786  -6.814  -2.049  0.00  0.00    +0.400 HD
ATOM     24  C   LIG    1       -4.511  -5.036  -2.664  0.00  0.00    +0.540 C 
ATOM     25  O   LIG    1       -5.331  -4.495  -3.375  0.00  0.00    -0.530 OA
BRANCH  22  27
ATOM     26  C   LIG    1       -4.728  -8.557  -3.697  0.00  0.00    +0.030 C 
ATOM     27  C   LIG    1       -5.358  -7.190  -3.425  0.00  0.00    +0.230 C 
ATOM     28  C   LIG    1       -6.675  -7.377  -2.669  0.00  0.00    +0.020 C 
ENDBRANCH  22  27
ENDBRANCH  21  24
ENDBRANCH   1  21
TORSDOF 6
