REMARK  Name = ZINCvU0000000DQ1.0
REMARK                            x       y       z     vdW  Elec       q    Type
REMARK                         _______ _______ _______ _____ _____    ______ ____
ROOT
ATOM      1  C   LIG    1       -3.295   2.514   0.029  0.00  0.00    +0.290 A 
ATOM      2  N   LIG    1       -2.536   3.571   0.030  0.00  0.00    -0.480 NA
ATOM      3  C   LIG    1       -1.231   3.196   0.013  0.00  0.00    +0.050 A 
ATOM      4  C   LIG    1       -0.025   3.902  -0.006  0.00  0.00    +0.070 A 
ATOM      5  C   LIG    1        1.161   3.224  -0.021  0.00  0.00    +0.000 A 
ATOM      6  C   LIG    1        1.183   1.837  -0.016  0.00  0.00    +0.030 A 
ATOM      7  C   LIG    1        0.006   1.119   0.003  0.00  0.00    +0.020 A 
ATOM      8  C   LIG    1       -1.209   1.790   0.012  0.00  0.00    +0.060 A 
ATOM      9  N   LIG    1       -2.530   1.389   0.026  0.00  0.00    -0.480 N 
ENDROOT
BRANCH   1  12
ATOM     10  N   LIG    1       -6.531   3.986   0.846  0.00  0.00    -0.560 N 
ATOM     11  C   LIG    1       -5.334   3.265   1.294  0.00  0.00    +0.300 C 
ATOM     12  C   LIG    1       -4.801   2.533   0.042  0.00  0.00    +0.090 C 
ATOM     13  C   LIG    1       -5.354   3.417  -1.100  0.00  0.00    +0.100 C 
ATOM     14  C   LIG    1       -6.565   4.091  -0.494  0.00  0.00    +0.520 C 
ATOM     15  O   LIG    1       -7.440   4.645  -1.125  0.00  0.00    -0.500 OA
BRANCH  10  20
ATOM     16  C   LIG    1      -10.504   6.064   4.322  0.00  0.00    +0.080 C 
ATOM     17  C   LIG    1       -9.449   5.512   3.398  0.00  0.00    -0.110 A 
ATOM     18  C   LIG    1       -8.418   4.746   3.909  0.00  0.00    +0.040 A 
ATOM     19  C   LIG    1       -7.449   4.238   3.065  0.00  0.00    -0.040 A 
ATOM     20  C   LIG    1       -7.511   4.499   1.703  0.00  0.00    +0.160 A 
ATOM     21  C   LIG    1       -8.544   5.274   1.194  0.00  0.00    +0.010 A 
ATOM     22  C   LIG    1       -9.513   5.774   2.042  0.00  0.00    -0.060 A 
ATOM     23  C   LIG    1      -10.639   6.609   1.489  0.00  0.00    +0.090 C 
ENDBRANCH  10  20
ENDBRANCH   1  12
BRANCH   9  24
ATOM     24  C   LIG    1       -3.017   0.007   0.035  0.00  0.00    +0.370 C 
BRANCH  24  25
ATOM     25  C   LIG    1       -3.172  -0.461   1.459  0.00  0.00    -0.160 A 
ATOM     26  C   LIG    1       -4.420  -0.469   2.052  0.00  0.00    +0.050 A 
ATOM     27  C   LIG    1       -4.562  -0.899   3.358  0.00  0.00    +0.010 A 
ATOM     28  C   LIG    1       -3.456  -1.321   4.073  0.00  0.00    +0.060 A 
ATOM     29  C   LIG    1       -2.207  -1.314   3.481  0.00  0.00    -0.010 A 
ATOM     30  C   LIG    1       -2.064  -0.890   2.171  0.00  0.00    +0.120 A 
ATOM     31  F   LIG    1       -0.845  -0.888   1.590  0.00  0.00    -0.130 F 
ENDBRANCH  24  25
ENDBRANCH   9  24
TORSDOF 4
