REMARK  Name = ZINCpk00000y6w3A.0
REMARK                            x       y       z     vdW  Elec       q    Type
REMARK                         _______ _______ _______ _____ _____    ______ ____
ROOT
ATOM      1  C   LIG    1       -0.806   1.621  -1.210  0.00  0.00    +0.160 C 
ATOM      2  C   LIG    1       -2.269   1.504  -0.705  0.00  0.00    +0.080 C 
ATOM      3  C   LIG    1       -2.143   1.837   0.797  0.00  0.00    +0.240 C 
ATOM      4  N   LIG    1       -0.746   1.583   1.187  0.00  0.00    -0.610 N 
ATOM      5  C   LIG    1       -0.223   1.771   2.415  0.00  0.00    +0.530 C 
ATOM      6  O   LIG    1       -0.922   2.186   3.314  0.00  0.00    -0.500 OA
ATOM      7  C   LIG    1       -0.013   1.086   0.008  0.00  0.00    +0.240 C 
ENDROOT
BRANCH   1   9
ATOM      8  C   LIG    1        0.604   3.136  -2.419  0.00  0.00    +0.210 C 
ATOM      9  O   LIG    1       -0.467   2.981  -1.485  0.00  0.00    -0.370 OA
ENDBRANCH   1   9
BRANCH   5  10
ATOM     10  C   LIG    1        1.231   1.468   2.669  0.00  0.00    +0.060 C 
BRANCH  10  11
ATOM     11  C   LIG    1        1.566   1.766   4.132  0.00  0.00    +0.140 C 
BRANCH  11  12
ATOM     12  C   LIG    1        3.019   1.462   4.387  0.00  0.00    +0.080 A 
ATOM     13  C   LIG    1        3.848   2.438   4.913  0.00  0.00    +0.220 A 
ATOM     14  N   LIG    1        5.122   2.170   5.141  0.00  0.00    -0.440 NA
ATOM     15  C   LIG    1        5.607   0.974   4.857  0.00  0.00    +0.210 A 
ATOM     16  C   LIG    1        4.779  -0.000   4.326  0.00  0.00    +0.230 A 
ATOM     17  N   LIG    1        3.504   0.266   4.103  0.00  0.00    -0.440 NA
ENDBRANCH  11  12
ENDBRANCH  10  11
ENDBRANCH   5  10
BRANCH   3  18
ATOM     18  C   LIG    1       -3.084   0.944   1.608  0.00  0.00    +0.170 C 
BRANCH  18  19
ATOM     19  O   LIG    1       -3.047   1.337   2.982  0.00  0.00    -0.270 OA
BRANCH  19  20
ATOM     20  C   LIG    1       -3.832   0.639   3.844  0.00  0.00    +0.090 A 
ATOM     21  C   LIG    1       -3.852   0.961   5.197  0.00  0.00    +0.030 A 
ATOM     22  C   LIG    1       -4.668   0.221   6.038  0.00  0.00    +0.010 A 
ATOM     23  C   LIG    1       -5.429  -0.805   5.509  0.00  0.00    +0.210 A 
ATOM     24  N   LIG    1       -5.387  -1.084   4.221  0.00  0.00    -0.450 NA
ATOM     25  C   LIG    1       -4.629  -0.401   3.387  0.00  0.00    +0.160 A 
ENDBRANCH  19  20
ENDBRANCH  18  19
ENDBRANCH   3  18
TORSDOF 7
