REMARK  Name = ZINCtV00000L6kun.0
REMARK                            x       y       z     vdW  Elec       q    Type
REMARK                         _______ _______ _______ _____ _____    ______ ____
ROOT
ATOM      1  C   LIG    1        7.194   2.408  -0.077  0.00  0.00    +0.140 A 
ATOM      2  N   LIG    1        7.570   1.147  -0.121  0.00  0.00    -0.460 NA
ATOM      3  C   LIG    1        6.690   0.140  -0.137  0.00  0.00    +0.140 A 
ATOM      4  C   LIG    1        7.120  -1.197  -0.184  0.00  0.00    +0.040 A 
ATOM      5  C   LIG    1        6.200  -2.202  -0.200  0.00  0.00    +0.040 A 
ATOM      6  C   LIG    1        4.836  -1.927  -0.171  0.00  0.00    +0.020 A 
ATOM      7  C   LIG    1        4.383  -0.641  -0.124  0.00  0.00    +0.080 A 
ATOM      8  C   LIG    1        5.301   0.414  -0.100  0.00  0.00    -0.070 A 
ATOM      9  C   LIG    1        4.862   1.810  -0.057  0.00  0.00    +0.050 A 
ATOM     10  C   LIG    1        5.848   2.788  -0.044  0.00  0.00    +0.030 A 
ENDROOT
BRANCH   9  11
ATOM     11  C   LIG    1        3.429   2.164  -0.024  0.00  0.00    +0.140 A 
ATOM     12  N   LIG    1        2.458   1.313  -0.034  0.00  0.00    -0.440 NA
ATOM     13  C   LIG    1        1.207   1.784   0.000  0.00  0.00    +0.080 A 
ATOM     14  C   LIG    1       -0.009   1.065  -0.002  0.00  0.00    +0.080 A 
ATOM     15  C   LIG    1       -1.201   1.722   0.031  0.00  0.00    +0.030 A 
ATOM     16  C   LIG    1       -1.247   3.109   0.079  0.00  0.00    +0.050 A 
ATOM     17  C   LIG    1       -0.079   3.837   0.082  0.00  0.00    +0.050 A 
ATOM     18  C   LIG    1        1.151   3.183   0.043  0.00  0.00    -0.170 A 
ATOM     19  S   LIG    1        2.800   3.805   0.035  0.00  0.00    +0.100 S 
ENDBRANCH   9  11
BRANCH   1  20
ATOM     20  S   LIG    1        8.431   3.662  -0.058  0.00  0.00    +0.060 S 
BRANCH  20  24
ATOM     21  C   LIG    1       12.279   1.296   0.276  0.00  0.00    -0.020 A 
ATOM     22  C   LIG    1       11.810   1.679  -0.967  0.00  0.00    +0.100 A 
ATOM     23  C   LIG    1       10.637   2.400  -1.073  0.00  0.00    +0.110 A 
ATOM     24  C   LIG    1        9.928   2.742   0.072  0.00  0.00    -0.080 A 
ATOM     25  C   LIG    1       10.404   2.360   1.320  0.00  0.00    +0.090 A 
ATOM     26  C   LIG    1       11.575   1.634   1.418  0.00  0.00    +0.100 A 
BRANCH  21  28
ATOM     27  O   LIG    1       14.156   0.224  -0.619  0.00  0.00    -0.150 OA
ATOM     28  N   LIG    1       13.536   0.523   0.386  0.00  0.00    +0.020 N 
ATOM     29  O   LIG    1       13.950   0.185   1.480  0.00  0.00    -0.150 OA
ENDBRANCH  21  28
ENDBRANCH  20  24
ENDBRANCH   1  20
TORSDOF 4
