REMARK  Name = ZINCpe00000VVGK4.0
REMARK                            x       y       z     vdW  Elec       q    Type
REMARK                         _______ _______ _______ _____ _____    ______ ____
ROOT
ATOM      1  N   LIG    1       -0.624   3.245   3.587  0.00  0.00    -0.540 NA
ATOM      2  C   LIG    1       -0.702   1.778   3.646  0.00  0.00    +0.180 C 
ATOM      3  C   LIG    1        0.009   1.184   2.428  0.00  0.00    +0.180 C 
ATOM      4  N   LIG    1       -0.619   1.693   1.200  0.00  0.00    -0.530 NA
ATOM      5  C   LIG    1       -0.541   3.159   1.142  0.00  0.00    +0.180 C 
ATOM      6  C   LIG    1       -1.252   3.754   2.360  0.00  0.00    +0.180 C 
ENDROOT
BRANCH   1   7
ATOM      7  C   LIG    1       -1.231   3.852   4.780  0.00  0.00    +0.250 C 
BRANCH   7  10
ATOM      8  N   LIG    1       -2.137   7.304   4.033  0.00  0.00    -0.370 N 
ATOM      9  C   LIG    1       -2.416   5.984   4.037  0.00  0.00    +0.230 A 
ATOM     10  C   LIG    1       -1.355   5.340   4.577  0.00  0.00    -0.230 A 
ATOM     11  C   LIG    1       -0.398   6.300   4.920  0.00  0.00    +0.250 A 
ATOM     12  N   LIG    1       -0.863   7.478   4.589  0.00  0.00    -0.300 NA
BRANCH   8  13
ATOM     13  C   LIG    1       -3.012   8.368   3.534  0.00  0.00    +0.330 C 
BRANCH  13  14
ATOM     14  C   LIG    1       -3.229   9.408   4.636  0.00  0.00    +0.180 C 
BRANCH  14  15
ATOM     15  O   LIG    1       -4.082  10.446   4.149  0.00  0.00    -0.570 OA
ATOM     16  H   LIG    1       -4.263  11.142   4.796  0.00  0.00    +0.390 HD
ENDBRANCH  14  15
ENDBRANCH  13  14
ENDBRANCH   8  13
ENDBRANCH   7  10
ENDBRANCH   1   7
BRANCH   4  17
ATOM     17  C   LIG    1       -0.013   1.086   0.008  0.00  0.00    +0.160 C 
BRANCH  17  18
ATOM     18  C   LIG    1       -0.523  -0.348  -0.150  0.00  0.00    +0.270 C 
BRANCH  18  19
ATOM     19  C   LIG    1        0.108  -0.975  -1.366  0.00  0.00    -0.150 A 
ATOM     20  C   LIG    1       -0.556  -0.956  -2.578  0.00  0.00    +0.050 A 
ATOM     21  C   LIG    1        0.023  -1.531  -3.693  0.00  0.00    +0.000 A 
ATOM     22  C   LIG    1        1.267  -2.127  -3.598  0.00  0.00    +0.040 A 
ATOM     23  C   LIG    1        1.933  -2.147  -2.388  0.00  0.00    -0.010 A 
ATOM     24  C   LIG    1        1.357  -1.566  -1.271  0.00  0.00    +0.110 A 
ATOM     25  F   LIG    1        2.010  -1.580  -0.088  0.00  0.00    -0.140 F 
ENDBRANCH  18  19
BRANCH  18  26
ATOM     26  O   LIG    1       -1.944  -0.333  -0.305  0.00  0.00    -0.540 OA
ATOM     27  H   LIG    1       -2.250   0.165  -1.075  0.00  0.00    +0.370 HD
ENDBRANCH  18  26
ENDBRANCH  17  18
ENDBRANCH   4  17
TORSDOF 9
