REMARK  Name = ZINCrH000004uq5k.0
REMARK                            x       y       z     vdW  Elec       q    Type
REMARK                         _______ _______ _______ _____ _____    ______ ____
ROOT
ATOM      1  C   LIG    1       -1.983   9.424   0.204  0.00  0.00    +0.230 C 
ATOM      2  C   LIG    1       -3.047  10.481  -0.107  0.00  0.00    +0.020 C 
ATOM      3  C   LIG    1       -2.434  11.875   0.046  0.00  0.00    +0.020 C 
ATOM      4  C   LIG    1       -1.280  12.042  -0.944  0.00  0.00    +0.010 C 
ATOM      5  C   LIG    1       -0.197  11.002  -0.639  0.00  0.00    +0.300 C 
ATOM      6  N   LIG    1       -0.809   9.666  -0.645  0.00  0.00    -0.990 NA
ENDROOT
BRANCH   6   7
ATOM      7  S   LIG    1       -0.186   8.457  -1.590  0.00  0.00    +2.680 S 
ATOM      8  O   LIG    1       -0.488   7.236  -0.929  0.00  0.00    -0.940 OA
ATOM      9  O   LIG    1        1.136   8.852  -1.927  0.00  0.00    -0.950 OA
BRANCH   7  10
ATOM     10  C   LIG    1       -1.103   8.447  -3.095  0.00  0.00    -0.670 A 
ATOM     11  C   LIG    1       -2.236   7.665  -3.208  0.00  0.00    +0.140 A 
ATOM     12  C   LIG    1       -2.958   7.661  -4.388  0.00  0.00    +0.020 A 
ATOM     13  C   LIG    1       -2.541   8.431  -5.457  0.00  0.00    +0.090 A 
ATOM     14  C   LIG    1       -1.403   9.210  -5.345  0.00  0.00    -0.060 A 
ATOM     15 CL   LIG    1       -0.878  10.177  -6.688  0.00  0.00    -0.050 Cl
ATOM     16  C   LIG    1       -0.684   9.218  -4.163  0.00  0.00    +0.140 A 
ENDBRANCH   7  10
ENDBRANCH   6   7
BRANCH   1  17
ATOM     17  C   LIG    1       -2.545   8.030  -0.084  0.00  0.00    +0.280 C 
BRANCH  17  22
ATOM     18  O   LIG    1       -3.957   5.733  -0.011  0.00  0.00    -0.560 OA
ATOM     19  C   LIG    1       -4.429   6.656   0.625  0.00  0.00    +0.700 C 
ATOM     20  N   LIG    1       -5.582   6.488   1.302  0.00  0.00    -0.690 N 
ATOM     21  H   LIG    1       -5.994   7.242   1.753  0.00  0.00    +0.410 HD
ATOM     22  N   LIG    1       -3.799   7.848   0.652  0.00  0.00    -0.730 N 
ATOM     23  H   LIG    1       -4.175   8.584   1.159  0.00  0.00    +0.400 HD
BRANCH  20  24
ATOM     24  C   LIG    1       -6.186   5.227   1.353  0.00  0.00    +0.160 A 
ATOM     25  C   LIG    1       -6.122   4.380   0.255  0.00  0.00    +0.020 A 
ATOM     26  C   LIG    1       -6.718   3.135   0.309  0.00  0.00    +0.030 A 
ATOM     27  C   LIG    1       -7.378   2.732   1.456  0.00  0.00    -0.020 A 
ATOM     28  C   LIG    1       -7.448   3.576   2.550  0.00  0.00    +0.030 A 
ATOM     29  C   LIG    1       -6.849   4.820   2.503  0.00  0.00    -0.030 A 
ENDBRANCH  20  24
ENDBRANCH  17  22
ENDBRANCH   1  17
TORSDOF 5
