REMARK  Name = ZINCpe000000YYHa.0
REMARK                            x       y       z     vdW  Elec       q    Type
REMARK                         _______ _______ _______ _____ _____    ______ ____
ROOT
ATOM      1  C   LIG    1       -0.013   1.086   0.008  0.00  0.00    +0.340 C 
ENDROOT
BRANCH   1   2
ATOM      2  N   LIG    1       -0.698   1.558   1.213  0.00  0.00    -0.510 N 
ATOM      3  C   LIG    1       -0.348   2.736   1.769  0.00  0.00    +0.510 A 
ATOM      4  C   LIG    1       -1.058   3.205   2.994  0.00  0.00    +0.510 A 
ATOM      5  N   LIG    1       -2.031   2.439   3.528  0.00  0.00    -0.630 N 
ATOM      6  H   LIG    1       -2.496   2.734   4.327  0.00  0.00    +0.420 HD
ATOM      7  C   LIG    1       -2.368   1.226   2.936  0.00  0.00    +0.120 A 
ATOM      8  C   LIG    1       -3.372   0.442   3.493  0.00  0.00    +0.020 A 
ATOM      9  C   LIG    1       -3.712  -0.762   2.911  0.00  0.00    +0.040 A 
ATOM     10  C   LIG    1       -3.056  -1.196   1.772  0.00  0.00    +0.040 A 
ATOM     11  C   LIG    1       -2.058  -0.427   1.209  0.00  0.00    +0.010 A 
ATOM     12  O   LIG    1       -0.760   4.265   3.508  0.00  0.00    -0.470 OA
ATOM     13  O   LIG    1        0.534   3.409   1.276  0.00  0.00    -0.470 OA
ATOM     14  C   LIG    1       -1.707   0.788   1.786  0.00  0.00    +0.130 A 
ENDBRANCH   1   2
BRANCH   1  16
ATOM     15  O   LIG    1       -1.736   2.268  -1.088  0.00  0.00    -0.520 OA
ATOM     16  C   LIG    1       -0.742   1.585  -1.213  0.00  0.00    +0.500 C 
ATOM     17  N   LIG    1       -0.288   1.272  -2.443  0.00  0.00    -0.720 N 
ATOM     18  H   LIG    1        0.507   0.726  -2.543  0.00  0.00    +0.410 HD
BRANCH  17  19
ATOM     19  C   LIG    1       -0.997   1.758  -3.630  0.00  0.00    +0.290 C 
BRANCH  19  20
ATOM     20  C   LIG    1       -0.281   1.264  -4.889  0.00  0.00    +0.200 C 
BRANCH  20  21
ATOM     21  O   LIG    1       -0.363  -0.161  -4.956  0.00  0.00    -0.310 OA
BRANCH  21  22
ATOM     22  C   LIG    1        0.227  -0.763  -6.021  0.00  0.00    +0.130 A 
ATOM     23  C   LIG    1        0.867   0.002  -6.986  0.00  0.00    -0.080 A 
ATOM     24  C   LIG    1        1.471  -0.614  -8.065  0.00  0.00    +0.050 A 
ATOM     25  C   LIG    1        1.429  -1.990  -8.190  0.00  0.00    -0.040 A 
ATOM     26  C   LIG    1        0.787  -2.754  -7.234  0.00  0.00    +0.050 A 
ATOM     27  C   LIG    1        0.186  -2.144  -6.150  0.00  0.00    -0.020 A 
ENDBRANCH  21  22
ENDBRANCH  20  21
ENDBRANCH  19  20
ENDBRANCH  17  19
ENDBRANCH   1  16
TORSDOF 6
