REMARK  Name = ZINCrH000004kqmi.0
REMARK                            x       y       z     vdW  Elec       q    Type
REMARK                         _______ _______ _______ _____ _____    ______ ____
ROOT
ATOM      1  C   LIG    1        1.038  -3.019   0.520  0.00  0.00    +0.310 C 
ATOM      2  C   LIG    1        1.115  -2.012   1.640  0.00  0.00    -0.090 A 
ATOM      3  C   LIG    1       -0.018  -1.257   1.909  0.00  0.00    -0.030 A 
ATOM      4  C   LIG    1       -0.019  -0.333   2.939  0.00  0.00    +0.110 A 
ATOM      5  C   LIG    1        1.127  -0.163   3.709  0.00  0.00    +0.110 A 
ATOM      6  C   LIG    1        2.255  -0.914   3.434  0.00  0.00    -0.030 A 
ATOM      7  C   LIG    1        2.254  -1.837   2.395  0.00  0.00    -0.060 A 
ATOM      8  C   LIG    1        3.529  -2.598   2.139  0.00  0.00    +0.080 C 
ATOM      9  C   LIG    1        3.251  -3.872   1.343  0.00  0.00    +0.290 C 
ATOM     10  N   LIG    1        2.382  -3.518   0.209  0.00  0.00    -0.600 N 
ATOM     11  C   LIG    1        2.804  -3.646  -1.064  0.00  0.00    +0.610 C 
ATOM     12  O   LIG    1        2.023  -3.486  -1.984  0.00  0.00    -0.510 OA
ENDROOT
BRANCH  11  13
ATOM     13  C   LIG    1        4.204  -3.977  -1.342  0.00  0.00    -0.260 A 
ATOM     14  C   LIG    1        4.637  -4.844  -2.306  0.00  0.00    +0.110 A 
ATOM     15  C   LIG    1        6.005  -4.969  -2.350  0.00  0.00    +0.030 A 
ATOM     16  C   LIG    1        6.672  -4.231  -1.452  0.00  0.00    -0.170 A 
ATOM     17 CL   LIG    1        8.400  -4.201  -1.291  0.00  0.00    -0.000 Cl
ATOM     18  S   LIG    1        5.595  -3.318  -0.493  0.00  0.00    +0.260 S 
ENDBRANCH  11  13
BRANCH   5  19
ATOM     19  O   LIG    1        1.138   0.738   4.728  0.00  0.00    -0.300 OA
ATOM     20  C   LIG    1        2.350   0.858   5.475  0.00  0.00    +0.240 C 
ENDBRANCH   5  19
BRANCH   4  21
ATOM     21  O   LIG    1       -1.131   0.407   3.192  0.00  0.00    -0.300 OA
ATOM     22  C   LIG    1       -2.267   0.181   2.355  0.00  0.00    +0.240 C 
ENDBRANCH   4  21
BRANCH   1  23
ATOM     23  C   LIG    1        0.442  -2.354  -0.722  0.00  0.00    +0.110 C 
BRANCH  23  24
ATOM     24  C   LIG    1       -0.210  -3.401  -1.589  0.00  0.00    +0.490 C 
ATOM     25  O   LIG    1        0.035  -4.570  -1.411  0.00  0.00    -0.510 OA
BRANCH  24  27
ATOM     26  C   LIG    1       -1.653  -4.095  -3.354  0.00  0.00    +0.260 C 
ATOM     27  O   LIG    1       -1.063  -3.034  -2.558  0.00  0.00    -0.360 OA
ENDBRANCH  24  27
ENDBRANCH  23  24
ENDBRANCH   1  23
TORSDOF 6
