REMARK  Name = ZINCvU0000000E3b.0
REMARK                            x       y       z     vdW  Elec       q    Type
REMARK                         _______ _______ _______ _____ _____    ______ ____
ROOT
ATOM      1  N   LIG    1       -7.662   0.407   0.044  0.00  0.00    -0.620 N 
ATOM      2  H   LIG    1       -7.574  -0.559   0.039  0.00  0.00    +0.430 HD
ATOM      3  C   LIG    1       -6.560   1.184   0.042  0.00  0.00    +0.510 C 
ATOM      4  O   LIG    1       -6.670   2.392   0.049  0.00  0.00    -0.500 OA
ENDROOT
BRANCH   1   8
ATOM      5  C   LIG    1      -11.158   1.069   0.066  0.00  0.00    +0.140 A 
ATOM      6  C   LIG    1      -10.976   2.402   0.071  0.00  0.00    -0.110 A 
ATOM      7  S   LIG    1       -9.243   2.722   0.072  0.00  0.00    +0.200 S 
ATOM      8  C   LIG    1       -8.923   0.991   0.054  0.00  0.00    +0.270 A 
ATOM      9  N   LIG    1      -10.047   0.345   0.056  0.00  0.00    -0.470 NA
BRANCH   5  14
ATOM     10  C   LIG    1      -14.900   0.676   0.084  0.00  0.00    +0.090 A 
ATOM     11  C   LIG    1      -15.028  -0.705   0.077  0.00  0.00    -0.030 A 
ATOM     12  C   LIG    1      -13.903  -1.509   0.067  0.00  0.00    -0.040 A 
ATOM     13  C   LIG    1      -12.642  -0.939   0.058  0.00  0.00    +0.120 A 
ATOM     14  C   LIG    1      -12.506   0.453   0.070  0.00  0.00    -0.020 A 
ATOM     15  C   LIG    1      -13.643   1.258   0.080  0.00  0.00    +0.040 A 
BRANCH  10  17
ATOM     16  C   LIG    1      -17.275   0.796   0.098  0.00  0.00    +0.240 C 
ATOM     17  O   LIG    1      -16.010   1.461   0.095  0.00  0.00    -0.320 OA
ENDBRANCH  10  17
BRANCH  13  18
ATOM     18  O   LIG    1      -11.537  -1.731   0.041  0.00  0.00    -0.280 OA
ATOM     19  C   LIG    1      -11.751  -3.143   0.029  0.00  0.00    +0.220 C 
ENDBRANCH  13  18
ENDBRANCH   5  14
ENDBRANCH   1   8
BRANCH   3  20
ATOM     20  C   LIG    1       -5.192   0.551   0.032  0.00  0.00    +0.090 C 
BRANCH  20  21
ATOM     21  C   LIG    1       -4.124   1.646   0.032  0.00  0.00    +0.080 C 
BRANCH  21  22
ATOM     22  C   LIG    1       -2.735   1.004   0.022  0.00  0.00    +0.100 C 
BRANCH  22  23
ATOM     23  S   LIG    1       -1.471   2.299   0.022  0.00  0.00    -0.000 S 
BRANCH  23  24
ATOM     24  C   LIG    1       -0.016   1.306   0.009  0.00  0.00    +0.260 A 
ATOM     25  N   LIG    1        0.002  -0.004   0.002  0.00  0.00    -0.490 NA
ATOM     26  C   LIG    1        1.288  -0.443  -0.013  0.00  0.00    +0.060 A 
ATOM     27  C   LIG    1        1.868  -1.714  -0.026  0.00  0.00    +0.060 A 
ATOM     28  C   LIG    1        3.239  -1.839  -0.040  0.00  0.00    +0.010 A 
ATOM     29  C   LIG    1        4.049  -0.714  -0.042  0.00  0.00    +0.030 A 
ATOM     30  C   LIG    1        3.492   0.549  -0.029  0.00  0.00    +0.010 A 
ATOM     31  C   LIG    1        2.113   0.694  -0.014  0.00  0.00    +0.050 A 
ATOM     32  N   LIG    1        1.263   1.788  -0.000  0.00  0.00    -0.580 N 
ATOM     33  H   LIG    1        1.526   2.721   0.002  0.00  0.00    +0.430 HD
ENDBRANCH  23  24
ENDBRANCH  22  23
ENDBRANCH  21  22
ENDBRANCH  20  21
ENDBRANCH   3  20
TORSDOF 9
