REMARK  Name = ZINCrD000000fH4D.0
REMARK                            x       y       z     vdW  Elec       q    Type
REMARK                         _______ _______ _______ _____ _____    ______ ____
ROOT
ATOM      1  C   LIG    1       -2.482   0.853   0.018  0.00  0.00    +0.250 C 
ENDROOT
BRANCH   1   4
ATOM      2  C   LIG    1       -4.978   3.743  -0.246  0.00  0.00    +0.080 C 
ATOM      3  C   LIG    1       -3.861   2.850   0.230  0.00  0.00    +0.520 C 
ATOM      4  N   LIG    1       -3.568   1.720  -0.444  0.00  0.00    -0.720 N 
ATOM      5  H   LIG    1       -4.076   1.482  -1.235  0.00  0.00    +0.400 HD
ATOM      6  O   LIG    1       -3.226   3.149   1.218  0.00  0.00    -0.520 OA
ENDBRANCH   1   4
BRANCH   1   7
ATOM      7  C   LIG    1       -1.187   1.624   0.017  0.00  0.00    +0.500 C 
ATOM      8  N   LIG    1       -0.011   0.966   0.007  0.00  0.00    -0.730 N 
ATOM      9  H   LIG    1        0.002  -0.004   0.002  0.00  0.00    +0.400 HD
ATOM     10  O   LIG    1       -1.204   2.837   0.023  0.00  0.00    -0.510 OA
BRANCH   8  11
ATOM     11  C   LIG    1        1.248   1.716  -0.001  0.00  0.00    +0.240 C 
ATOM     12  C   LIG    1        1.624   2.074  -1.443  0.00  0.00    +0.000 C 
ATOM     13  C   LIG    1        2.893   2.926  -1.408  0.00  0.00    +0.010 C 
ATOM     14  C   LIG    1        4.034   2.192  -0.747  0.00  0.00    -0.020 C 
ATOM     15  C   LIG    1        4.475   0.947  -1.538  0.00  0.00    +0.010 C 
ATOM     16  C   LIG    1        5.283   0.130  -0.503  0.00  0.00    -0.010 C 
ATOM     17  C   LIG    1        4.800   0.582   0.888  0.00  0.00    +0.010 C 
ATOM     18  C   LIG    1        3.680   1.629   0.641  0.00  0.00    +0.000 C 
ATOM     19  C   LIG    1        2.360   0.855   0.592  0.00  0.00    +0.020 C 
ENDBRANCH   8  11
ENDBRANCH   1   7
BRANCH   1  20
ATOM     20  C   LIG    1       -2.785   0.369   1.438  0.00  0.00    +0.130 C 
BRANCH  20  21
ATOM     21  C   LIG    1       -4.013  -0.505   1.419  0.00  0.00    -0.170 A 
ATOM     22  C   LIG    1       -5.273  -0.116   1.671  0.00  0.00    +0.220 A 
ATOM     23  N   LIG    1       -6.122  -1.184   1.557  0.00  0.00    -0.590 N 
ATOM     24  H   LIG    1       -7.082  -1.149   1.690  0.00  0.00    +0.420 HD
ATOM     25  C   LIG    1       -5.410  -2.316   1.230  0.00  0.00    +0.100 A 
ATOM     26  C   LIG    1       -5.767  -3.641   1.005  0.00  0.00    -0.010 A 
ATOM     27  C   LIG    1       -4.798  -4.566   0.686  0.00  0.00    +0.020 A 
ATOM     28  C   LIG    1       -3.465  -4.191   0.588  0.00  0.00    -0.020 A 
ATOM     29  C   LIG    1       -3.091  -2.894   0.805  0.00  0.00    +0.050 A 
ATOM     30  C   LIG    1       -4.057  -1.940   1.129  0.00  0.00    -0.100 A 
ENDBRANCH  20  21
ENDBRANCH   1  20
TORSDOF 5
