REMARK  Name = ZINCrH000004tW8s.0
REMARK                            x       y       z     vdW  Elec       q    Type
REMARK                         _______ _______ _______ _____ _____    ______ ____
ROOT
ATOM      1  O   LIG    1       -4.706  -2.509   2.376  0.00  0.00    -0.530 OA
ATOM      2  C   LIG    1       -5.412  -2.871   1.459  0.00  0.00    +0.510 C 
ATOM      3  N   LIG    1       -6.582  -3.490   1.713  0.00  0.00    -0.730 N 
ATOM      4  H   LIG    1       -7.147  -3.780   0.980  0.00  0.00    +0.400 HD
ENDROOT
BRANCH   3   5
ATOM      5  C   LIG    1       -7.001  -3.725   3.097  0.00  0.00    +0.240 C 
ATOM      6  C   LIG    1       -6.372  -5.023   3.607  0.00  0.00    +0.020 C 
ATOM      7  C   LIG    1       -6.830  -6.190   2.730  0.00  0.00    +0.000 C 
ATOM      8  C   LIG    1       -8.354  -6.305   2.789  0.00  0.00    +0.180 C 
ATOM      9  C   LIG    1       -8.983  -5.007   2.279  0.00  0.00    +0.050 C 
ATOM     10  C   LIG    1       -8.525  -3.839   3.156  0.00  0.00    +0.040 C 
BRANCH   8  11
ATOM     11  C   LIG    1       -8.805  -7.455   1.926  0.00  0.00    -0.110 A 
ATOM     12  C   LIG    1       -9.110  -7.241   0.594  0.00  0.00    +0.010 A 
ATOM     13  C   LIG    1       -9.519  -8.297  -0.199  0.00  0.00    +0.000 A 
ATOM     14  C   LIG    1       -9.634  -9.564   0.342  0.00  0.00    +0.000 A 
ATOM     15  C   LIG    1       -9.335  -9.776   1.675  0.00  0.00    +0.000 A 
ATOM     16  C   LIG    1       -8.921  -8.722   2.467  0.00  0.00    +0.010 A 
ENDBRANCH   8  11
BRANCH   8  17
ATOM     17  O   LIG    1       -8.763  -6.534   4.139  0.00  0.00    -0.550 OA
ATOM     18  H   LIG    1       -8.401  -7.342   4.528  0.00  0.00    +0.380 HD
ENDBRANCH   8  17
ENDBRANCH   3   5
BRANCH   2  19
ATOM     19  C   LIG    1       -4.981  -2.629   0.035  0.00  0.00    +0.100 C 
BRANCH  19  20
ATOM     20  C   LIG    1       -3.648  -1.927   0.026  0.00  0.00    -0.090 A 
ATOM     21  C   LIG    1       -2.479  -2.665   0.011  0.00  0.00    +0.060 A 
ATOM     22  C   LIG    1       -1.255  -2.024   0.003  0.00  0.00    +0.010 A 
ATOM     23  C   LIG    1       -1.200  -0.637   0.010  0.00  0.00    +0.110 A 
ATOM     24  C   LIG    1       -2.374   0.101   0.031  0.00  0.00    -0.060 A 
ATOM     25  C   LIG    1       -3.595  -0.545   0.034  0.00  0.00    +0.060 A 
BRANCH  23  26
ATOM     26  O   LIG    1        0.002  -0.004   0.002  0.00  0.00    -0.320 OA
BRANCH  26  27
ATOM     27  C   LIG    1       -0.017   1.425   0.010  0.00  0.00    +0.590 C 
ATOM     28  F   LIG    1       -0.672   1.876   1.161  0.00  0.00    -0.200 F 
ATOM     29  F   LIG    1       -0.694   1.888  -1.123  0.00  0.00    -0.200 F 
ENDBRANCH  26  27
ENDBRANCH  23  26
ENDBRANCH  19  20
ENDBRANCH   2  19
TORSDOF 7
