REMARK  Name = ZINCrH000004srKe.1
REMARK                            x       y       z     vdW  Elec       q    Type
REMARK                         _______ _______ _______ _____ _____    ______ ____
ROOT
ATOM      1  C   LIG    1       -3.674  -1.718  -1.912  0.00  0.00    +0.520 C 
ATOM      2  N   LIG    1       -3.999  -2.229  -3.117  0.00  0.00    -0.610 N 
ATOM      3  C   LIG    1       -3.296  -1.796  -4.334  0.00  0.00    +0.280 C 
ATOM      4  C   LIG    1       -2.818  -3.049  -5.085  0.00  0.00    +0.170 C 
ATOM      5  N   LIG    1       -3.962  -3.943  -5.313  0.00  0.00    -0.530 NA
ATOM      6  C   LIG    1       -4.525  -4.421  -4.044  0.00  0.00    +0.160 C 
ATOM      7  C   LIG    1       -5.069  -3.229  -3.249  0.00  0.00    +0.290 C 
ATOM      8  O   LIG    1       -4.268  -2.082  -0.919  0.00  0.00    -0.540 OA
ENDROOT
BRANCH   1   9
ATOM      9  C   LIG    1       -2.574  -0.694  -1.800  0.00  0.00    +0.060 C 
BRANCH   9  10
ATOM     10  C   LIG    1       -2.409  -0.282  -0.335  0.00  0.00    +0.210 C 
BRANCH  10  15
ATOM     11  C   LIG    1        0.012   4.102  -0.185  0.00  0.00    +0.160 C 
ATOM     12  C   LIG    1       -0.263   2.620  -0.156  0.00  0.00    -0.020 A 
ATOM     13  C   LIG    1        0.648   1.649   0.021  0.00  0.00    -0.050 A 
ATOM     14  O   LIG    1       -0.012   0.475  -0.021  0.00  0.00    -0.200 OA
ATOM     15  C   LIG    1       -1.309   0.742  -0.223  0.00  0.00    +0.190 A 
ATOM     16  C   LIG    1        2.129   1.836   0.228  0.00  0.00    +0.190 C 
ATOM     17  N   LIG    1       -1.463   2.033  -0.304  0.00  0.00    -0.470 NA
ENDBRANCH  10  15
ENDBRANCH   9  10
ENDBRANCH   1   9
BRANCH   5  18
ATOM     18  C   LIG    1       -3.586  -5.068  -6.180  0.00  0.00    +0.220 C 
BRANCH  18  19
ATOM     19  C   LIG    1       -4.777  -5.490  -7.000  0.00  0.00    -0.070 A 
ATOM     20  C   LIG    1       -6.056  -5.281  -6.520  0.00  0.00    +0.020 A 
ATOM     21  C   LIG    1       -7.149  -5.663  -7.275  0.00  0.00    +0.000 A 
ATOM     22  C   LIG    1       -6.963  -6.264  -8.505  0.00  0.00    +0.000 A 
ATOM     23  C   LIG    1       -5.684  -6.478  -8.984  0.00  0.00    +0.000 A 
ATOM     24  C   LIG    1       -4.591  -6.091  -8.231  0.00  0.00    +0.010 A 
ENDBRANCH  18  19
BRANCH  18  25
ATOM     25  C   LIG    1       -3.119  -6.242  -5.317  0.00  0.00    -0.040 C 
ATOM     26  C   LIG    1       -1.829  -5.859  -4.589  0.00  0.00    +0.020 C 
ATOM     27  C   LIG    1       -2.861  -7.459  -6.208  0.00  0.00    +0.010 C 
ENDBRANCH  18  25
ENDBRANCH   5  18
TORSDOF 6
