REMARK  Name = ZINCrD000000B3G3.0
REMARK                            x       y       z     vdW  Elec       q    Type
REMARK                         _______ _______ _______ _____ _____    ______ ____
ROOT
ATOM      1  O   LIG    1       -3.191   5.993   2.518  0.00  0.00    -0.570 OA
ATOM      2  C   LIG    1       -2.718   5.110   3.207  0.00  0.00    +0.700 C 
ATOM      3  N   LIG    1       -2.202   4.007   2.630  0.00  0.00    -0.680 N 
ATOM      4  H   LIG    1       -1.884   3.275   3.181  0.00  0.00    +0.410 HD
ATOM      5  N   LIG    1       -2.711   5.235   4.549  0.00  0.00    -0.740 N 
ATOM      6  H   LIG    1       -2.334   4.531   5.100  0.00  0.00    +0.400 HD
ENDROOT
BRANCH   3   7
ATOM      7  C   LIG    1       -2.125   3.918   1.236  0.00  0.00    +0.210 A 
ATOM      8  C   LIG    1       -3.114   4.490   0.445  0.00  0.00    +0.000 A 
ATOM      9  C   LIG    1       -3.029   4.398  -0.931  0.00  0.00    +0.070 A 
ATOM     10  C   LIG    1       -1.972   3.739  -1.523  0.00  0.00    -0.020 A 
ATOM     11  C   LIG    1       -0.976   3.157  -0.740  0.00  0.00    +0.120 A 
ATOM     12  O   LIG    1        0.134   2.463  -1.114  0.00  0.00    -0.300 OA
ATOM     13  C   LIG    1        1.072   2.446  -0.025  0.00  0.00    +0.240 C 
ATOM     14  C   LIG    1        0.160   2.568   1.219  0.00  0.00    +0.080 C 
ATOM     15  C   LIG    1       -1.063   3.260   0.641  0.00  0.00    -0.210 A 
ENDBRANCH   3   7
BRANCH   5  16
ATOM     16  C   LIG    1       -3.272   6.434   5.177  0.00  0.00    +0.280 C 
BRANCH  16  17
ATOM     17  C   LIG    1       -3.139   6.324   6.697  0.00  0.00    +0.100 C 
BRANCH  17  18
ATOM     18  C   LIG    1       -3.716   7.557   7.342  0.00  0.00    -0.150 A 
ATOM     19  C   LIG    1       -3.038   8.653   7.719  0.00  0.00    +0.250 A 
ATOM     20  N   LIG    1       -3.897   9.567   8.268  0.00  0.00    -0.580 N 
ATOM     21  H   LIG    1       -3.639  10.436   8.612  0.00  0.00    +0.430 HD
ATOM     22  C   LIG    1       -5.180   9.069   8.257  0.00  0.00    +0.140 A 
ATOM     23  C   LIG    1       -6.406   9.571   8.681  0.00  0.00    +0.030 A 
ATOM     24  C   LIG    1       -7.548   8.818   8.517  0.00  0.00    +0.110 A 
ATOM     25  C   LIG    1       -7.487   7.556   7.942  0.00  0.00    -0.070 A 
ATOM     26  C   LIG    1       -6.293   7.042   7.522  0.00  0.00    +0.160 A 
ATOM     27  C   LIG    1       -5.125   7.791   7.671  0.00  0.00    -0.110 A 
BRANCH  25  28
ATOM     28  N   LIG    1       -8.726   6.761   7.784  0.00  0.00    +0.030 N 
ATOM     29  O   LIG    1       -9.793   7.215   8.157  0.00  0.00    -0.160 OA
ATOM     30  O   LIG    1       -8.678   5.653   7.281  0.00  0.00    -0.170 OA
ENDBRANCH  25  28
ENDBRANCH  17  18
ENDBRANCH  16  17
ENDBRANCH   5  16
TORSDOF 5
