REMARK  Name = ZINCrH000004m3W4.0
REMARK                            x       y       z     vdW  Elec       q    Type
REMARK                         _______ _______ _______ _____ _____    ______ ____
ROOT
ATOM      1  C   LIG    1        0.784   0.348  -1.265  0.00  0.00    +0.510 C 
ATOM      2  N   LIG    1        0.192   0.718  -0.112  0.00  0.00    -0.720 N 
ATOM      3  H   LIG    1        0.004   0.055   0.572  0.00  0.00    +0.410 HD
ATOM      4  O   LIG    1        1.018   1.177  -2.119  0.00  0.00    -0.540 OA
ENDROOT
BRANCH   1   5
ATOM      5  C   LIG    1        1.155  -1.094  -1.492  0.00  0.00    +0.070 C 
BRANCH   5   6
ATOM      6  C   LIG    1        1.807  -1.242  -2.869  0.00  0.00    +0.120 C 
BRANCH   6   9
ATOM      7  C   LIG    1        1.614  -4.873  -3.900  0.00  0.00    +0.170 A 
ATOM      8  C   LIG    1        1.274  -3.545  -3.689  0.00  0.00    -0.050 A 
ATOM      9  C   LIG    1        2.179  -2.685  -3.096  0.00  0.00    -0.010 A 
ATOM     10  C   LIG    1        3.426  -3.144  -2.718  0.00  0.00    -0.050 A 
ATOM     11  C   LIG    1        3.768  -4.473  -2.922  0.00  0.00    +0.170 A 
ATOM     12  C   LIG    1        2.862  -5.338  -3.517  0.00  0.00    -0.170 A 
BRANCH   7  14
ATOM     13  C   LIG    1        1.141  -7.072  -4.671  0.00  0.00    +0.250 C 
ATOM     14  O   LIG    1        0.724  -5.718  -4.484  0.00  0.00    -0.310 OA
ENDBRANCH   7  14
BRANCH  11  15
ATOM     15  O   LIG    1        4.993  -4.926  -2.545  0.00  0.00    -0.310 OA
ATOM     16  C   LIG    1        5.280  -6.303  -2.792  0.00  0.00    +0.250 C 
ENDBRANCH  11  15
ENDBRANCH   6   9
ENDBRANCH   5   6
ENDBRANCH   1   5
BRANCH   2  17
ATOM     17  C   LIG    1       -0.169   2.120   0.110  0.00  0.00    +0.290 C 
BRANCH  17  18
ATOM     18  C   LIG    1       -0.911   2.252   1.441  0.00  0.00    +0.190 C 
BRANCH  18  19
ATOM     19  C   LIG    1        0.028   1.928   2.574  0.00  0.00    -0.070 A 
ATOM     20  C   LIG    1        0.061   0.652   3.102  0.00  0.00    +0.050 A 
ATOM     21  C   LIG    1        0.926   0.354   4.139  0.00  0.00    +0.010 A 
ATOM     22  C   LIG    1        1.752   1.335   4.654  0.00  0.00    +0.020 A 
ATOM     23  C   LIG    1        1.717   2.614   4.130  0.00  0.00    +0.020 A 
ATOM     24  C   LIG    1        0.855   2.911   3.090  0.00  0.00    -0.030 A 
ATOM     25 CL   LIG    1        0.810   4.517   2.432  0.00  0.00    -0.070 Cl
ENDBRANCH  18  19
BRANCH  18  26
ATOM     26  N   LIG    1       -2.046   1.318   1.464  0.00  0.00    -0.540 NA
ATOM     27  C   LIG    1       -2.844   1.429   0.236  0.00  0.00    +0.200 C 
ATOM     28  C   LIG    1       -2.879   1.532   2.655  0.00  0.00    +0.190 C 
ENDBRANCH  18  26
ENDBRANCH  17  18
ENDBRANCH   2  17
TORSDOF 9
