REMARK  Name = ZINCrD00000hQ5xB.0
REMARK                            x       y       z     vdW  Elec       q    Type
REMARK                         _______ _______ _______ _____ _____    ______ ____
ROOT
ATOM      1  C   LIG    1       -4.622   1.391  -1.069  0.00  0.00    +0.570 C 
ATOM      2  N   LIG    1       -3.562   1.903  -0.413  0.00  0.00    -0.600 N 
ATOM      3  C   LIG    1       -3.643   3.200   0.278  0.00  0.00    +0.220 C 
ATOM      4  C   LIG    1       -2.677   4.162  -0.403  0.00  0.00    +0.070 C 
ATOM      5  C   LIG    1       -1.332   3.518  -0.616  0.00  0.00    -0.050 A 
ATOM      6  C   LIG    1       -0.246   4.354  -0.837  0.00  0.00    -0.020 A 
ATOM      7  C   LIG    1        1.013   3.825  -1.064  0.00  0.00    +0.110 A 
ATOM      8  C   LIG    1        1.190   2.450  -1.072  0.00  0.00    -0.010 A 
ATOM      9  C   LIG    1        0.111   1.621  -0.846  0.00  0.00    +0.040 A 
ATOM     10  C   LIG    1       -1.151   2.152  -0.618  0.00  0.00    -0.100 A 
ATOM     11  C   LIG    1       -5.070   3.744   0.192  0.00  0.00    +0.050 C 
ATOM     12  C   LIG    1       -2.282   1.188  -0.359  0.00  0.00    +0.280 C 
ATOM     13  C   LIG    1       -2.108   0.560   1.025  0.00  0.00    +0.050 C 
ATOM     14  O   LIG    1       -5.694   1.963  -1.031  0.00  0.00    -0.520 OA
ENDROOT
BRANCH   1  18
ATOM     15  C   LIG    1       -4.219  -2.219  -3.271  0.00  0.00    -0.090 A 
ATOM     16  C   LIG    1       -3.718  -2.137  -1.984  0.00  0.00    +0.030 A 
ATOM     17  C   LIG    1       -3.845  -0.968  -1.264  0.00  0.00    +0.040 A 
ATOM     18  C   LIG    1       -4.482   0.135  -1.835  0.00  0.00    -0.120 A 
ATOM     19  C   LIG    1       -4.991   0.044  -3.132  0.00  0.00    +0.060 A 
ATOM     20  C   LIG    1       -4.852  -1.130  -3.844  0.00  0.00    +0.030 A 
BRANCH  15  21
ATOM     21  C   LIG    1       -4.076  -3.500  -4.052  0.00  0.00    +0.320 C 
BRANCH  21  23
ATOM     22  C   LIG    1       -5.331  -5.559  -4.403  0.00  0.00    +0.540 C 
ATOM     23  N   LIG    1       -5.241  -4.354  -3.805  0.00  0.00    -0.720 N 
ATOM     24  H   LIG    1       -5.946  -4.053  -3.212  0.00  0.00    +0.400 HD
ATOM     25  O   LIG    1       -4.446  -5.937  -5.147  0.00  0.00    -0.540 OA
BRANCH  22  27
ATOM     26  C   LIG    1       -6.589  -7.606  -4.745  0.00  0.00    +0.150 C 
ATOM     27  C   LIG    1       -6.500  -6.417  -4.155  0.00  0.00    -0.090 C 
ENDBRANCH  22  27
ENDBRANCH  21  23
ENDBRANCH  15  21
ENDBRANCH   1  18
BRANCH   7  28
ATOM     28  O   LIG    1        2.071   4.651  -1.279  0.00  0.00    -0.500 OA
ATOM     29  H   LIG    1        2.214   4.873  -2.209  0.00  0.00    +0.390 HD
ENDBRANCH   7  28
TORSDOF 5
