REMARK  Name = ZINCqH00000053Es.0
REMARK                            x       y       z     vdW  Elec       q    Type
REMARK                         _______ _______ _______ _____ _____    ______ ____
ROOT
ATOM      1  C   LIG    1       -0.174  -4.602   3.095  0.00  0.00    +0.070 A 
ATOM      2  N   LIG    1       -0.805  -3.643   3.706  0.00  0.00    -0.250 NA
ATOM      3  N   LIG    1       -0.476  -2.436   3.071  0.00  0.00    -0.510 NA
ATOM      4  C   LIG    1        0.384  -2.752   2.052  0.00  0.00    +0.440 A 
ATOM      5  N   LIG    1        0.932  -1.916   1.211  0.00  0.00    -0.650 NA
ATOM      6  O   LIG    1        0.555  -4.090   2.079  0.00  0.00    -0.290 OA
ENDROOT
BRANCH   5   7
ATOM      7  C   LIG    1        0.642  -0.483   1.308  0.00  0.00    +0.220 C 
ATOM      8  C   LIG    1        0.002  -0.004   0.002  0.00  0.00    +0.000 C 
ATOM      9  C   LIG    1       -0.019   1.530   0.011  0.00  0.00    +0.220 C 
ATOM     10  O   LIG    1        1.331   1.998   0.000  0.00  0.00    -0.320 OA
ATOM     11  C   LIG    1        2.196   1.461   0.899  0.00  0.00    +0.130 A 
ATOM     12  C   LIG    1        3.387   2.132   1.156  0.00  0.00    -0.040 A 
ATOM     13  C   LIG    1        4.295   1.613   2.056  0.00  0.00    +0.020 A 
ATOM     14  C   LIG    1        4.022   0.423   2.705  0.00  0.00    -0.040 A 
ATOM     15  C   LIG    1        2.839  -0.245   2.453  0.00  0.00    +0.060 A 
ATOM     16  C   LIG    1        1.923   0.272   1.552  0.00  0.00    -0.130 A 
ENDBRANCH   5   7
BRANCH   1  20
ATOM     17  C   LIG    1       -0.388  -8.718   4.124  0.00  0.00    -0.200 A 
ATOM     18  C   LIG    1       -1.108  -7.788   4.853  0.00  0.00    +0.040 A 
ATOM     19  C   LIG    1       -1.043  -6.450   4.524  0.00  0.00    +0.040 A 
ATOM     20  C   LIG    1       -0.249  -6.035   3.453  0.00  0.00    +0.090 A 
ATOM     21  C   LIG    1        0.470  -6.979   2.719  0.00  0.00    +0.030 A 
ATOM     22  C   LIG    1        0.402  -8.314   3.062  0.00  0.00    +0.050 A 
BRANCH  17  23
ATOM     23  C   LIG    1       -0.463 -10.178   4.489  0.00  0.00    +0.310 C 
BRANCH  23  25
ATOM     24  C   LIG    1       -1.561 -12.257   4.013  0.00  0.00    +0.310 C 
ATOM     25  N   LIG    1       -1.562 -10.812   3.749  0.00  0.00    -0.390 N 
ATOM     26  C   LIG    1       -2.842 -10.236   4.184  0.00  0.00    +0.320 C 
ATOM     27  H   LIG    1       -1.439 -10.650   2.761  0.00  0.00    +0.430 HD
ENDBRANCH  23  25
ENDBRANCH  17  23
ENDBRANCH   1  20
TORSDOF 4
