REMARK  Name = ZINCrD0000075lP8.1
REMARK                            x       y       z     vdW  Elec       q    Type
REMARK                         _______ _______ _______ _____ _____    ______ ____
ROOT
ATOM      1  C   LIG    1       -1.302  -1.880  -0.665  0.00  0.00    +0.530 C 
ATOM      2  N   LIG    1       -1.203  -0.718   0.010  0.00  0.00    -0.670 N 
ATOM      3  H   LIG    1       -1.968  -0.372   0.496  0.00  0.00    +0.410 HD
ATOM      4  O   LIG    1       -0.324  -2.354  -1.203  0.00  0.00    -0.500 OA
ENDROOT
BRANCH   2   5
ATOM      5  C   LIG    1        0.005  -0.009   0.009  0.00  0.00    +0.160 A 
ATOM      6  C   LIG    1       -0.009   1.385   0.013  0.00  0.00    +0.000 A 
ATOM      7  C   LIG    1        1.159   2.091   0.013  0.00  0.00    +0.100 A 
ATOM      8  C   LIG    1        2.383   1.417   0.009  0.00  0.00    +0.040 A 
ATOM      9  N   LIG    1        3.678   1.829   0.008  0.00  0.00    -0.480 NA
ATOM     10  C   LIG    1        4.466   0.794   0.004  0.00  0.00    +0.290 A 
ATOM     11  N   LIG    1        3.733  -0.353   0.002  0.00  0.00    -0.580 N 
ATOM     12  H   LIG    1        4.081  -1.258  -0.001  0.00  0.00    +0.430 HD
ATOM     13  C   LIG    1        2.401   0.012   0.005  0.00  0.00    +0.070 A 
ATOM     14  C   LIG    1        1.207  -0.695   0.005  0.00  0.00    +0.030 A 
BRANCH  10  15
ATOM     15  C   LIG    1        5.972   0.857   0.002  0.00  0.00    +0.250 C 
ATOM     16  C   LIG    1        6.474   1.712  -1.182  0.00  0.00    +0.030 C 
ATOM     17  C   LIG    1        7.754   0.986  -1.653  0.00  0.00    +0.000 C 
ATOM     18  C   LIG    1        7.875  -0.221  -0.697  0.00  0.00    +0.220 C 
ATOM     19  O   LIG    1        6.529  -0.456  -0.228  0.00  0.00    -0.380 OA
ENDBRANCH  10  15
ENDBRANCH   2   5
BRANCH   1  20
ATOM     20  C   LIG    1       -2.628  -2.591  -0.751  0.00  0.00    +0.250 C 
BRANCH  20  21
ATOM     21  C   LIG    1       -2.872  -3.354   0.525  0.00  0.00    -0.170 A 
ATOM     22  C   LIG    1       -2.539  -4.693   0.604  0.00  0.00    +0.100 A 
ATOM     23  C   LIG    1       -2.758  -5.393   1.775  0.00  0.00    +0.000 A 
ATOM     24  C   LIG    1       -3.321  -4.757   2.868  0.00  0.00    +0.140 A 
ATOM     25  C   LIG    1       -3.660  -3.417   2.789  0.00  0.00    -0.030 A 
ATOM     26  F   LIG    1       -3.539  -5.442   4.011  0.00  0.00    -0.130 F 
ATOM     27  C   LIG    1       -3.436  -2.715   1.617  0.00  0.00    +0.140 A 
ATOM     28  F   LIG    1       -3.765  -1.407   1.539  0.00  0.00    -0.130 F 
ENDBRANCH  20  21
BRANCH  20  29
ATOM     29  N   LIG    1       -2.611  -3.525  -1.885  0.00  0.00    -0.820 NA
ATOM     30  H   LIG    1       -3.510  -3.967  -2.003  0.00  0.00    +0.360 HD
ATOM     31  H   LIG    1       -1.881  -4.213  -1.775  0.00  0.00    +0.360 HD
ENDBRANCH  20  29
ENDBRANCH   1  20
TORSDOF 5
