REMARK  Name = ZINCpk000000mNZH.0
REMARK                            x       y       z     vdW  Elec       q    Type
REMARK                         _______ _______ _______ _____ _____    ______ ____
ROOT
ATOM      1  C   LIG    1       -4.896   2.255  -0.162  0.00  0.00    +0.210 C 
ENDROOT
BRANCH   1   2
ATOM      2  O   LIG    1       -4.409   3.412  -0.844  0.00  0.00    -0.540 OA
ATOM      3  H   LIG    1       -4.683   4.248  -0.444  0.00  0.00    +0.380 HD
ENDBRANCH   1   2
BRANCH   1   4
ATOM      4  C   LIG    1       -6.426   2.272  -0.156  0.00  0.00    +0.170 C 
BRANCH   4   5
ATOM      5  O   LIG    1       -6.909   2.153  -1.496  0.00  0.00    -0.290 OA
BRANCH   5   9
ATOM      6  C   LIG    1      -11.006   2.152  -2.017  0.00  0.00    -0.070 A 
ATOM      7  C   LIG    1      -10.470   2.263  -0.748  0.00  0.00    +0.020 A 
ATOM      8  C   LIG    1       -9.098   2.259  -0.571  0.00  0.00    -0.040 A 
ATOM      9  C   LIG    1       -8.258   2.153  -1.668  0.00  0.00    +0.100 A 
ATOM     10  C   LIG    1       -8.798   2.040  -2.946  0.00  0.00    +0.100 A 
ATOM     11  C   LIG    1      -10.173   2.040  -3.116  0.00  0.00    -0.030 A 
BRANCH  10  12
ATOM     12  O   LIG    1       -7.978   1.931  -4.025  0.00  0.00    -0.300 OA
ATOM     13  C   LIG    1       -8.602   1.819  -5.305  0.00  0.00    +0.240 C 
ENDBRANCH  10  12
BRANCH   6  14
ATOM     14  C   LIG    1      -12.501   2.151  -2.204  0.00  0.00    +0.110 C 
BRANCH  14  16
ATOM     15  C   LIG    1      -13.960   0.424  -1.283  0.00  0.00    +0.010 C 
ATOM     16  C   LIG    1      -13.016   0.737  -2.135  0.00  0.00    -0.040 C 
ENDBRANCH  14  16
ENDBRANCH   6  14
ENDBRANCH   5   9
ENDBRANCH   4   5
ENDBRANCH   1   4
BRANCH   1  17
ATOM     17  C   LIG    1       -4.381   2.256   1.279  0.00  0.00    +0.310 C 
BRANCH  17  18
ATOM     18  N   LIG    1       -2.916   2.239   1.273  0.00  0.00    -0.570 N 
ATOM     19  C   LIG    1       -2.151   3.337   1.263  0.00  0.00    +0.710 C 
ATOM     20  N   LIG    1       -0.837   3.048   1.259  0.00  0.00    -0.720 N 
ATOM     21  H   LIG    1       -0.104   3.684   1.252  0.00  0.00    +0.440 HD
ATOM     22  C   LIG    1       -0.729   1.579   1.267  0.00  0.00    +0.120 C 
ATOM     23  C   LIG    1        0.002   1.100   2.523  0.00  0.00    +0.090 C 
ATOM     24  C   LIG    1       -0.013   1.086   0.008  0.00  0.00    +0.090 C 
ATOM     25  O   LIG    1       -2.594   4.469   1.259  0.00  0.00    -0.540 OA
ATOM     26  C   LIG    1       -2.171   1.112   1.278  0.00  0.00    +0.530 C 
ATOM     27  O   LIG    1       -2.570  -0.033   1.287  0.00  0.00    -0.460 OA
ENDBRANCH  17  18
ENDBRANCH   1  17
TORSDOF 9
