REMARK  Name = ZINCb70000002rbC.0
REMARK                            x       y       z     vdW  Elec       q    Type
REMARK                         _______ _______ _______ _____ _____    ______ ____
ROOT
ATOM      1  N   LIG    1        0.002  -0.004   0.002  0.00  0.00    -0.520 NA
ATOM      2  C   LIG    1       -0.018   1.466   0.010  0.00  0.00    +0.210 C 
ATOM      3  C   LIG    1        1.419   1.992  -0.001  0.00  0.00    +0.280 C 
ATOM      4  N   LIG    1        2.134   1.489   1.179  0.00  0.00    -0.390 N 
ATOM      5  C   LIG    1        2.167   0.021   1.144  0.00  0.00    +0.280 C 
ATOM      6  C   LIG    1        3.508   2.009   1.178  0.00  0.00    +0.310 C 
ATOM      7  H   LIG    1        1.660   1.794   2.016  0.00  0.00    +0.420 HD
ATOM      8  C   LIG    1        0.737  -0.522   1.165  0.00  0.00    +0.200 C 
ENDROOT
BRANCH   1  10
ATOM      9  C   LIG    1       -1.298  -2.072  -0.178  0.00  0.00    +0.090 C 
ATOM     10  C   LIG    1       -1.361  -0.549  -0.045  0.00  0.00    +0.320 C 
BRANCH  10  11
ATOM     11  C   LIG    1       -2.075  -0.194   1.192  0.00  0.00    +0.150 C 
ATOM     12  N   LIG    1       -2.625   0.081   2.148  0.00  0.00    -0.390 NA
ENDBRANCH  10  11
ENDBRANCH   1  10
TORSDOF 2
