REMARK  Name = ZINCqH0000006MKU.0
REMARK                            x       y       z     vdW  Elec       q    Type
REMARK                         _______ _______ _______ _____ _____    ______ ____
ROOT
ATOM      1  C   LIG    1       -1.229   2.129   0.019  0.00  0.00    +0.480 A 
ATOM      2  N   LIG    1       -1.161   3.452   0.031  0.00  0.00    -0.580 NA
ATOM      3  C   LIG    1        0.010   4.087   0.023  0.00  0.00    +0.410 A 
ATOM      4  N   LIG    1        1.166   3.451   0.009  0.00  0.00    -0.540 NA
ATOM      5  C   LIG    1        1.205   2.112   0.002  0.00  0.00    +0.190 A 
ATOM      6  C   LIG    1        2.416   1.406  -0.014  0.00  0.00    +0.030 A 
ATOM      7  C   LIG    1        2.399   0.043  -0.021  0.00  0.00    +0.070 A 
ATOM      8  C   LIG    1        1.198  -0.660  -0.013  0.00  0.00    +0.000 A 
ATOM      9  C   LIG    1        0.002  -0.004   0.002  0.00  0.00    +0.060 A 
ATOM     10  C   LIG    1       -0.017   1.394   0.010  0.00  0.00    -0.190 A 
ENDROOT
BRANCH   3  11
ATOM     11  C   LIG    1        0.014   5.570   0.031  0.00  0.00    +0.000 A 
ATOM     12  C   LIG    1       -1.183   6.292   0.040  0.00  0.00    +0.030 A 
ATOM     13  C   LIG    1       -1.134   7.671   0.051  0.00  0.00    +0.250 A 
ATOM     14  N   LIG    1        0.021   8.307   0.044  0.00  0.00    -0.470 NA
ATOM     15  C   LIG    1        1.173   7.665   0.031  0.00  0.00    +0.250 A 
ATOM     16  C   LIG    1        1.215   6.285   0.023  0.00  0.00    +0.030 A 
ENDBRANCH   3  11
BRANCH   1  17
ATOM     17  N   LIG    1       -2.447   1.484   0.022  0.00  0.00    -0.690 N 
ATOM     18  H   LIG    1       -2.483   0.515   0.017  0.00  0.00    +0.410 HD
BRANCH  17  19
ATOM     19  C   LIG    1       -3.688   2.263   0.032  0.00  0.00    +0.350 C 
BRANCH  19  22
ATOM     20  C   LIG    1       -6.505   0.017   1.184  0.00  0.00    +0.320 A 
ATOM     21  C   LIG    1       -5.418   0.880   1.223  0.00  0.00    -0.030 A 
ATOM     22  C   LIG    1       -4.869   1.326   0.033  0.00  0.00    -0.040 A 
ATOM     23  C   LIG    1       -5.434   0.895  -1.159  0.00  0.00    -0.050 A 
ATOM     24  C   LIG    1       -6.512   0.033  -1.123  0.00  0.00    +0.300 A 
ATOM     25  N   LIG    1       -7.013  -0.375   0.028  0.00  0.00    -0.530 NA
BRANCH  20  27
ATOM     26  C   LIG    1       -8.169  -1.312   2.237  0.00  0.00    +0.260 C 
ATOM     27  O   LIG    1       -7.053  -0.427   2.344  0.00  0.00    -0.310 OA
ENDBRANCH  20  27
ENDBRANCH  19  22
ENDBRANCH  17  19
ENDBRANCH   1  17
TORSDOF 5
