REMARK  Name = ZINCpk00001AZivs.0
REMARK                            x       y       z     vdW  Elec       q    Type
REMARK                         _______ _______ _______ _____ _____    ______ ____
ROOT
ATOM      1  C   LIG    1        4.245  -0.198   0.457  0.00  0.00    +0.170 A 
ATOM      2  N   LIG    1        3.290  -1.082   0.526  0.00  0.00    -0.270 NA
ATOM      3  N   LIG    1        2.149  -0.511   0.373  0.00  0.00    -0.320 NA
ATOM      4  C   LIG    1        2.316   0.778   0.197  0.00  0.00    +0.390 A 
ATOM      5  N   LIG    1        3.658   1.018   0.240  0.00  0.00    -0.470 N 
ENDROOT
BRANCH   1   9
ATOM      6  O   LIG    1        7.861  -2.799   2.252  0.00  0.00    -0.530 OA
ATOM      7  C   LIG    1        7.143  -2.203   1.477  0.00  0.00    +0.520 C 
ATOM      8  C   LIG    1        6.030  -1.260   1.877  0.00  0.00    +0.090 C 
ATOM      9  C   LIG    1        5.722  -0.467   0.586  0.00  0.00    +0.100 C 
ATOM     10  C   LIG    1        6.204  -1.446  -0.507  0.00  0.00    +0.290 C 
ATOM     11  N   LIG    1        7.222  -2.283   0.138  0.00  0.00    -0.730 N 
ATOM     12  H   LIG    1        7.868  -2.826  -0.341  0.00  0.00    +0.410 HD
ENDBRANCH   1   9
BRANCH   4  13
ATOM     13  N   LIG    1        1.317   1.718  -0.001  0.00  0.00    -0.420 N 
ATOM     14  C   LIG    1        1.510   2.432  -1.272  0.00  0.00    +0.200 C 
ATOM     15  C   LIG    1        0.240   2.241  -2.116  0.00  0.00    +0.020 C 
ATOM     16  C   LIG    1       -0.830   1.761  -1.117  0.00  0.00    -0.010 C 
ATOM     17  C   LIG    1       -1.246   2.810  -0.076  0.00  0.00    +0.030 C 
ATOM     18  C   LIG    1       -0.983   1.733   1.012  0.00  0.00    +0.050 C 
ATOM     19  C   LIG    1       -0.013   1.086   0.008  0.00  0.00    +0.170 C 
ENDBRANCH   4  13
BRANCH   5  20
ATOM     20  C   LIG    1        4.331   2.310   0.088  0.00  0.00    +0.330 C 
BRANCH  20  21
ATOM     21  C   LIG    1        4.483   2.971   1.460  0.00  0.00    +0.140 C 
ATOM     22  C   LIG    1        5.294   4.261   1.318  0.00  0.00    +0.010 C 
ATOM     23  C   LIG    1        5.390   4.947   2.684  0.00  0.00    +0.010 C 
ATOM     24  C   LIG    1        3.977   5.205   3.215  0.00  0.00    -0.020 C 
ATOM     25  C   LIG    1        3.216   3.877   3.283  0.00  0.00    +0.210 C 
ATOM     26  O   LIG    1        3.191   3.277   1.986  0.00  0.00    -0.360 OA
ENDBRANCH  20  21
ENDBRANCH   5  20
TORSDOF 4
