REMARK  Name = ZINCqH0000002BvS.0
REMARK                            x       y       z     vdW  Elec       q    Type
REMARK                         _______ _______ _______ _____ _____    ______ ____
ROOT
ATOM      1  N   LIG    1        0.814   7.327   0.854  0.00  0.00    -0.610 N 
ATOM      2  C   LIG    1        1.880   7.895   0.257  0.00  0.00    +0.560 C 
ATOM      3  O   LIG    1        2.817   7.207  -0.097  0.00  0.00    -0.520 OA
ENDROOT
BRANCH   2   4
ATOM      4  C   LIG    1        1.910   9.356   0.032  0.00  0.00    -0.120 A 
ATOM      5  C   LIG    1        2.698   9.880  -0.979  0.00  0.00    +0.140 A 
ATOM      6  C   LIG    1        2.721  11.268  -1.188  0.00  0.00    +0.070 A 
ATOM      7  N   LIG    1        3.472  11.805  -2.157  0.00  0.00    -0.420 NA
ATOM      8  C   LIG    1        3.477  13.106  -2.332  0.00  0.00    +0.110 A 
ATOM      9  C   LIG    1        2.705  13.938  -1.516  0.00  0.00    +0.120 A 
ATOM     10  N   LIG    1        1.960  13.434  -0.559  0.00  0.00    -0.430 NA
ATOM     11  C   LIG    1        2.729  15.428  -1.737  0.00  0.00    +0.150 C 
ATOM     12  C   LIG    1        4.324  13.709  -3.423  0.00  0.00    +0.150 C 
ATOM     13  C   LIG    1        1.938  12.112  -0.360  0.00  0.00    +0.090 A 
ATOM     14  C   LIG    1        1.148  11.548   0.658  0.00  0.00    +0.060 A 
ATOM     15  C   LIG    1        1.133  10.203   0.842  0.00  0.00    +0.060 A 
ENDBRANCH   2   4
BRANCH   1  16
ATOM     16  C   LIG    1       -0.346   8.145   1.214  0.00  0.00    +0.260 C 
BRANCH  16  18
ATOM     17  C   LIG    1       -1.589   9.201   3.107  0.00  0.00    +0.020 C 
ATOM     18  C   LIG    1       -0.377   8.347   2.731  0.00  0.00    -0.010 C 
ENDBRANCH  16  18
ENDBRANCH   1  16
BRANCH   1  19
ATOM     19  C   LIG    1        0.816   5.891   1.143  0.00  0.00    +0.310 C 
BRANCH  19  20
ATOM     20  C   LIG    1        0.231   5.130  -0.049  0.00  0.00    +0.090 C 
BRANCH  20  21
ATOM     21  C   LIG    1        0.233   3.652   0.249  0.00  0.00    +0.130 A 
ATOM     22  C   LIG    1       -0.945   2.936   0.157  0.00  0.00    -0.040 A 
ATOM     23  C   LIG    1       -0.932   1.576   0.427  0.00  0.00    +0.060 A 
ATOM     24  C   LIG    1        0.269   0.988   0.791  0.00  0.00    -0.040 A 
ATOM     25  C   LIG    1        1.408   1.768   0.862  0.00  0.00    +0.260 A 
ATOM     26  N   LIG    1        1.359   3.058   0.593  0.00  0.00    -0.480 NA
ENDBRANCH  20  21
ENDBRANCH  19  20
ENDBRANCH   1  19
TORSDOF 6
