REMARK  Name = ZINCrH00000tj1q7.0
REMARK                            x       y       z     vdW  Elec       q    Type
REMARK                         _______ _______ _______ _____ _____    ______ ____
ROOT
ATOM      1  C   LIG    1       -1.805   8.396   0.062  0.00  0.00    +0.550 C 
ATOM      2  N   LIG    1       -0.870   7.425   0.048  0.00  0.00    -0.470 N 
ATOM      3  N   LIG    1       -1.124   6.055   0.044  0.00  0.00    -0.230 NA
ATOM      4  C   LIG    1       -0.065   5.324   0.030  0.00  0.00    +0.140 C 
ATOM      5  C   LIG    1        1.161   6.209   0.028  0.00  0.00    +0.100 C 
ATOM      6  C   LIG    1        0.586   7.639   0.034  0.00  0.00    +0.260 C 
ATOM      7  O   LIG    1       -1.469   9.562   0.063  0.00  0.00    -0.510 OA
ENDROOT
BRANCH   6   8
ATOM      8  C   LIG    1        1.026   8.377   1.272  0.00  0.00    -0.070 A 
ATOM      9  C   LIG    1        2.001   9.321   1.179  0.00  0.00    +0.080 A 
ATOM     10  C   LIG    1        2.414  10.012   2.332  0.00  0.00    +0.080 A 
ATOM     11  N   LIG    1        3.369  10.946   2.272  0.00  0.00    -0.420 NA
ATOM     12  C   LIG    1        3.733  11.575   3.367  0.00  0.00    +0.260 A 
ATOM     13  C   LIG    1        3.134  11.279   4.593  0.00  0.00    +0.260 A 
ATOM     14  N   LIG    1        2.193  10.366   4.676  0.00  0.00    -0.420 NA
ATOM     15  C   LIG    1        1.805   9.712   3.577  0.00  0.00    +0.080 A 
ATOM     16  C   LIG    1        0.801   8.729   3.633  0.00  0.00    +0.060 A 
ATOM     17  C   LIG    1        0.423   8.085   2.495  0.00  0.00    +0.050 A 
ENDBRANCH   6   8
BRANCH   4  18
ATOM     18  C   LIG    1       -0.049   3.849   0.023  0.00  0.00    +0.000 A 
ATOM     19  C   LIG    1        1.166   3.160   0.007  0.00  0.00    +0.000 A 
ATOM     20  C   LIG    1        1.177   1.781   0.000  0.00  0.00    +0.050 A 
ATOM     21  C   LIG    1       -0.013   1.076   0.008  0.00  0.00    -0.060 A 
ATOM     22  C   LIG    1       -1.226   1.751   0.017  0.00  0.00    +0.130 A 
ATOM     23  C   LIG    1       -1.249   3.135   0.031  0.00  0.00    +0.030 A 
BRANCH  22  24
ATOM     24  O   LIG    1       -2.392   1.052   0.019  0.00  0.00    -0.310 OA
ATOM     25  C   LIG    1       -2.294  -0.373   0.011  0.00  0.00    +0.250 C 
ENDBRANCH  22  24
ENDBRANCH   4  18
BRANCH   1  27
ATOM     26  C   LIG    1       -4.110   9.311   0.089  0.00  0.00    +0.050 C 
ATOM     27  C   LIG    1       -3.268   8.034   0.075  0.00  0.00    +0.070 C 
ENDBRANCH   1  27
TORSDOF 4
