REMARK  Name = ZINCrH000004u728.1
REMARK                            x       y       z     vdW  Elec       q    Type
REMARK                         _______ _______ _______ _____ _____    ______ ____
ROOT
ATOM      1  O   LIG    1        6.158   2.758  -5.344  0.00  0.00    -0.590 OA
ATOM      2  C   LIG    1        5.647   3.748  -5.832  0.00  0.00    +0.710 C 
ATOM      3  N   LIG    1        5.863   4.049  -7.128  0.00  0.00    -0.730 N 
ATOM      4  H   LIG    1        5.455   4.839  -7.516  0.00  0.00    +0.400 HD
ATOM      5  N   LIG    1        4.866   4.545  -5.076  0.00  0.00    -0.740 N 
ATOM      6  H   LIG    1        4.459   5.335  -5.464  0.00  0.00    +0.400 HD
ENDROOT
BRANCH   3   7
ATOM      7  C   LIG    1        6.712   3.183  -7.949  0.00  0.00    +0.300 C 
ATOM      8  C   LIG    1        5.867   2.113  -8.681  0.00  0.00    +0.240 C 
ATOM      9  O   LIG    1        6.530   1.997  -9.951  0.00  0.00    -0.300 OA
ATOM     10  C   LIG    1        7.143   3.176 -10.247  0.00  0.00    +0.120 A 
ATOM     11  C   LIG    1        7.601   3.663 -11.468  0.00  0.00    -0.010 A 
ATOM     12  C   LIG    1        8.219   4.895 -11.538  0.00  0.00    +0.050 A 
ATOM     13  C   LIG    1        8.388   5.657 -10.397  0.00  0.00    -0.020 A 
ATOM     14  C   LIG    1        7.932   5.182  -9.180  0.00  0.00    +0.060 A 
ATOM     15  C   LIG    1        7.312   3.954  -9.108  0.00  0.00    -0.200 A 
ENDBRANCH   3   7
BRANCH   5  16
ATOM     16  C   LIG    1        4.633   4.218  -3.667  0.00  0.00    +0.250 C 
ATOM     17  C   LIG    1        4.285   5.495  -2.896  0.00  0.00    +0.040 C 
ATOM     18  C   LIG    1        3.982   5.139  -1.439  0.00  0.00    +0.180 C 
ATOM     19  N   LIG    1        2.860   4.194  -1.388  0.00  0.00    -0.530 NA
ATOM     20  C   LIG    1        3.188   2.941  -2.080  0.00  0.00    +0.170 C 
ATOM     21  C   LIG    1        3.467   3.232  -3.557  0.00  0.00    +0.010 C 
BRANCH  19  22
ATOM     22  C   LIG    1        2.451   3.936  -0.000  0.00  0.00    +0.230 C 
BRANCH  22  23
ATOM     23  C   LIG    1        1.156   3.166   0.007  0.00  0.00    -0.070 A 
ATOM     24  C   LIG    1        1.175   1.783   0.000  0.00  0.00    +0.030 A 
ATOM     25  C   LIG    1       -0.013   1.076   0.008  0.00  0.00    +0.020 A 
ATOM     26  C   LIG    1       -1.220   1.751   0.017  0.00  0.00    -0.030 A 
ATOM     27  C   LIG    1       -1.238   3.135   0.029  0.00  0.00    +0.020 A 
ATOM     28 CL   LIG    1       -2.712   0.864   0.020  0.00  0.00    -0.070 Cl
ATOM     29  C   LIG    1       -0.050   3.841   0.022  0.00  0.00    +0.040 A 
ENDBRANCH  22  23
ENDBRANCH  19  22
ENDBRANCH   5  16
TORSDOF 4
