REMARK  Name = ZINCrH000004uuDy.0
REMARK                            x       y       z     vdW  Elec       q    Type
REMARK                         _______ _______ _______ _____ _____    ______ ____
ROOT
ATOM      1  O   LIG    1        3.023   6.342  -3.387  0.00  0.00    -0.540 OA
ATOM      2  C   LIG    1        3.879   6.262  -2.526  0.00  0.00    +0.570 C 
ATOM      3  N   LIG    1        3.677   5.484  -1.444  0.00  0.00    -0.730 N 
ATOM      4  H   LIG    1        4.359   5.420  -0.758  0.00  0.00    +0.410 HD
ENDROOT
BRANCH   2   5
ATOM      5  C   LIG    1        5.128   7.011  -2.664  0.00  0.00    -0.240 C 
ATOM      6  C   LIG    1        5.335   7.795  -3.750  0.00  0.00    +0.160 C 
ATOM      7  C   LIG    1        6.616   8.511  -3.848  0.00  0.00    -0.160 A 
ATOM      8  C   LIG    1        6.790   9.575  -4.731  0.00  0.00    +0.070 A 
ATOM      9  C   LIG    1        8.010  10.219  -4.788  0.00  0.00    -0.020 A 
ATOM     10  C   LIG    1        9.055   9.812  -3.975  0.00  0.00    +0.060 A 
ATOM     11  C   LIG    1        8.894   8.756  -3.096  0.00  0.00    -0.010 A 
ATOM     12  C   LIG    1        7.679   8.099  -3.024  0.00  0.00    +0.140 A 
ATOM     13  O   LIG    1        7.488   7.061  -2.174  0.00  0.00    -0.300 OA
ATOM     14  C   LIG    1        6.187   6.920  -1.596  0.00  0.00    +0.300 C 
ENDBRANCH   2   5
BRANCH   3  15
ATOM     15  C   LIG    1        2.426   4.733  -1.306  0.00  0.00    +0.280 C 
BRANCH  15  16
ATOM     16  C   LIG    1        2.451   3.936  -0.000  0.00  0.00    +0.320 C 
BRANCH  16  17
ATOM     17  C   LIG    1        1.221   3.070   0.084  0.00  0.00    -0.110 A 
ATOM     18  C   LIG    1        1.343   1.722   0.361  0.00  0.00    +0.060 A 
ATOM     19  C   LIG    1        0.214   0.927   0.439  0.00  0.00    +0.030 A 
ATOM     20  C   LIG    1       -1.037   1.481   0.233  0.00  0.00    -0.020 A 
ATOM     21  C   LIG    1       -1.159   2.832  -0.039  0.00  0.00    +0.030 A 
ATOM     22 CL   LIG    1       -2.454   0.482   0.323  0.00  0.00    -0.060 Cl
ATOM     23  C   LIG    1       -0.030   3.625  -0.117  0.00  0.00    +0.050 A 
ENDBRANCH  16  17
BRANCH  16  24
ATOM     24  N   LIG    1        2.476   4.861   1.136  0.00  0.00    -0.370 N 
ATOM     25  C   LIG    1        1.403   5.450   1.703  0.00  0.00    +0.230 A 
ATOM     26  C   LIG    1        1.847   6.224   2.720  0.00  0.00    -0.120 A 
ATOM     27  C   LIG    1        3.240   6.112   2.770  0.00  0.00    +0.230 A 
ATOM     28  N   LIG    1        3.618   5.295   1.821  0.00  0.00    -0.300 NA
ENDBRANCH  16  24
ENDBRANCH  15  16
ENDBRANCH   3  15
TORSDOF 5
