REMARK  Name = ZINCqH0000006ZHA.0
REMARK                            x       y       z     vdW  Elec       q    Type
REMARK                         _______ _______ _______ _____ _____    ______ ____
ROOT
ATOM      1  C   LIG    1       -2.522   3.877   0.034  0.00  0.00    +0.190 A 
ATOM      2  N   LIG    1       -2.804   4.955   0.730  0.00  0.00    -0.280 NA
ATOM      3  N   LIG    1       -4.130   5.324   0.484  0.00  0.00    -0.310 N 
ATOM      4  C   LIG    1       -4.689   4.454  -0.375  0.00  0.00    +0.290 A 
ATOM      5  C   LIG    1       -3.736   3.512  -0.703  0.00  0.00    -0.270 A 
ENDROOT
BRANCH   5   6
ATOM      6  C   LIG    1       -3.905   2.367  -1.614  0.00  0.00    +0.610 C 
ATOM      7  N   LIG    1       -5.049   2.224  -2.312  0.00  0.00    -0.620 N 
ATOM      8  C   LIG    1       -6.206   3.128  -2.255  0.00  0.00    +0.230 C 
ATOM      9  C   LIG    1       -7.284   2.554  -3.198  0.00  0.00    +0.040 C 
ATOM     10  C   LIG    1       -6.896   1.054  -3.293  0.00  0.00    +0.040 C 
ATOM     11  C   LIG    1       -5.349   1.130  -3.254  0.00  0.00    +0.260 C 
ATOM     12  O   LIG    1       -3.011   1.551  -1.736  0.00  0.00    -0.520 OA
ENDBRANCH   5   6
BRANCH   1  16
ATOM     13  C   LIG    1        1.200   1.822  -0.048  0.00  0.00    +0.140 A 
ATOM     14  C   LIG    1        0.508   2.049  -1.230  0.00  0.00    -0.030 A 
ATOM     15  C   LIG    1       -0.697   2.720  -1.207  0.00  0.00    +0.120 A 
ATOM     16  C   LIG    1       -1.225   3.160   0.006  0.00  0.00    -0.070 A 
ATOM     17  C   LIG    1       -0.527   2.931   1.191  0.00  0.00    +0.090 A 
ATOM     18  C   LIG    1        0.679   2.264   1.161  0.00  0.00    -0.090 A 
BRANCH  13  20
ATOM     19  C   LIG    1        3.048   0.966   1.179  0.00  0.00    +0.250 C 
ATOM     20  O   LIG    1        2.389   1.166  -0.074  0.00  0.00    -0.320 OA
ENDBRANCH  13  20
ENDBRANCH   1  16
BRANCH   3  21
ATOM     21  C   LIG    1       -4.779   6.428   1.051  0.00  0.00    +0.150 A 
ATOM     22  C   LIG    1       -6.104   6.697   0.732  0.00  0.00    -0.010 A 
ATOM     23  C   LIG    1       -6.742   7.784   1.296  0.00  0.00    +0.050 A 
ATOM     24  C   LIG    1       -6.060   8.611   2.170  0.00  0.00    +0.010 A 
ATOM     25  C   LIG    1       -4.739   8.349   2.486  0.00  0.00    +0.040 A 
ATOM     26  C   LIG    1       -4.097   7.261   1.929  0.00  0.00    +0.030 A 
ENDBRANCH   3  21
TORSDOF 4
