REMARK  Name = ZINCvU0000000Gb7.0
REMARK                            x       y       z     vdW  Elec       q    Type
REMARK                         _______ _______ _______ _____ _____    ______ ____
ROOT
ATOM      1  O   LIG    1        3.971   2.832  -1.496  0.00  0.00    -0.510 OA
ATOM      2  C   LIG    1        3.067   3.449  -2.026  0.00  0.00    +0.550 C 
ATOM      3  N   LIG    1        1.902   3.631  -1.373  0.00  0.00    -0.580 N 
ENDROOT
BRANCH   3   4
ATOM      4  C   LIG    1        0.776   4.279  -2.050  0.00  0.00    +0.200 C 
ATOM      5  C   LIG    1       -0.498   4.514  -1.236  0.00  0.00    +0.030 C 
ATOM      6  C   LIG    1       -0.469   3.432  -2.318  0.00  0.00    +0.010 C 
ENDBRANCH   3   4
BRANCH   2   7
ATOM      7  C   LIG    1        3.245   3.997  -3.376  0.00  0.00    -0.010 C 
ATOM      8  C   LIG    1        4.368   3.730  -4.068  0.00  0.00    +0.120 C 
BRANCH   8   9
ATOM      9  C   LIG    1        4.547   4.280  -5.424  0.00  0.00    +0.170 A 
ATOM     10  N   LIG    1        3.595   5.033  -5.946  0.00  0.00    -0.460 NA
ATOM     11  C   LIG    1        3.715   5.550  -7.169  0.00  0.00    +0.130 A 
ATOM     12  C   LIG    1        2.697   6.351  -7.720  0.00  0.00    +0.050 A 
ATOM     13  C   LIG    1        2.845   6.866  -8.970  0.00  0.00    +0.030 A 
ATOM     14  C   LIG    1        3.992   6.614  -9.721  0.00  0.00    +0.020 A 
ATOM     15  C   LIG    1        4.999   5.844  -9.222  0.00  0.00    +0.030 A 
ATOM     16  C   LIG    1        4.882   5.296  -7.935  0.00  0.00    -0.100 A 
ATOM     17  C   LIG    1        5.903   4.495  -7.387  0.00  0.00    +0.080 A 
ATOM     18  C   LIG    1        5.729   3.996  -6.131  0.00  0.00    -0.010 A 
ENDBRANCH   8   9
ENDBRANCH   2   7
BRANCH   3  19
ATOM     19  C   LIG    1        1.762   3.181   0.014  0.00  0.00    +0.470 C 
BRANCH  19  20
ATOM     20  C   LIG    1        1.260   1.760   0.032  0.00  0.00    +0.140 A 
ATOM     21  N   LIG    1        1.995   0.683   0.028  0.00  0.00    -0.250 NA
ATOM     22  N   LIG    1        1.237  -0.356   0.048  0.00  0.00    -0.270 NA
ATOM     23  C   LIG    1       -0.019   0.025   0.065  0.00  0.00    +0.200 A 
ATOM     24  O   LIG    1       -0.028   1.373   0.056  0.00  0.00    -0.200 OA
BRANCH  23  25
ATOM     25  C   LIG    1       -1.204  -0.859   0.090  0.00  0.00    -0.020 A 
ATOM     26  C   LIG    1       -1.043  -2.245   0.097  0.00  0.00    +0.090 A 
ATOM     27  C   LIG    1       -2.153  -3.065   0.120  0.00  0.00    +0.030 A 
ATOM     28  C   LIG    1       -3.423  -2.516   0.137  0.00  0.00    +0.060 A 
ATOM     29  C   LIG    1       -3.590  -1.143   0.129  0.00  0.00    +0.030 A 
ATOM     30  C   LIG    1       -2.488  -0.311   0.112  0.00  0.00    -0.010 A 
ATOM     31 CL   LIG    1       -2.699   1.412   0.109  0.00  0.00    -0.040 Cl
ENDBRANCH  23  25
ENDBRANCH  19  20
ENDBRANCH   3  19
TORSDOF 6
