REMARK  Name = ZINCqH0000003Hu6.0
REMARK                            x       y       z     vdW  Elec       q    Type
REMARK                         _______ _______ _______ _____ _____    ______ ____
ROOT
ATOM      1  C   LIG    1       -2.509   0.968   0.022  0.00  0.00    +0.340 C 
ENDROOT
BRANCH   1  11
ATOM      2  C   LIG    1       -1.248   3.133   0.028  0.00  0.00    +0.120 A 
ATOM      3  C   LIG    1       -0.057   3.845   0.022  0.00  0.00    -0.030 A 
ATOM      4  C   LIG    1        1.146   3.173   0.011  0.00  0.00    -0.120 A 
ATOM      5  C   LIG    1        1.186   1.785   0.000  0.00  0.00    +0.070 A 
ATOM      6  O   LIG    1        2.469   1.329  -0.025  0.00  0.00    -0.300 OA
ATOM      7  C   LIG    1        3.353   2.377   0.407  0.00  0.00    +0.200 C 
ATOM      8  C   LIG    1        3.567   2.317   1.921  0.00  0.00    +0.040 C 
ATOM      9  C   LIG    1       -0.013   1.076   0.008  0.00  0.00    +0.060 A 
ATOM     10  C   LIG    1        2.582   3.659   0.013  0.00  0.00    +0.070 C 
ATOM     11  C   LIG    1       -1.218   1.746   0.017  0.00  0.00    -0.110 A 
BRANCH   2  12
ATOM     12  O   LIG    1       -2.438   3.791   0.039  0.00  0.00    -0.310 OA
BRANCH  12  14
ATOM     13  C   LIG    1       -3.813   5.777   0.057  0.00  0.00    +0.070 C 
ATOM     14  C   LIG    1       -2.389   5.219   0.044  0.00  0.00    +0.170 C 
ENDBRANCH  12  14
ENDBRANCH   2  12
ENDBRANCH   1  11
BRANCH   1  15
ATOM     15  N   LIG    1       -3.058   0.926  -1.335  0.00  0.00    -0.720 N 
ATOM     16  H   LIG    1       -2.589   1.364  -2.063  0.00  0.00    +0.400 HD
ATOM     17  C   LIG    1       -4.217   0.279  -1.574  0.00  0.00    +0.560 C 
ATOM     18  O   LIG    1       -4.805  -0.269  -0.662  0.00  0.00    -0.520 OA
BRANCH  17  19
ATOM     19  C   LIG    1       -4.770   0.237  -2.941  0.00  0.00    -0.170 A 
ATOM     20  C   LIG    1       -4.101   0.871  -3.990  0.00  0.00    +0.080 A 
ATOM     21  C   LIG    1       -4.620   0.824  -5.265  0.00  0.00    -0.040 A 
ATOM     22  C   LIG    1       -5.811   0.159  -5.510  0.00  0.00    +0.080 A 
ATOM     23  C   LIG    1       -6.486  -0.467  -4.481  0.00  0.00    -0.090 A 
ATOM     24  C   LIG    1       -5.975  -0.434  -3.193  0.00  0.00    +0.190 A 
BRANCH  24  25
ATOM     25  O   LIG    1       -6.637  -1.048  -2.181  0.00  0.00    -0.280 OA
BRANCH  25  26
ATOM     26  C   LIG    1       -7.858  -1.713  -2.514  0.00  0.00    +0.170 C 
ATOM     27  C   LIG    1       -8.456  -2.341  -1.254  0.00  0.00    +0.070 C 
ENDBRANCH  25  26
ENDBRANCH  24  25
ENDBRANCH  17  19
ENDBRANCH   1  15
TORSDOF 7
