REMARK  Name = ZINCnE000001FJaF.1
REMARK                            x       y       z     vdW  Elec       q    Type
REMARK                         _______ _______ _______ _____ _____    ______ ____
ROOT
ATOM      1  C   LIG    1       -2.689   0.491   0.030  0.00  0.00    +0.100 C 
ENDROOT
BRANCH   1   2
ATOM      2  C   LIG    1       -4.098  -0.043   0.041  0.00  0.00    +0.530 C 
ATOM      3  N   LIG    1       -5.142   0.810   0.056  0.00  0.00    -0.730 N 
ATOM      4  H   LIG    1       -4.986   1.767   0.059  0.00  0.00    +0.400 HD
ATOM      5  O   LIG    1       -4.293  -1.240   0.036  0.00  0.00    -0.520 OA
BRANCH   3   6
ATOM      6  C   LIG    1       -6.512   0.291   0.066  0.00  0.00    +0.230 C 
ATOM      7  C   LIG    1       -6.958   0.000  -1.369  0.00  0.00    +0.000 C 
ATOM      8  C   LIG    1       -8.199  -0.894  -1.345  0.00  0.00    +0.010 C 
ATOM      9  C   LIG    1       -8.004  -2.011  -0.318  0.00  0.00    -0.000 C 
ATOM     10  C   LIG    1       -8.986  -1.817   0.839  0.00  0.00    +0.000 C 
ATOM     11  C   LIG    1       -8.493  -0.682   1.740  0.00  0.00    +0.000 C 
ATOM     12  C   LIG    1       -8.771   0.662   1.066  0.00  0.00    +0.020 C 
ATOM     13  C   LIG    1       -7.446   1.329   0.690  0.00  0.00    +0.010 C 
ENDBRANCH   3   6
ENDBRANCH   1   2
BRANCH   1  14
ATOM     14  S   LIG    1       -1.520  -0.891   0.012  0.00  0.00    +0.030 S 
BRANCH  14  19
ATOM     15  C   LIG    1        1.111   2.022   0.002  0.00  0.00    +0.180 A 
ATOM     16  C   LIG    1        2.319   1.387  -0.013  0.00  0.00    -0.270 A 
ATOM     17  C   LIG    1        2.348  -0.019  -0.020  0.00  0.00    +0.490 A 
ATOM     18  N   LIG    1        1.177  -0.692  -0.012  0.00  0.00    -0.640 NA
ATOM     19  C   LIG    1        0.002  -0.004   0.002  0.00  0.00    +0.320 A 
ATOM     20  O   LIG    1        3.410  -0.619  -0.033  0.00  0.00    -0.620 OA
ATOM     21  N   LIG    1       -0.016   1.315   0.009  0.00  0.00    -0.630 NA
BRANCH  15  22
ATOM     22  C   LIG    1        1.053   3.528   0.011  0.00  0.00    +0.080 C 
BRANCH  22  24
ATOM     23  C   LIG    1        0.836   5.570  -1.413  0.00  0.00    +0.000 C 
ATOM     24  C   LIG    1        0.895   4.041  -1.422  0.00  0.00    +0.010 C 
ENDBRANCH  22  24
ENDBRANCH  15  22
ENDBRANCH  14  19
ENDBRANCH   1  14
TORSDOF 6
