REMARK  Name = ZINCrH000004oTbu.0
REMARK                            x       y       z     vdW  Elec       q    Type
REMARK                         _______ _______ _______ _____ _____    ______ ____
ROOT
ATOM      1  C   LIG    1       -2.833   5.187   1.631  0.00  0.00    +0.500 C 
ATOM      2  N   LIG    1       -2.922   4.061   0.896  0.00  0.00    -0.600 N 
ATOM      3  C   LIG    1       -3.556   2.866   1.460  0.00  0.00    +0.280 C 
ATOM      4  O   LIG    1       -2.223   6.143   1.204  0.00  0.00    -0.500 OA
ENDROOT
BRANCH   1  15
ATOM      5  C   LIG    1       -5.702   4.690   1.947  0.00  0.00    +0.090 C 
ATOM      6  C   LIG    1       -4.955   5.696   2.826  0.00  0.00    +0.160 C 
ATOM      7  O   LIG    1       -4.971   6.986   2.205  0.00  0.00    -0.300 OA
ATOM      8  C   LIG    1       -4.109   7.914   2.701  0.00  0.00    +0.060 A 
ATOM      9  C   LIG    1       -4.310   9.255   2.408  0.00  0.00    +0.010 A 
ATOM     10  C   LIG    1       -3.440  10.209   2.901  0.00  0.00    +0.020 A 
ATOM     11  C   LIG    1       -2.368   9.831   3.688  0.00  0.00    +0.010 A 
ATOM     12  C   LIG    1       -2.163   8.496   3.984  0.00  0.00    +0.020 A 
ATOM     13  C   LIG    1       -3.032   7.534   3.493  0.00  0.00    +0.060 A 
ATOM     14  O   LIG    1       -2.821   6.224   3.799  0.00  0.00    -0.280 OA
ATOM     15  C   LIG    1       -3.493   5.257   2.985  0.00  0.00    +0.180 C 
ENDBRANCH   1  15
BRANCH   2  16
ATOM     16  C   LIG    1       -2.385   4.031  -0.466  0.00  0.00    +0.350 C 
BRANCH  16  17
ATOM     17  C   LIG    1       -0.944   3.592  -0.429  0.00  0.00    -0.110 A 
ATOM     18  C   LIG    1        0.067   4.530  -0.509  0.00  0.00    +0.080 A 
ATOM     19  C   LIG    1        1.389   4.128  -0.475  0.00  0.00    -0.010 A 
ATOM     20  C   LIG    1        1.704   2.787  -0.360  0.00  0.00    +0.060 A 
ATOM     21  C   LIG    1        0.697   1.844  -0.279  0.00  0.00    -0.060 A 
ATOM     22  C   LIG    1       -0.631   2.245  -0.318  0.00  0.00    +0.120 A 
BRANCH  22  23
ATOM     23  O   LIG    1       -1.623   1.319  -0.244  0.00  0.00    -0.310 OA
BRANCH  23  24
ATOM     24  C   LIG    1       -1.227  -0.049  -0.126  0.00  0.00    +0.600 C 
ATOM     25  F   LIG    1       -0.460  -0.409  -1.239  0.00  0.00    -0.160 F 
ATOM     26  F   LIG    1       -2.365  -0.860  -0.062  0.00  0.00    -0.130 F 
ATOM     27  F   LIG    1       -0.469  -0.216   1.037  0.00  0.00    -0.160 F 
ENDBRANCH  23  24
ENDBRANCH  22  23
ENDBRANCH  16  17
ENDBRANCH   2  16
TORSDOF 5
