REMARK  Name = ZINCpk00000e9dLT.0
REMARK                            x       y       z     vdW  Elec       q    Type
REMARK                         _______ _______ _______ _____ _____    ______ ____
ROOT
ATOM      1  N   LIG    1       -6.183   3.880   1.478  0.00  0.00    -0.510 N 
ATOM      2  C   LIG    1       -7.128   4.587   0.831  0.00  0.00    +0.710 A 
ATOM      3  N   LIG    1       -7.182   4.629  -0.512  0.00  0.00    -0.650 N 
ATOM      4  H   LIG    1       -7.877   5.149  -0.946  0.00  0.00    +0.440 HD
ATOM      5  C   LIG    1       -6.285   3.960  -1.265  0.00  0.00    +0.600 A 
ATOM      6  C   LIG    1       -5.276   3.206  -0.627  0.00  0.00    -0.140 A 
ATOM      7  N   LIG    1       -4.227   2.424  -1.067  0.00  0.00    -0.390 N 
ATOM      8  C   LIG    1       -3.600   1.954   0.030  0.00  0.00    +0.280 A 
ATOM      9  N   LIG    1       -4.202   2.394   1.105  0.00  0.00    -0.470 NA
ATOM     10  O   LIG    1       -6.343   4.007  -2.480  0.00  0.00    -0.510 OA
ATOM     11  O   LIG    1       -7.955   5.201   1.477  0.00  0.00    -0.530 OA
ATOM     12  C   LIG    1       -5.232   3.171   0.761  0.00  0.00    +0.320 A 
ENDROOT
BRANCH   7  13
ATOM     13  C   LIG    1       -3.864   2.155  -2.460  0.00  0.00    +0.300 C 
ATOM     14  C   LIG    1       -4.601   0.905  -2.947  0.00  0.00    +0.050 C 
ENDBRANCH   7  13
BRANCH   1  15
ATOM     15  C   LIG    1       -6.159   3.859   2.943  0.00  0.00    +0.320 C 
BRANCH  15  16
ATOM     16  C   LIG    1       -5.288   5.008   3.455  0.00  0.00    +0.000 C 
BRANCH  16  18
ATOM     17  C   LIG    1       -4.392   6.135   5.497  0.00  0.00    +0.010 C 
ATOM     18  C   LIG    1       -5.263   4.987   4.984  0.00  0.00    +0.020 C 
ENDBRANCH  16  18
ENDBRANCH  15  16
ENDBRANCH   1  15
BRANCH   8  19
ATOM     19  C   LIG    1       -2.393   1.052   0.019  0.00  0.00    +0.370 C 
BRANCH  19  20
ATOM     20  O   LIG    1       -1.186   1.859   0.018  0.00  0.00    -0.350 OA
BRANCH  20  21
ATOM     21  C   LIG    1       -0.014   1.204   0.009  0.00  0.00    +0.500 C 
ATOM     22  O   LIG    1        0.002  -0.004   0.002  0.00  0.00    -0.490 OA
BRANCH  21  23
ATOM     23  C   LIG    1        1.280   1.975   0.000  0.00  0.00    -0.030 C 
ATOM     24  C   LIG    1        2.128   1.918  -1.272  0.00  0.00    +0.060 C 
ATOM     25  C   LIG    1        2.582   1.171  -0.016  0.00  0.00    +0.010 C 
ATOM     26  C   LIG    1        2.469  -0.355  -0.023  0.00  0.00    +0.070 C 
ENDBRANCH  21  23
ENDBRANCH  20  21
ENDBRANCH  19  20
ENDBRANCH   8  19
TORSDOF 8
