REMARK  Name = ZINCrH000004orcS.0
REMARK                            x       y       z     vdW  Elec       q    Type
REMARK                         _______ _______ _______ _____ _____    ______ ____
ROOT
ATOM      1  C   LIG    1        0.290   8.129  -2.331  0.00  0.00    +0.520 C 
ATOM      2  N   LIG    1        1.439   7.863  -1.677  0.00  0.00    -0.610 N 
ATOM      3  C   LIG    1        2.723   8.246  -2.268  0.00  0.00    +0.280 C 
ATOM      4  O   LIG    1       -0.773   7.812  -1.841  0.00  0.00    -0.510 OA
ENDROOT
BRANCH   1   6
ATOM      5  C   LIG    1        1.020   7.915  -4.691  0.00  0.00    +0.070 C 
ATOM      6  C   LIG    1        0.328   8.819  -3.670  0.00  0.00    +0.170 C 
BRANCH   6   7
ATOM      7  O   LIG    1       -1.007   9.092  -4.102  0.00  0.00    -0.280 OA
BRANCH   7   8
ATOM      8  C   LIG    1       -1.175  10.120  -4.976  0.00  0.00    +0.150 A 
ATOM      9  C   LIG    1       -0.069  10.782  -5.490  0.00  0.00    -0.070 A 
ATOM     10  C   LIG    1       -0.241  11.823  -6.381  0.00  0.00    +0.090 A 
ATOM     11  C   LIG    1       -1.516  12.211  -6.754  0.00  0.00    -0.130 A 
ATOM     12  C   LIG    1       -2.619  11.556  -6.239  0.00  0.00    +0.090 A 
ATOM     13 BR   LIG    1       -1.749  13.641  -7.970  0.00  0.00    -0.050 Br
ATOM     14  C   LIG    1       -2.451  10.511  -5.351  0.00  0.00    +0.000 A 
ENDBRANCH   7   8
ENDBRANCH   6   7
ENDBRANCH   1   6
BRANCH   2  15
ATOM     15  C   LIG    1        1.403   7.192  -0.376  0.00  0.00    +0.340 C 
BRANCH  15  16
ATOM     16  C   LIG    1        1.468   5.700  -0.578  0.00  0.00    -0.140 A 
ATOM     17  C   LIG    1        2.694   5.062  -0.615  0.00  0.00    +0.040 A 
ATOM     18  C   LIG    1        2.757   3.694  -0.800  0.00  0.00    -0.020 A 
ATOM     19  C   LIG    1        1.588   2.960  -0.949  0.00  0.00    +0.120 A 
ATOM     20  C   LIG    1        0.358   3.606  -0.917  0.00  0.00    -0.040 A 
ATOM     21  C   LIG    1        0.301   4.972  -0.727  0.00  0.00    +0.060 A 
BRANCH  19  22
ATOM     22  N   LIG    1        1.648   1.578  -1.137  0.00  0.00    -0.490 N 
ATOM     23  C   LIG    1        0.301   1.005  -1.272  0.00  0.00    +0.160 C 
ATOM     24  C   LIG    1        0.415  -0.499  -1.535  0.00  0.00    +0.220 C 
ATOM     25  O   LIG    1        1.159  -1.108  -0.476  0.00  0.00    -0.380 OA
ATOM     26  C   LIG    1        2.477  -0.574  -0.317  0.00  0.00    +0.220 C 
ATOM     27  C   LIG    1        2.383   0.929  -0.041  0.00  0.00    +0.160 C 
ENDBRANCH  19  22
ENDBRANCH  15  16
ENDBRANCH   2  15
TORSDOF 6
