REMARK  Name = ZINCvU0000000GXZ.0
REMARK                            x       y       z     vdW  Elec       q    Type
REMARK                         _______ _______ _______ _____ _____    ______ ____
ROOT
ATOM      1  N   LIG    1        1.700  -6.748  -0.681  0.00  0.00    -0.670 N 
ATOM      2  H   LIG    1        1.416  -6.834   0.243  0.00  0.00    +0.420 HD
ATOM      3  C   LIG    1        1.624  -5.554  -1.301  0.00  0.00    +0.530 C 
ATOM      4  O   LIG    1        1.899  -5.463  -2.479  0.00  0.00    -0.500 OA
ENDROOT
BRANCH   1   9
ATOM      5  C   LIG    1        2.407  -9.130  -3.402  0.00  0.00    -0.010 A 
ATOM      6  C   LIG    1        3.163 -10.083  -2.721  0.00  0.00    +0.020 A 
ATOM      7  C   LIG    1        3.426  -9.923  -1.375  0.00  0.00    +0.030 A 
ATOM      8  C   LIG    1        2.942  -8.819  -0.699  0.00  0.00    +0.000 A 
ATOM      9  C   LIG    1        2.188  -7.864  -1.369  0.00  0.00    +0.140 A 
ATOM     10  C   LIG    1        1.914  -8.020  -2.720  0.00  0.00    +0.060 A 
BRANCH   5  14
ATOM     11  C   LIG    1        0.618  -7.734  -7.797  0.00  0.00    +0.180 C 
ATOM     12  C   LIG    1        1.309  -8.649  -6.819  0.00  0.00    +0.050 A 
ATOM     13  N   LIG    1        1.496  -8.384  -5.572  0.00  0.00    -0.460 NA
ATOM     14  C   LIG    1        2.123  -9.300  -4.848  0.00  0.00    +0.110 A 
ATOM     15  C   LIG    1        2.486 -10.397  -5.543  0.00  0.00    -0.070 A 
ATOM     16  S   LIG    1        1.955 -10.182  -7.209  0.00  0.00    +0.130 S 
ENDBRANCH   5  14
ENDBRANCH   1   9
BRANCH   3  17
ATOM     17  C   LIG    1        1.197  -4.331  -0.530  0.00  0.00    +0.090 C 
BRANCH  17  18
ATOM     18  S   LIG    1        1.195  -2.894  -1.632  0.00  0.00    +0.100 S 
BRANCH  18  19
ATOM     19  C   LIG    1        0.674  -1.645  -0.504  0.00  0.00    +0.140 A 
ATOM     20  N   LIG    1        0.391  -1.809   0.767  0.00  0.00    -0.290 NA
ATOM     21  N   LIG    1        0.046  -0.686   1.287  0.00  0.00    -0.270 NA
ATOM     22  C   LIG    1        0.088   0.255   0.386  0.00  0.00    +0.200 A 
ATOM     23  N   LIG    1        0.485  -0.323  -0.788  0.00  0.00    -0.430 N 
BRANCH  23  24
ATOM     24  C   LIG    1        0.671   0.340  -2.081  0.00  0.00    +0.190 C 
ATOM     25  C   LIG    1        0.734  -0.547  -3.327  0.00  0.00    +0.070 C 
ATOM     26  C   LIG    1        2.004   0.125  -2.800  0.00  0.00    +0.060 C 
ENDBRANCH  23  24
BRANCH  22  27
ATOM     27  C   LIG    1       -0.245   1.710   0.598  0.00  0.00    +0.250 C 
BRANCH  27  28
ATOM     28  C   LIG    1        0.999   2.456   1.005  0.00  0.00    -0.190 A 
ATOM     29  C   LIG    1        1.857   3.035   0.164  0.00  0.00    +0.010 A 
ATOM     30  C   LIG    1        2.930   3.668   0.769  0.00  0.00    +0.000 A 
ATOM     31  C   LIG    1        2.947   3.594   2.101  0.00  0.00    -0.040 A 
ATOM     32  S   LIG    1        1.546   2.690   2.660  0.00  0.00    +0.130 S 
ENDBRANCH  27  28
ENDBRANCH  22  27
ENDBRANCH  18  19
ENDBRANCH  17  18
ENDBRANCH   3  17
TORSDOF 8
