REMARK  Name = ZINCqH0000004RME.0
REMARK                            x       y       z     vdW  Elec       q    Type
REMARK                         _______ _______ _______ _____ _____    ______ ____
ROOT
ATOM      1  N   LIG    1       -3.675   1.655   0.030  0.00  0.00    -0.640 N 
ATOM      2  H   LIG    1       -3.690   2.625   0.034  0.00  0.00    +0.420 HD
ATOM      3  C   LIG    1       -2.498   1.000   0.021  0.00  0.00    +0.560 C 
ATOM      4  O   LIG    1       -2.479  -0.216   0.015  0.00  0.00    -0.450 OA
ENDROOT
BRANCH   3   5
ATOM      5  C   LIG    1       -1.233   1.756   0.017  0.00  0.00    -0.100 A 
ATOM      6  C   LIG    1       -1.256   3.154   0.029  0.00  0.00    +0.050 A 
ATOM      7  C   LIG    1       -0.072   3.858   0.022  0.00  0.00    +0.090 A 
ATOM      8  C   LIG    1        1.141   3.182   0.009  0.00  0.00    -0.110 A 
ATOM      9  S   LIG    1        2.657   4.085   0.004  0.00  0.00    -0.060 S 
ATOM     10  C   LIG    1        3.766   2.955   0.897  0.00  0.00    +0.030 C 
ATOM     11  C   LIG    1        3.564   1.559   0.376  0.00  0.00    +0.520 C 
ATOM     12  N   LIG    1        2.385   1.087  -0.019  0.00  0.00    -0.660 N 
ATOM     13  H   LIG    1        2.363   0.175  -0.351  0.00  0.00    +0.420 HD
ATOM     14  O   LIG    1        4.528   0.825   0.313  0.00  0.00    -0.500 OA
ATOM     15  C   LIG    1        5.219   3.381   0.673  0.00  0.00    +0.120 C 
ATOM     16  C   LIG    1        1.178   1.783   0.000  0.00  0.00    +0.160 A 
ATOM     17  C   LIG    1       -0.013   1.076   0.008  0.00  0.00    +0.080 A 
ENDBRANCH   3   5
BRANCH   1  26
ATOM     18  N   LIG    1       -6.109   1.501   0.047  0.00  0.00    -0.500 N 
ATOM     19  C   LIG    1       -7.023   0.461   0.043  0.00  0.00    +0.050 A 
ATOM     20  C   LIG    1       -8.408   0.398   0.051  0.00  0.00    +0.010 A 
ATOM     21  C   LIG    1       -9.039  -0.829   0.050  0.00  0.00    +0.030 A 
ATOM     22  C   LIG    1       -8.298  -2.001   0.041  0.00  0.00    +0.010 A 
ATOM     23  C   LIG    1       -6.922  -1.957   0.032  0.00  0.00    +0.060 A 
ATOM     24  C   LIG    1       -6.267  -0.723   0.034  0.00  0.00    +0.060 A 
ATOM     25  N   LIG    1       -4.957  -0.360   0.028  0.00  0.00    -0.470 NA
ATOM     26  C   LIG    1       -4.862   0.945   0.033  0.00  0.00    +0.500 A 
BRANCH  18  28
ATOM     27  C   LIG    1       -6.542   3.443  -1.375  0.00  0.00    +0.040 C 
ATOM     28  C   LIG    1       -6.421   2.933   0.062  0.00  0.00    +0.290 C 
ENDBRANCH  18  28
ENDBRANCH   1  26
TORSDOF 3
