REMARK  Name = ZINCvU00000005uL.0
REMARK                            x       y       z     vdW  Elec       q    Type
REMARK                         _______ _______ _______ _____ _____    ______ ____
ROOT
ATOM      1  C   LIG    1        1.177   1.782   0.000  0.00  0.00    -0.060 A 
ATOM      2  C   LIG    1       -0.013   1.076   0.008  0.00  0.00    +0.030 A 
ATOM      3  C   LIG    1       -1.217   1.748   0.017  0.00  0.00    +0.080 A 
ATOM      4  C   LIG    1       -1.234   3.144   0.030  0.00  0.00    -0.110 A 
ATOM      5  C   LIG    1       -0.030   3.850   0.023  0.00  0.00    +0.080 A 
ATOM      6  C   LIG    1        1.167   3.166   0.008  0.00  0.00    +0.040 A 
ENDROOT
BRANCH   4   7
ATOM      7  C   LIG    1       -2.521   3.870   0.045  0.00  0.00    +0.510 C 
ATOM      8  O   LIG    1       -2.532   5.085   0.051  0.00  0.00    -0.500 OA
BRANCH   7   9
ATOM      9  O   LIG    1       -3.681   3.185   0.053  0.00  0.00    -0.350 OA
BRANCH   9  10
ATOM     10  C   LIG    1       -4.906   3.964   0.068  0.00  0.00    +0.290 C 
BRANCH  10  11
ATOM     11  C   LIG    1       -6.092   3.035   0.074  0.00  0.00    -0.110 A 
ATOM     12  C   LIG    1       -6.650   2.619  -1.120  0.00  0.00    +0.080 A 
ATOM     13  C   LIG    1       -7.734   1.762  -1.116  0.00  0.00    -0.020 A 
ATOM     14  C   LIG    1       -8.269   1.329   0.086  0.00  0.00    +0.110 A 
ATOM     15  C   LIG    1       -7.713   1.751   1.282  0.00  0.00    -0.020 A 
ATOM     16  F   LIG    1       -9.333   0.497   0.092  0.00  0.00    -0.140 F 
ATOM     17  C   LIG    1       -6.625   2.603   1.275  0.00  0.00    +0.080 A 
ENDBRANCH  10  11
ENDBRANCH   9  10
ENDBRANCH   7   9
ENDBRANCH   4   7
BRANCH   1  18
ATOM     18  C   LIG    1        2.489   1.042  -0.017  0.00  0.00    +0.250 C 
BRANCH  18  19
ATOM     19  O   LIG    1        2.891   0.815  -1.369  0.00  0.00    -0.300 OA
BRANCH  19  27
ATOM     20  C   LIG    1        8.544  -2.378  -0.994  0.00  0.00    +0.130 C 
ATOM     21  C   LIG    1        7.707  -1.906  -2.156  0.00  0.00    +0.040 A 
ATOM     22  C   LIG    1        8.102  -2.131  -3.436  0.00  0.00    -0.110 A 
ATOM     23  C   LIG    1        7.302  -1.679  -4.506  0.00  0.00    +0.510 A 
ATOM     24  O   LIG    1        6.148  -1.026  -4.297  0.00  0.00    -0.270 OA
ATOM     25  C   LIG    1        5.699  -0.771  -3.049  0.00  0.00    +0.190 A 
ATOM     26  C   LIG    1        4.502  -0.101  -2.851  0.00  0.00    -0.020 A 
ATOM     27  C   LIG    1        4.061   0.154  -1.562  0.00  0.00    +0.190 A 
ATOM     28  C   LIG    1        4.806  -0.267  -0.463  0.00  0.00    -0.090 A 
ATOM     29  C   LIG    1        5.985  -0.932  -0.640  0.00  0.00    +0.130 A 
ATOM     30  O   LIG    1        7.668  -1.887  -5.649  0.00  0.00    -0.460 OA
ATOM     31  C   LIG    1        6.447  -1.194  -1.935  0.00  0.00    -0.190 A 
ENDBRANCH  19  27
ENDBRANCH  18  19
ENDBRANCH   1  18
TORSDOF 7
