REMARK  Name = ZINCvU0000000HGm.0
REMARK                            x       y       z     vdW  Elec       q    Type
REMARK                         _______ _______ _______ _____ _____    ______ ____
ROOT
ATOM      1  C   LIG    1        0.443   2.043   2.206  0.00  0.00    +0.240 C 
ATOM      2  C   LIG    1        1.515   2.598   1.236  0.00  0.00    +0.040 C 
ATOM      3  C   LIG    1        1.417   1.685  -0.002  0.00  0.00    -0.010 C 
ATOM      4  C   LIG    1        1.466   2.563  -1.272  0.00  0.00    +0.220 C 
ATOM      5  N   LIG    1        0.444   1.965  -2.172  0.00  0.00    -0.450 N 
ATOM      6  C   LIG    1       -0.689   1.660  -1.257  0.00  0.00    +0.210 C 
ATOM      7  C   LIG    1       -0.013   1.086   0.008  0.00  0.00    +0.000 C 
ATOM      8  C   LIG    1       -0.708   1.644   1.265  0.00  0.00    +0.020 C 
ENDROOT
BRANCH   5   9
ATOM      9  C   LIG    1        0.059   2.864  -3.156  0.00  0.00    +0.370 A 
ATOM     10  N   LIG    1        0.589   4.079  -3.200  0.00  0.00    -0.540 NA
ATOM     11  C   LIG    1        0.229   4.927  -4.144  0.00  0.00    +0.520 A 
ATOM     12  N   LIG    1       -0.666   4.617  -5.054  0.00  0.00    -0.530 NA
ATOM     13  C   LIG    1       -1.262   3.420  -5.076  0.00  0.00    +0.190 A 
ATOM     14  C   LIG    1       -2.285   3.187  -6.146  0.00  0.00    +0.110 C 
ATOM     15  C   LIG    1       -2.514   1.716  -6.453  0.00  0.00    +0.050 C 
ATOM     16  C   LIG    1       -3.006   1.008  -5.182  0.00  0.00    +0.080 C 
ATOM     17  S   LIG    1       -1.590   0.881  -4.050  0.00  0.00    -0.060 S 
ATOM     18  C   LIG    1       -0.902   2.502  -4.117  0.00  0.00    -0.200 A 
ENDBRANCH   5   9
BRANCH   1  20
ATOM     19  C   LIG    1        0.430   0.530   4.116  0.00  0.00    +0.530 C 
ATOM     20  N   LIG    1        0.945   0.864   2.916  0.00  0.00    -0.720 N 
ATOM     21  H   LIG    1        1.648   0.324   2.523  0.00  0.00    +0.400 HD
ATOM     22  O   LIG    1       -0.450   1.205   4.608  0.00  0.00    -0.540 OA
BRANCH  19  23
ATOM     23  C   LIG    1        0.946  -0.683   4.846  0.00  0.00    -0.080 C 
ATOM     24  C   LIG    1        0.722  -1.929   3.987  0.00  0.00    +0.050 C 
BRANCH  23  25
ATOM     25  C   LIG    1        2.442  -0.514   5.120  0.00  0.00    +0.030 C 
ATOM     26  C   LIG    1        2.666   0.732   5.979  0.00  0.00    +0.010 C 
ENDBRANCH  23  25
BRANCH  23  27
ATOM     27  C   LIG    1        0.199  -0.837   6.172  0.00  0.00    +0.040 C 
BRANCH  27  28
ATOM     28  C   LIG    1        0.723  -2.068   6.913  0.00  0.00    +0.010 C 
BRANCH  28  29
ATOM     29  C   LIG    1       -0.024  -2.222   8.240  0.00  0.00    +0.000 C 
BRANCH  29  30
ATOM     30  C   LIG    1        0.500  -3.453   8.981  0.00  0.00    +0.000 C 
BRANCH  30  32
ATOM     31  C   LIG    1        0.277  -4.838  11.049  0.00  0.00    +0.000 C 
ATOM     32  C   LIG    1       -0.247  -3.607  10.307  0.00  0.00    -0.010 C 
ENDBRANCH  30  32
ENDBRANCH  29  30
ENDBRANCH  28  29
ENDBRANCH  27  28
ENDBRANCH  23  27
ENDBRANCH  19  23
ENDBRANCH   1  20
TORSDOF 9
