REMARK  Name = ZINCpe000000ZH58.2
REMARK                            x       y       z     vdW  Elec       q    Type
REMARK                         _______ _______ _______ _____ _____    ______ ____
ROOT
ATOM      1  N   LIG    1       -0.548   1.504   0.148  0.00  0.00    -0.510 NA
ATOM      2  C   LIG    1        0.812   2.072   0.313  0.00  0.00    +0.160 C 
ATOM      3  C   LIG    1        1.779   0.971  -0.221  0.00  0.00    +0.180 C 
ATOM      4  C   LIG    1        0.869   0.390  -1.387  0.00  0.00    +0.060 C 
ATOM      5  N   LIG    1        1.704  -0.130   0.791  0.00  0.00    -0.510 NA
ATOM      6  C   LIG    1        0.327  -0.673   0.703  0.00  0.00    +0.170 C 
ATOM      7  C   LIG    1       -0.358   0.140  -0.439  0.00  0.00    +0.160 C 
ENDROOT
BRANCH   1   8
ATOM      8  C   LIG    1       -1.248   1.431   1.437  0.00  0.00    +0.300 C 
BRANCH   8  16
ATOM      9  O   LIG    1       -6.802  -0.518   0.401  0.00  0.00    -0.480 OA
ATOM     10  C   LIG    1       -5.982   0.382   0.417  0.00  0.00    +0.600 A 
ATOM     11  N   LIG    1       -6.327   1.638   0.059  0.00  0.00    -0.640 N 
ATOM     12  H   LIG    1       -7.236   1.828  -0.221  0.00  0.00    +0.430 HD
ATOM     13  C   LIG    1       -5.388   2.652   0.081  0.00  0.00    +0.290 A 
ATOM     14  C   LIG    1       -4.133   2.437   0.458  0.00  0.00    +0.150 A 
ATOM     15  N   LIG    1       -3.710   1.179   0.846  0.00  0.00    -0.370 N 
ATOM     16  C   LIG    1       -2.538   0.670   1.265  0.00  0.00    +0.210 A 
ATOM     17  N   LIG    1       -2.722  -0.608   1.504  0.00  0.00    -0.270 NA
ATOM     18  N   LIG    1       -3.943  -0.932   1.253  0.00  0.00    -0.200 NA
ATOM     19  C   LIG    1       -4.598   0.130   0.840  0.00  0.00    +0.100 A 
ENDBRANCH   8  16
ENDBRANCH   1   8
BRANCH   5  20
ATOM     20  C   LIG    1        1.986   0.376   2.141  0.00  0.00    +0.220 C 
BRANCH  20  21
ATOM     21  C   LIG    1        3.347   1.022   2.161  0.00  0.00    -0.080 A 
ATOM     22  C   LIG    1        4.476   0.248   2.355  0.00  0.00    +0.020 A 
ATOM     23  C   LIG    1        5.726   0.841   2.369  0.00  0.00    +0.000 A 
ATOM     24  C   LIG    1        5.845   2.207   2.200  0.00  0.00    +0.000 A 
ATOM     25  C   LIG    1        4.715   2.981   2.011  0.00  0.00    +0.000 A 
ATOM     26  C   LIG    1        3.466   2.389   1.992  0.00  0.00    +0.000 A 
ENDBRANCH  20  21
ENDBRANCH   5  20
TORSDOF 4
