REMARK  Name = ZINCpk00000FeJUU.1
REMARK                            x       y       z     vdW  Elec       q    Type
REMARK                         _______ _______ _______ _____ _____    ______ ____
ROOT
ATOM      1  C   LIG    1        4.672  -2.507   2.738  0.00  0.00    +0.270 C 
ATOM      2  C   LIG    1        3.924  -2.429   1.402  0.00  0.00    +0.300 C 
ATOM      3  N   LIG    1        3.807  -1.013   1.018  0.00  0.00    -0.600 N 
ATOM      4  C   LIG    1        5.027  -0.191   1.027  0.00  0.00    +0.260 C 
ATOM      5  C   LIG    1        5.721  -0.377   2.385  0.00  0.00    +0.230 C 
ATOM      6  C   LIG    1        2.618  -0.486   0.664  0.00  0.00    +0.610 C 
ATOM      7  O   LIG    1        2.553   0.666   0.280  0.00  0.00    -0.530 OA
ATOM      8  O   LIG    1        5.895  -1.774   2.635  0.00  0.00    -0.370 OA
ENDROOT
BRANCH   1  11
ATOM      9  C   LIG    1        4.852  -5.890   4.000  0.00  0.00    +0.290 A 
ATOM     10  N   LIG    1        4.342  -4.686   3.973  0.00  0.00    -0.530 NA
ATOM     11  C   LIG    1        4.974  -3.948   3.061  0.00  0.00    +0.240 A 
ATOM     12  N   LIG    1        5.896  -4.678   2.489  0.00  0.00    -0.280 NA
ATOM     13  N   LIG    1        5.839  -5.947   3.089  0.00  0.00    -0.480 N 
ATOM     14  H   LIG    1        6.397  -6.712   2.883  0.00  0.00    +0.440 HD
BRANCH   9  16
ATOM     15  C   LIG    1        5.293  -7.052   6.146  0.00  0.00    +0.050 C 
ATOM     16  C   LIG    1        4.410  -7.018   4.897  0.00  0.00    +0.150 C 
ENDBRANCH   9  16
ENDBRANCH   1  11
BRANCH   6  17
ATOM     17  C   LIG    1        1.395  -1.306   0.743  0.00  0.00    -0.060 A 
ATOM     18  C   LIG    1        0.120  -0.880   0.530  0.00  0.00    +0.050 A 
ATOM     19  O   LIG    1       -0.681  -1.944   0.696  0.00  0.00    -0.180 OA
ATOM     20  C   LIG    1        0.083  -3.000   1.010  0.00  0.00    +0.450 A 
ATOM     21  N   LIG    1        1.329  -2.631   1.045  0.00  0.00    -0.470 NA
BRANCH  18  22
ATOM     22  C   LIG    1       -0.309   0.519   0.170  0.00  0.00    +0.280 C 
ATOM     23  C   LIG    1       -0.725   0.586  -1.322  0.00  0.00    +0.030 C 
ATOM     24  C   LIG    1       -1.686   1.809  -1.302  0.00  0.00    +0.020 C 
ATOM     25  C   LIG    1       -2.348   1.685   0.087  0.00  0.00    +0.200 C 
ATOM     26  O   LIG    1       -1.487   0.884   0.906  0.00  0.00    -0.370 OA
ENDBRANCH  18  22
ENDBRANCH   6  17
TORSDOF 4
