REMARK  Name = ZINCpk00000FeJUU.0
REMARK                            x       y       z     vdW  Elec       q    Type
REMARK                         _______ _______ _______ _____ _____    ______ ____
ROOT
ATOM      1  C   LIG    1        4.638  -3.515   1.242  0.00  0.00    +0.260 C 
ATOM      2  C   LIG    1        3.684  -3.361   0.052  0.00  0.00    +0.310 C 
ATOM      3  N   LIG    1        3.146  -1.991   0.062  0.00  0.00    -0.600 N 
ATOM      4  C   LIG    1        4.099  -0.875   0.166  0.00  0.00    +0.260 C 
ATOM      5  C   LIG    1        5.032  -1.150   1.356  0.00  0.00    +0.240 C 
ATOM      6  C   LIG    1        1.820  -1.766  -0.025  0.00  0.00    +0.610 C 
ATOM      7  O   LIG    1        1.400  -0.626  -0.089  0.00  0.00    -0.530 OA
ATOM      8  O   LIG    1        5.598  -2.456   1.216  0.00  0.00    -0.390 OA
ENDROOT
BRANCH   1  12
ATOM      9  C   LIG    1        6.874  -6.373   1.051  0.00  0.00    +0.180 A 
ATOM     10  N   LIG    1        5.693  -6.925   0.989  0.00  0.00    -0.280 NA
ATOM     11  N   LIG    1        4.787  -6.014   1.047  0.00  0.00    -0.270 NA
ATOM     12  C   LIG    1        5.348  -4.840   1.149  0.00  0.00    +0.180 A 
ATOM     13  N   LIG    1        6.689  -5.034   1.148  0.00  0.00    -0.560 N 
ATOM     14  H   LIG    1        7.378  -4.353   1.208  0.00  0.00    +0.430 HD
BRANCH   9  16
ATOM     15  C   LIG    1        8.233  -8.153   2.116  0.00  0.00    +0.050 C 
ATOM     16  C   LIG    1        8.198  -7.092   1.014  0.00  0.00    +0.140 C 
ENDBRANCH   9  16
ENDBRANCH   1  12
BRANCH   6  17
ATOM     17  C   LIG    1        0.879  -2.901  -0.045  0.00  0.00    -0.070 A 
ATOM     18  C   LIG    1       -0.479  -2.825  -0.016  0.00  0.00    +0.050 A 
ATOM     19  O   LIG    1       -0.942  -4.085  -0.048  0.00  0.00    -0.180 OA
ATOM     20  C   LIG    1        0.108  -4.917  -0.097  0.00  0.00    +0.460 A 
ATOM     21  N   LIG    1        1.206  -4.221  -0.096  0.00  0.00    -0.460 NA
BRANCH  18  22
ATOM     22  C   LIG    1       -1.307  -1.567   0.042  0.00  0.00    +0.280 C 
ATOM     23  C   LIG    1       -1.972  -1.298  -1.331  0.00  0.00    +0.030 C 
ATOM     24  C   LIG    1       -3.197  -0.444  -0.901  0.00  0.00    +0.020 C 
ATOM     25  C   LIG    1       -3.560  -1.054   0.470  0.00  0.00    +0.200 C 
ATOM     26  O   LIG    1       -2.396  -1.729   0.964  0.00  0.00    -0.370 OA
ENDBRANCH  18  22
ENDBRANCH   6  17
TORSDOF 4
