REMARK  Name = ZINCrg00000BCaYG.0
REMARK                            x       y       z     vdW  Elec       q    Type
REMARK                         _______ _______ _______ _____ _____    ______ ____
ROOT
ATOM      1  C   LIG    1       -0.013   1.086   0.008  0.00  0.00    +0.040 C 
ENDROOT
BRANCH   1   6
ATOM      2  C   LIG    1       -0.966   1.180  -4.875  0.00  0.00    +0.520 C 
ATOM      3  N   LIG    1       -1.146   1.094  -3.542  0.00  0.00    -0.610 N 
ATOM      4  C   LIG    1       -2.444   0.995  -2.858  0.00  0.00    +0.250 C 
ATOM      5  C   LIG    1       -2.160   0.948  -1.342  0.00  0.00    +0.040 C 
ATOM      6  C   LIG    1       -0.753   1.593  -1.232  0.00  0.00    -0.010 C 
ATOM      7  C   LIG    1       -0.076   1.085  -2.529  0.00  0.00    +0.260 C 
ATOM      8  O   LIG    1        0.155   1.258  -5.331  0.00  0.00    -0.510 OA
BRANCH   2  13
ATOM      9  O   LIG    1       -1.802   1.862  -9.169  0.00  0.00    -0.510 OA
ATOM     10  C   LIG    1       -2.034   1.869  -7.976  0.00  0.00    +0.650 C 
ATOM     11  N   LIG    1       -1.748   0.839  -7.169  0.00  0.00    -0.710 N 
ATOM     12  H   LIG    1       -1.338   0.004  -7.445  0.00  0.00    +0.440 HD
ATOM     13  C   LIG    1       -2.157   1.179  -5.798  0.00  0.00    +0.210 C 
ATOM     14  C   LIG    1       -2.740   2.599  -5.931  0.00  0.00    +0.290 C 
ATOM     15  O   LIG    1       -2.599   2.907  -7.348  0.00  0.00    -0.320 OA
ENDBRANCH   2  13
ENDBRANCH   1   6
BRANCH   1  16
ATOM     16  C   LIG    1       -0.729   1.579   1.267  0.00  0.00    +0.260 C 
BRANCH  16  17
ATOM     17  N   LIG    1       -0.020   1.094   2.454  0.00  0.00    -0.730 N 
ATOM     18  H   LIG    1        0.775   0.547   2.354  0.00  0.00    +0.400 HD
ATOM     19  C   LIG    1       -0.473   1.407   3.684  0.00  0.00    +0.590 C 
ATOM     20  O   LIG    1       -1.470   2.092   3.809  0.00  0.00    -0.540 OA
BRANCH  19  21
ATOM     21  C   LIG    1        0.240   0.918   4.879  0.00  0.00    -0.180 A 
ATOM     22  C   LIG    1       -0.106   1.157   6.194  0.00  0.00    +0.200 A 
ATOM     23  N   LIG    1        0.790   0.543   6.998  0.00  0.00    -0.340 N 
ATOM     24  C   LIG    1        0.885   0.479   8.367  0.00  0.00    +0.200 A 
ATOM     25  C   LIG    1        1.881  -0.206   8.956  0.00  0.00    +0.020 A 
ATOM     26  C   LIG    1        2.849  -0.873   8.180  0.00  0.00    +0.010 A 
ATOM     27  C   LIG    1        2.776  -0.823   6.826  0.00  0.00    +0.060 A 
ATOM     28  C   LIG    1        1.725  -0.101   6.215  0.00  0.00    +0.030 A 
ATOM     29  C   LIG    1        1.400   0.114   4.891  0.00  0.00    -0.020 A 
ENDBRANCH  19  21
ENDBRANCH  16  17
ENDBRANCH   1  16
TORSDOF 5
