REMARK  Name = ZINCrg000000rWpw.0
REMARK                            x       y       z     vdW  Elec       q    Type
REMARK                         _______ _______ _______ _____ _____    ______ ____
ROOT
ATOM      1  N   LIG    1       -0.301  -0.035  -2.619  0.00  0.00    -0.650 N 
ATOM      2  H   LIG    1       -0.256   0.929  -2.720  0.00  0.00    +0.430 HD
ATOM      3  C   LIG    1       -0.560  -0.813  -3.689  0.00  0.00    +0.580 C 
ATOM      4  O   LIG    1       -0.551  -2.025  -3.576  0.00  0.00    -0.490 OA
ENDROOT
BRANCH   1   7
ATOM      5  C   LIG    1       -1.198   1.384  -0.321  0.00  0.00    +0.130 C 
ATOM      6  C   LIG    1       -0.521   0.041  -0.216  0.00  0.00    -0.040 A 
ATOM      7  C   LIG    1       -0.100  -0.617  -1.364  0.00  0.00    +0.140 A 
ATOM      8  C   LIG    1        0.527  -1.852  -1.262  0.00  0.00    +0.090 A 
ATOM      9  C   LIG    1        0.721  -2.426  -0.021  0.00  0.00    +0.050 A 
ATOM     10  C   LIG    1        0.294  -1.771   1.120  0.00  0.00    +0.090 A 
ATOM     11  C   LIG    1       -0.326  -0.539   1.022  0.00  0.00    -0.030 A 
BRANCH  11  12
ATOM     12  N   LIG    1       -0.780   0.159   2.246  0.00  0.00    +0.030 N 
ATOM     13  O   LIG    1       -1.075  -0.482   3.239  0.00  0.00    -0.160 OA
ATOM     14  O   LIG    1       -0.859   1.374   2.260  0.00  0.00    -0.150 OA
ENDBRANCH  11  12
ENDBRANCH   1   7
BRANCH   3  15
ATOM     15  C   LIG    1       -0.851  -0.199  -4.989  0.00  0.00    +0.080 C 
ATOM     16  N   LIG    1       -0.863   1.093  -5.098  0.00  0.00    -0.200 NA
ATOM     17  N   LIG    1       -1.133   1.713  -6.322  0.00  0.00    -0.440 N 
ATOM     18  C   LIG    1       -1.763   1.037  -7.303  0.00  0.00    +0.500 C 
ATOM     19  C   LIG    1       -2.168  -0.398  -7.082  0.00  0.00    +0.100 C 
ATOM     20  O   LIG    1       -2.004   1.582  -8.359  0.00  0.00    -0.500 OA
ATOM     21  C   LIG    1       -1.138  -1.078  -6.177  0.00  0.00    +0.120 C 
BRANCH  17  22
ATOM     22  C   LIG    1       -0.734   3.106  -6.538  0.00  0.00    +0.300 C 
ATOM     23  C   LIG    1        0.782   3.260  -6.324  0.00  0.00    +0.070 C 
ATOM     24  C   LIG    1        1.117   4.761  -6.219  0.00  0.00    -0.300 C 
ATOM     25  S   LIG    1       -0.401   5.543  -5.562  0.00  0.00    +2.400 S 
ATOM     26  O   LIG    1       -0.160   6.006  -4.240  0.00  0.00    -0.920 OA
ATOM     27  O   LIG    1       -0.934   6.428  -6.536  0.00  0.00    -0.920 OA
ATOM     28  C   LIG    1       -1.424   4.024  -5.496  0.00  0.00    -0.310 C 
ENDBRANCH  17  22
ENDBRANCH   3  15
TORSDOF 4
