REMARK  Name = ZINCpk00000ebeXW.0
REMARK                            x       y       z     vdW  Elec       q    Type
REMARK                         _______ _______ _______ _____ _____    ______ ____
ROOT
ATOM      1  C   LIG    1       -4.932   1.865   0.028  0.00  0.00    +0.240 C 
ATOM      2  C   LIG    1       -5.386   1.590  -1.407  0.00  0.00    +0.010 C 
ATOM      3  C   LIG    1       -6.832   1.084  -1.393  0.00  0.00    +0.300 C 
ATOM      4  N   LIG    1       -7.666   2.056  -0.672  0.00  0.00    -0.630 N 
ATOM      5  C   LIG    1       -7.268   2.460   0.684  0.00  0.00    +0.280 C 
ATOM      6  C   LIG    1       -8.775   2.566  -1.243  0.00  0.00    +0.710 C 
ATOM      7  N   LIG    1       -9.587   3.374  -0.533  0.00  0.00    -0.750 N 
ATOM      8  H   LIG    1       -9.338   3.646   0.364  0.00  0.00    +0.390 HD
ATOM      9  O   LIG    1       -9.042   2.298  -2.398  0.00  0.00    -0.590 OA
ATOM     10  C   LIG    1       -5.817   2.950   0.646  0.00  0.00    +0.020 C 
ENDROOT
BRANCH   1  12
ATOM     11  C   LIG    1       -2.537   1.415   0.014  0.00  0.00    +0.600 C 
ATOM     12  N   LIG    1       -3.539   2.317   0.021  0.00  0.00    -0.730 N 
ATOM     13  H   LIG    1       -3.337   3.266   0.022  0.00  0.00    +0.400 HD
ATOM     14  O   LIG    1       -2.791   0.226   0.013  0.00  0.00    -0.550 OA
BRANCH  11  18
ATOM     15  C   LIG    1        2.459   1.440  -0.028  0.00  0.00    +0.360 C 
ATOM     16  N   LIG    1        1.060   1.875  -0.012  0.00  0.00    -0.360 N 
ATOM     17  C   LIG    1       -0.013   1.067  -0.002  0.00  0.00    +0.320 A 
ATOM     18  C   LIG    1       -1.135   1.870   0.006  0.00  0.00    -0.300 A 
ATOM     19  C   LIG    1       -0.688   3.211   0.009  0.00  0.00    +0.270 A 
ATOM     20  N   LIG    1        0.616   3.202  -0.005  0.00  0.00    -0.300 NA
ENDBRANCH  11  18
ENDBRANCH   1  12
BRANCH   7  21
ATOM     21  C   LIG    1      -10.847   3.841  -1.116  0.00  0.00    +0.280 C 
BRANCH  21  22
ATOM     22  C   LIG    1      -11.574   4.737  -0.111  0.00  0.00    -0.030 C 
ATOM     23  C   LIG    1      -11.945   3.913   1.119  0.00  0.00    +0.030 C 
ATOM     24  C   LIG    1      -12.422   4.838   2.242  0.00  0.00    +0.110 C 
ATOM     25  S   LIG    1      -13.931   5.692   1.698  0.00  0.00    -0.270 S 
ATOM     26  C   LIG    1      -13.411   6.422   0.117  0.00  0.00    +0.110 C 
ATOM     27  C   LIG    1      -12.822   5.320  -0.767  0.00  0.00    +0.040 C 
ENDBRANCH  21  22
ENDBRANCH   7  21
TORSDOF 4
