REMARK  Name = ZINCqH0000038RBe.0
REMARK                            x       y       z     vdW  Elec       q    Type
REMARK                         _______ _______ _______ _____ _____    ______ ____
ROOT
ATOM      1  C   LIG    1       -6.712   7.000   3.949  0.00  0.00    +0.380 C 
ATOM      2  N   LIG    1       -5.776   6.483   2.947  0.00  0.00    -0.490 N 
ATOM      3  C   LIG    1       -5.734   5.217   2.484  0.00  0.00    +0.470 A 
ATOM      4  N   LIG    1       -4.735   5.146   1.581  0.00  0.00    -0.360 N 
ATOM      5  N   LIG    1       -4.158   6.419   1.488  0.00  0.00    -0.240 NA
ATOM      6  S   LIG    1       -6.760   3.933   2.961  0.00  0.00    -0.570 S 
ATOM      7  C   LIG    1       -4.789   7.210   2.310  0.00  0.00    +0.300 A 
ENDROOT
BRANCH   7   8
ATOM      8  C   LIG    1       -4.499   8.645   2.524  0.00  0.00    +0.010 A 
ATOM      9  C   LIG    1       -5.384   9.459   3.239  0.00  0.00    -0.010 A 
ATOM     10  C   LIG    1       -5.071  10.790   3.419  0.00  0.00    +0.280 A 
ATOM     11  N   LIG    1       -3.961  11.299   2.919  0.00  0.00    -0.470 NA
ATOM     12  C   LIG    1       -3.102  10.568   2.235  0.00  0.00    +0.280 A 
ATOM     13  C   LIG    1       -3.333   9.226   2.012  0.00  0.00    +0.030 A 
ENDBRANCH   7   8
BRANCH   4  14
ATOM     14  C   LIG    1       -4.331   3.955   0.829  0.00  0.00    +0.530 C 
BRANCH  14  15
ATOM     15  N   LIG    1       -3.078   3.426   1.385  0.00  0.00    -0.550 NA
ATOM     16  C   LIG    1       -3.334   2.616   2.582  0.00  0.00    +0.230 C 
ATOM     17  C   LIG    1       -2.061   1.978   3.059  0.00  0.00    -0.020 C 
ATOM     18  C   LIG    1       -0.987   1.871   2.309  0.00  0.00    -0.080 C 
ATOM     19  C   LIG    1       -0.927   2.390   0.899  0.00  0.00    +0.090 C 
ATOM     20  C   LIG    1       -2.347   2.636   0.381  0.00  0.00    +0.200 C 
BRANCH  18  21
ATOM     21  C   LIG    1        0.212   1.218   2.876  0.00  0.00    -0.050 A 
ATOM     22  C   LIG    1        1.384   1.951   3.067  0.00  0.00    +0.010 A 
ATOM     23  C   LIG    1        2.502   1.334   3.591  0.00  0.00    +0.000 A 
ATOM     24  C   LIG    1        2.462  -0.008   3.926  0.00  0.00    +0.000 A 
ATOM     25  C   LIG    1        1.303  -0.740   3.739  0.00  0.00    +0.000 A 
ATOM     26  C   LIG    1        0.178  -0.135   3.216  0.00  0.00    +0.010 A 
ENDBRANCH  18  21
ENDBRANCH  14  15
ENDBRANCH   4  14
TORSDOF 4
