REMARK  Name = ZINCtV00000L6jWl.0
REMARK                            x       y       z     vdW  Elec       q    Type
REMARK                         _______ _______ _______ _____ _____    ______ ____
ROOT
ATOM      1  C   LIG    1        1.415   9.157   2.034  0.00  0.00    -0.090 A 
ATOM      2  C   LIG    1        1.668   7.920   1.473  0.00  0.00    +0.030 A 
ATOM      3  C   LIG    1        0.737   7.335   0.635  0.00  0.00    -0.090 A 
ATOM      4  C   LIG    1       -0.448   7.989   0.352  0.00  0.00    +0.030 A 
ATOM      5  C   LIG    1       -0.709   9.223   0.915  0.00  0.00    -0.090 A 
ATOM      6  C   LIG    1        0.224   9.812   1.755  0.00  0.00    +0.120 A 
ENDROOT
BRANCH   1   8
ATOM      7  C   LIG    1        3.643   8.870   3.084  0.00  0.00    +0.030 C 
ATOM      8  C   LIG    1        2.431   9.794   2.946  0.00  0.00    -0.020 C 
ATOM      9  C   LIG    1        1.806  10.024   4.324  0.00  0.00    +0.040 C 
ATOM     10  C   LIG    1        2.876  11.134   2.357  0.00  0.00    +0.030 C 
ENDBRANCH   1   8
BRANCH   5  11
ATOM     11  C   LIG    1       -2.003   9.933   0.610  0.00  0.00    -0.020 C 
ATOM     12  C   LIG    1       -1.703  11.277  -0.056  0.00  0.00    +0.030 C 
ATOM     13  C   LIG    1       -2.775  10.168   1.910  0.00  0.00    +0.030 C 
ATOM     14  C   LIG    1       -2.846   9.073  -0.334  0.00  0.00    +0.030 C 
ENDBRANCH   5  11
BRANCH   6  15
ATOM     15  O   LIG    1       -0.027  11.029   2.305  0.00  0.00    -0.480 OA
ATOM     16  H   LIG    1        0.278  11.774   1.769  0.00  0.00    +0.380 HD
ENDBRANCH   6  15
BRANCH   3  17
ATOM     17  C   LIG    1        1.016   5.986   0.025  0.00  0.00    +0.340 C 
BRANCH  17  18
ATOM     18  C   LIG    1        1.490   6.165  -1.394  0.00  0.00    -0.100 A 
ATOM     19  C   LIG    1        0.576   6.389  -2.406  0.00  0.00    +0.030 A 
ATOM     20  C   LIG    1        1.011   6.558  -3.707  0.00  0.00    +0.000 A 
ATOM     21  C   LIG    1        2.361   6.493  -3.998  0.00  0.00    +0.000 A 
ATOM     22  C   LIG    1        3.276   6.264  -2.987  0.00  0.00    +0.000 A 
ATOM     23  C   LIG    1        2.840   6.100  -1.685  0.00  0.00    +0.010 A 
ENDBRANCH  17  18
BRANCH  17  24
ATOM     24  N   LIG    1       -0.210   5.184   0.032  0.00  0.00    -0.720 N 
ATOM     25  H   LIG    1       -1.075   5.621   0.043  0.00  0.00    +0.400 HD
BRANCH  24  26
ATOM     26  C   LIG    1       -0.132   3.796   0.024  0.00  0.00    +0.410 A 
ATOM     27  C   LIG    1        1.113   3.175   0.009  0.00  0.00    -0.110 A 
ATOM     28  C   LIG    1        1.176   1.793   0.001  0.00  0.00    +0.100 A 
ATOM     29  C   LIG    1       -0.013   1.076   0.008  0.00  0.00    -0.100 A 
ATOM     30  C   LIG    1       -1.214   1.757   0.017  0.00  0.00    +0.300 A 
ATOM     31  N   LIG    1       -1.243   3.076   0.031  0.00  0.00    -0.540 NA
ENDBRANCH  24  26
ENDBRANCH  17  24
ENDBRANCH   3  17
TORSDOF 7
