REMARK  Name = ZINCtV00001bB3bM.0
REMARK                            x       y       z     vdW  Elec       q    Type
REMARK                         _______ _______ _______ _____ _____    ______ ____
ROOT
ATOM      1  C   LIG    1       -1.434   1.696   0.462  0.00  0.00    +0.140 C 
ATOM      2  C   LIG    1       -0.053   1.145   0.216  0.00  0.00    +0.190 A 
ATOM      3  N   LIG    1        0.091  -0.135  -0.014  0.00  0.00    -0.470 NA
ATOM      4  C   LIG    1        1.290  -0.685  -0.246  0.00  0.00    +0.140 A 
ATOM      5  C   LIG    1        1.414  -2.062  -0.490  0.00  0.00    +0.040 A 
ATOM      6  C   LIG    1        2.643  -2.601  -0.725  0.00  0.00    +0.040 A 
ATOM      7  C   LIG    1        3.787  -1.807  -0.725  0.00  0.00    +0.020 A 
ATOM      8  C   LIG    1        3.705  -0.467  -0.492  0.00  0.00    +0.040 A 
ATOM      9  C   LIG    1        2.456   0.120  -0.247  0.00  0.00    -0.100 A 
ATOM     10  C   LIG    1        2.333   1.510  -0.001  0.00  0.00    +0.050 A 
ATOM     11  C   LIG    1        1.046   2.019   0.234  0.00  0.00    -0.190 A 
ENDROOT
BRANCH  10  12
ATOM     12  C   LIG    1        3.518   2.392   0.009  0.00  0.00    -0.060 A 
ATOM     13  C   LIG    1        3.902   3.037   1.187  0.00  0.00    +0.060 A 
ATOM     14  C   LIG    1        5.012   3.855   1.191  0.00  0.00    +0.030 A 
ATOM     15  C   LIG    1        5.739   4.046   0.028  0.00  0.00    -0.020 A 
ATOM     16  C   LIG    1        5.361   3.414  -1.145  0.00  0.00    +0.030 A 
ATOM     17 CL   LIG    1        7.132   5.084   0.040  0.00  0.00    -0.060 Cl
ATOM     18  C   LIG    1        4.255   2.589  -1.160  0.00  0.00    +0.060 A 
ENDBRANCH  10  12
BRANCH  11  19
ATOM     19  C   LIG    1        0.850   3.458   0.496  0.00  0.00    +0.440 C 
ATOM     20  O   LIG    1        0.799   3.867   1.642  0.00  0.00    -0.440 OA
BRANCH  19  21
ATOM     21  C   LIG    1        0.716   4.393  -0.620  0.00  0.00    -0.110 C 
ATOM     22  C   LIG    1        0.644   5.721  -0.384  0.00  0.00    +0.140 C 
BRANCH  22  23
ATOM     23  C   LIG    1        0.510   6.661  -1.506  0.00  0.00    -0.100 A 
ATOM     24  C   LIG    1        0.462   6.184  -2.821  0.00  0.00    +0.070 A 
ATOM     25  C   LIG    1        0.330   7.070  -3.868  0.00  0.00    -0.020 A 
ATOM     26  C   LIG    1        0.256   8.433  -3.622  0.00  0.00    +0.120 A 
ATOM     27  C   LIG    1        0.309   8.913  -2.321  0.00  0.00    -0.020 A 
ATOM     28  F   LIG    1        0.132   9.297  -4.653  0.00  0.00    -0.130 F 
ATOM     29  C   LIG    1        0.435   8.038  -1.265  0.00  0.00    +0.080 A 
ENDBRANCH  22  23
ENDBRANCH  19  21
ENDBRANCH  11  19
TORSDOF 4
