REMARK  Name = ZINCpk00000e1qKV.0
REMARK                            x       y       z     vdW  Elec       q    Type
REMARK                         _______ _______ _______ _____ _____    ______ ____
ROOT
ATOM      1  N   LIG    1        4.652   4.545   5.235  0.00  0.00    -0.570 N 
ATOM      2  C   LIG    1        5.947   4.633   4.900  0.00  0.00    +0.700 C 
ATOM      3  N   LIG    1        6.240   3.916   3.794  0.00  0.00    -0.710 N 
ATOM      4  H   LIG    1        7.107   3.830   3.368  0.00  0.00    +0.450 HD
ATOM      5  C   LIG    1        4.988   3.298   3.371  0.00  0.00    +0.120 C 
ATOM      6  C   LIG    1        5.088   1.769   3.315  0.00  0.00    +0.060 C 
ATOM      7  C   LIG    1        5.288   1.441   1.821  0.00  0.00    +0.200 C 
ATOM      8  N   LIG    1        5.345   2.732   1.098  0.00  0.00    -0.490 NA
ATOM      9  C   LIG    1        4.602   3.707   1.940  0.00  0.00    +0.210 C 
ATOM     10  O   LIG    1        6.764   5.283   5.522  0.00  0.00    -0.530 OA
ATOM     11  C   LIG    1        3.968   3.758   4.375  0.00  0.00    +0.540 C 
ATOM     12  O   LIG    1        2.788   3.483   4.406  0.00  0.00    -0.460 OA
ENDROOT
BRANCH   1  14
ATOM     13  C   LIG    1        4.738   4.740   7.672  0.00  0.00    +0.050 C 
ATOM     14  C   LIG    1        4.053   5.219   6.390  0.00  0.00    +0.240 C 
ATOM     15  C   LIG    1        4.235   6.732   6.249  0.00  0.00    +0.050 C 
ENDBRANCH   1  14
BRANCH   8  16
ATOM     16  C   LIG    1        4.737   2.616  -0.234  0.00  0.00    +0.340 C 
BRANCH  16  17
ATOM     17  C   LIG    1        3.259   2.356  -0.091  0.00  0.00    +0.240 A 
ATOM     18  N   LIG    1        2.723   1.187   0.100  0.00  0.00    -0.480 NA
ATOM     19  C   LIG    1        1.373   1.311   0.185  0.00  0.00    +0.050 A 
ATOM     20  C   LIG    1        0.332   0.401   0.380  0.00  0.00    +0.070 A 
ATOM     21  C   LIG    1       -0.960   0.843   0.419  0.00  0.00    +0.000 A 
ATOM     22  C   LIG    1       -1.252   2.191   0.273  0.00  0.00    +0.030 A 
ATOM     23  C   LIG    1       -0.241   3.107   0.073  0.00  0.00    +0.010 A 
ATOM     24  C   LIG    1        1.078   2.676   0.030  0.00  0.00    +0.050 A 
ATOM     25  N   LIG    1        2.292   3.312  -0.142  0.00  0.00    -0.490 N 
ATOM     26  C   LIG    1        2.499   4.748  -0.343  0.00  0.00    +0.320 C 
ENDBRANCH  16  17
ENDBRANCH   8  16
TORSDOF 3
