REMARK  Name = ZINCpk00000e9Qvf.0
REMARK                            x       y       z     vdW  Elec       q    Type
REMARK                         _______ _______ _______ _____ _____    ______ ____
ROOT
ATOM      1  N   LIG    1        4.312   2.568  -1.607  0.00  0.00    -0.980 NA
ENDROOT
BRANCH   1   2
ATOM      2  S   LIG    1        3.905   2.312  -0.023  0.00  0.00    +2.690 S 
ATOM      3  O   LIG    1        4.888   1.434   0.508  0.00  0.00    -0.950 OA
ATOM      4  O   LIG    1        3.623   3.589   0.531  0.00  0.00    -0.920 OA
BRANCH   2   5
ATOM      5  C   LIG    1        2.385   1.419  -0.013  0.00  0.00    -0.700 A 
ATOM      6  C   LIG    1        2.398   0.035  -0.021  0.00  0.00    +0.200 A 
ATOM      7  C   LIG    1        1.211  -0.674  -0.013  0.00  0.00    -0.010 A 
ATOM      8  C   LIG    1        0.002  -0.004   0.002  0.00  0.00    +0.200 A 
ATOM      9  C   LIG    1       -0.017   1.395   0.010  0.00  0.00    -0.080 A 
ATOM     10  F   LIG    1       -1.157  -0.698   0.010  0.00  0.00    -0.120 F 
ATOM     11  C   LIG    1        1.187   2.102   0.002  0.00  0.00    +0.220 A 
BRANCH   9  12
ATOM     12  C   LIG    1       -1.265   2.098   0.019  0.00  0.00    +0.240 C 
ATOM     13  N   LIG    1       -2.254   2.655   0.027  0.00  0.00    -0.380 NA
ENDBRANCH   9  12
ENDBRANCH   2   5
ENDBRANCH   1   2
BRANCH   1  14
ATOM     14  C   LIG    1        3.850   3.776  -2.296  0.00  0.00    +0.320 C 
BRANCH  14  20
ATOM     15  C   LIG    1        5.069   8.382  -3.529  0.00  0.00    +0.190 C 
ATOM     16  N   LIG    1        5.468   7.169  -2.803  0.00  0.00    -0.540 NA
ATOM     17  C   LIG    1        5.722   7.463  -1.385  0.00  0.00    +0.160 C 
ATOM     18  C   LIG    1        6.191   6.187  -0.681  0.00  0.00    +0.220 C 
ATOM     19  O   LIG    1        5.207   5.164  -0.854  0.00  0.00    -0.360 OA
ATOM     20  C   LIG    1        4.936   4.852  -2.223  0.00  0.00    +0.140 C 
ATOM     21  C   LIG    1        4.453   6.114  -2.942  0.00  0.00    +0.160 C 
ENDBRANCH  14  20
ENDBRANCH   1  14
BRANCH   1  22
ATOM     22  C   LIG    1        5.135   1.588  -2.320  0.00  0.00    +0.330 C 
BRANCH  22  23
ATOM     23  C   LIG    1        4.228   0.625  -3.090  0.00  0.00    -0.080 C 
ATOM     24  C   LIG    1        4.256  -0.850  -2.682  0.00  0.00    +0.010 C 
ATOM     25  C   LIG    1        4.902  -0.407  -3.996  0.00  0.00    +0.030 C 
ENDBRANCH  22  23
ENDBRANCH   1  22
TORSDOF 7
