REMARK  Name = ZINCrD000000D6LM.0
REMARK                            x       y       z     vdW  Elec       q    Type
REMARK                         _______ _______ _______ _____ _____    ______ ____
ROOT
ATOM      1  N   LIG    1        0.749   5.463   0.024  0.00  0.00    -0.940 N 
ENDROOT
BRANCH   1   2
ATOM      2  C   LIG    1        0.583   4.088   0.222  0.00  0.00    +0.140 A 
ATOM      3  C   LIG    1        1.481   3.387   1.015  0.00  0.00    +0.050 A 
ATOM      4  C   LIG    1        1.314   2.029   1.215  0.00  0.00    +0.050 A 
ATOM      5  C   LIG    1        0.258   1.363   0.617  0.00  0.00    +0.040 A 
ATOM      6  O   LIG    1       -0.120   0.050   0.652  0.00  0.00    -0.310 OA
ATOM      7  C   LIG    1       -1.022  -0.120  -0.457  0.00  0.00    +0.440 C 
ATOM      8  O   LIG    1       -1.587   1.191  -0.642  0.00  0.00    -0.300 OA
ATOM      9  C   LIG    1       -0.645   2.064  -0.179  0.00  0.00    +0.050 A 
ATOM     10  C   LIG    1       -0.481   3.425  -0.376  0.00  0.00    +0.070 A 
ENDBRANCH   1   2
BRANCH   1  12
ATOM     11  O   LIG    1       -0.189   7.738  -0.163  0.00  0.00    -0.940 OA
ATOM     12  S   LIG    1       -0.420   6.520   0.531  0.00  0.00    +2.680 S 
ATOM     13  O   LIG    1       -1.652   5.814   0.472  0.00  0.00    -0.940 OA
BRANCH  12  14
ATOM     14  C   LIG    1       -0.119   6.853   2.235  0.00  0.00    -0.690 A 
ATOM     15  C   LIG    1       -0.706   6.065   3.207  0.00  0.00    +0.160 A 
ATOM     16  C   LIG    1       -0.466   6.322   4.544  0.00  0.00    -0.020 A 
ATOM     17  C   LIG    1        0.354   7.376   4.909  0.00  0.00    +0.160 A 
ATOM     18  C   LIG    1        0.937   8.168   3.935  0.00  0.00    -0.020 A 
ATOM     19  F   LIG    1        0.584   7.632   6.216  0.00  0.00    -0.130 F 
ATOM     20  C   LIG    1        0.700   7.905   2.599  0.00  0.00    +0.160 A 
ENDBRANCH  12  14
ENDBRANCH   1  12
BRANCH   1  21
ATOM     21  C   LIG    1        1.958   5.968  -0.631  0.00  0.00    +0.380 C 
BRANCH  21  22
ATOM     22  C   LIG    1        1.775   5.922  -2.127  0.00  0.00    -0.170 A 
ATOM     23  C   LIG    1        2.146   4.796  -2.845  0.00  0.00    +0.080 A 
ATOM     24  C   LIG    1        1.954   4.796  -4.218  0.00  0.00    -0.040 A 
ATOM     25  C   LIG    1        1.415   5.915  -4.823  0.00  0.00    +0.270 A 
ATOM     26  N   LIG    1        1.078   6.971  -4.108  0.00  0.00    -0.480 NA
ATOM     27  C   LIG    1        1.241   7.004  -2.800  0.00  0.00    +0.290 A 
ENDBRANCH  21  22
ENDBRANCH   1  21
TORSDOF 5
