REMARK  Name = ZINCrg00000fSKw9.0
REMARK                            x       y       z     vdW  Elec       q    Type
REMARK                         _______ _______ _______ _____ _____    ______ ____
ROOT
ATOM      1  C   LIG    1       -1.818   4.101   3.525  0.00  0.00    -0.650 A 
ATOM      2  C   LIG    1       -2.104   3.320   4.628  0.00  0.00    +0.090 A 
ATOM      3  C   LIG    1       -3.220   3.588   5.400  0.00  0.00    +0.000 A 
ATOM      4  C   LIG    1       -4.056   4.643   5.067  0.00  0.00    +0.090 A 
ATOM      5  C   LIG    1       -3.767   5.432   3.953  0.00  0.00    +0.200 A 
ATOM      6  C   LIG    1       -2.643   5.159   3.188  0.00  0.00    +0.050 A 
ENDROOT
BRANCH   4   7
ATOM      7  N   LIG    1       -5.186   4.917   5.847  0.00  0.00    -0.470 N 
ATOM      8  C   LIG    1       -5.340   3.913   6.931  0.00  0.00    +0.180 C 
ATOM      9  C   LIG    1       -6.253   4.634   7.954  0.00  0.00    +0.040 C 
ATOM     10  C   LIG    1       -5.756   6.097   7.891  0.00  0.00    +0.020 C 
ATOM     11  C   LIG    1       -5.058   6.226   6.524  0.00  0.00    +0.180 C 
ENDBRANCH   4   7
BRANCH   1  13
ATOM     12  O   LIG    1        0.509   3.050   3.390  0.00  0.00    -0.950 OA
ATOM     13  S   LIG    1       -0.394   3.753   2.547  0.00  0.00    +2.690 S 
ATOM     14  O   LIG    1       -0.056   4.964   1.885  0.00  0.00    -0.950 OA
BRANCH  13  15
ATOM     15  N   LIG    1       -0.858   2.688   1.367  0.00  0.00    -1.000 NA
ATOM     16  C   LIG    1       -0.783   1.235   1.587  0.00  0.00    +0.260 C 
ATOM     17  C   LIG    1       -0.042   0.604   0.403  0.00  0.00    +0.220 C 
ATOM     18  O   LIG    1       -0.651   1.032  -0.817  0.00  0.00    -0.380 OA
ATOM     19  C   LIG    1       -0.585   2.442  -1.042  0.00  0.00    +0.220 C 
ATOM     20  C   LIG    1       -1.355   3.167   0.068  0.00  0.00    +0.260 C 
ENDBRANCH  13  15
ENDBRANCH   1  13
BRANCH   5  21
ATOM     21  N   LIG    1       -4.607   6.498   3.611  0.00  0.00    -0.740 N 
ATOM     22  H   LIG    1       -5.354   6.731   4.184  0.00  0.00    +0.410 HD
BRANCH  21  23
ATOM     23  C   LIG    1       -4.359   7.263   2.386  0.00  0.00    +0.400 C 
BRANCH  23  24
ATOM     24  C   LIG    1       -5.397   8.347   2.251  0.00  0.00    +0.210 A 
ATOM     25  N   LIG    1       -5.295   9.560   2.727  0.00  0.00    -0.290 NA
ATOM     26  N   LIG    1       -6.476  10.234   2.377  0.00  0.00    -0.480 N 
ATOM     27  H   LIG    1       -6.705  11.153   2.586  0.00  0.00    +0.450 HD
ATOM     28  C   LIG    1       -7.227   9.352   1.695  0.00  0.00    +0.500 A 
ATOM     29  N   LIG    1       -6.565   8.226   1.623  0.00  0.00    -0.530 NA
ENDBRANCH  23  24
ENDBRANCH  21  23
ENDBRANCH   5  21
TORSDOF 6
