REMARK  Name = ZINCqH0000008sxf.0
REMARK                            x       y       z     vdW  Elec       q    Type
REMARK                         _______ _______ _______ _____ _____    ______ ____
ROOT
ATOM      1  N   LIG    1       -2.425   1.040   0.019  0.00  0.00    -0.730 N 
ATOM      2  H   LIG    1       -2.412   0.070   0.014  0.00  0.00    +0.410 HD
ENDROOT
BRANCH   1   3
ATOM      3  C   LIG    1       -1.222   1.755   0.017  0.00  0.00    +0.230 A 
ATOM      4  C   LIG    1       -1.242   3.145   0.030  0.00  0.00    -0.060 A 
ATOM      5  C   LIG    1       -0.058   3.857   0.023  0.00  0.00    +0.080 A 
ATOM      6  C   LIG    1        1.154   3.184   0.008  0.00  0.00    +0.040 A 
ATOM      7  C   LIG    1        1.177   1.787   0.000  0.00  0.00    +0.140 A 
ATOM      8  N   LIG    1        2.517   1.407  -0.014  0.00  0.00    -0.540 N 
ATOM      9  C   LIG    1        3.275   2.519  -0.015  0.00  0.00    +0.680 A 
ATOM     10  O   LIG    1        4.492   2.538  -0.026  0.00  0.00    -0.560 OA
ATOM     11  C   LIG    1        3.016   0.029  -0.026  0.00  0.00    +0.340 C 
ATOM     12  N   LIG    1        2.483   3.608  -0.002  0.00  0.00    -0.540 N 
ATOM     13  C   LIG    1        2.939   5.000   0.001  0.00  0.00    +0.340 C 
ATOM     14  C   LIG    1       -0.013   1.076   0.008  0.00  0.00    -0.050 A 
ENDBRANCH   1   3
BRANCH   1  16
ATOM     15  C   LIG    1       -4.079   2.107   1.470  0.00  0.00    +0.050 C 
ATOM     16  C   LIG    1       -3.703   1.756   0.029  0.00  0.00    +0.370 C 
BRANCH  16  17
ATOM     17  C   LIG    1       -4.773   0.882  -0.571  0.00  0.00    +0.180 A 
ATOM     18  N   LIG    1       -4.957  -0.381  -0.304  0.00  0.00    -0.470 NA
ATOM     19  C   LIG    1       -5.997  -0.830  -1.021  0.00  0.00    +0.170 A 
ATOM     20  C   LIG    1       -6.466   0.210  -1.757  0.00  0.00    +0.010 A 
ATOM     21  O   LIG    1       -5.693   1.278  -1.461  0.00  0.00    -0.190 OA
BRANCH  20  22
ATOM     22  C   LIG    1       -7.606   0.181  -2.697  0.00  0.00    -0.020 A 
ATOM     23  C   LIG    1       -7.978   1.338  -3.383  0.00  0.00    +0.030 A 
ATOM     24  C   LIG    1       -9.040   1.303  -4.264  0.00  0.00    +0.010 A 
ATOM     25  C   LIG    1       -9.743   0.127  -4.458  0.00  0.00    +0.020 A 
ATOM     26  C   LIG    1       -9.383  -1.022  -3.776  0.00  0.00    +0.020 A 
ATOM     27  C   LIG    1       -8.320  -1.002  -2.898  0.00  0.00    +0.040 A 
ENDBRANCH  20  22
ENDBRANCH  16  17
ENDBRANCH   1  16
TORSDOF 4
