REMARK  Name = ZINCrH000004klCI.0
REMARK                            x       y       z     vdW  Elec       q    Type
REMARK                         _______ _______ _______ _____ _____    ______ ____
ROOT
ATOM      1  C   LIG    1        0.009   1.478  -2.491  0.00  0.00    +0.420 A 
ATOM      2  N   LIG    1        0.993   2.234  -2.954  0.00  0.00    -0.550 NA
ATOM      3  C   LIG    1        1.683   1.887  -4.039  0.00  0.00    +0.390 A 
ATOM      4  N   LIG    1        1.431   0.788  -4.724  0.00  0.00    -0.510 NA
ATOM      5  C   LIG    1        0.451  -0.042  -4.340  0.00  0.00    +0.170 A 
ATOM      6  C   LIG    1        0.157  -1.217  -5.045  0.00  0.00    +0.030 A 
ATOM      7  C   LIG    1       -0.851  -2.027  -4.612  0.00  0.00    +0.070 A 
ATOM      8  C   LIG    1       -1.594  -1.705  -3.480  0.00  0.00    +0.000 A 
ATOM      9  C   LIG    1       -1.333  -0.569  -2.771  0.00  0.00    +0.080 A 
ATOM     10  C   LIG    1       -0.307   0.284  -3.188  0.00  0.00    -0.150 A 
ENDROOT
BRANCH   3  11
ATOM     11  C   LIG    1        2.777   2.776  -4.499  0.00  0.00    -0.100 A 
ATOM     12  C   LIG    1        3.452   2.511  -5.694  0.00  0.00    +0.120 A 
ATOM     13  C   LIG    1        4.466   3.372  -6.080  0.00  0.00    -0.040 A 
ATOM     14  C   LIG    1        4.774   4.456  -5.278  0.00  0.00    +0.280 A 
ATOM     15  N   LIG    1        4.119   4.680  -4.156  0.00  0.00    -0.490 NA
ATOM     16  C   LIG    1        3.144   3.893  -3.750  0.00  0.00    +0.320 A 
ENDBRANCH   3  11
BRANCH   1  17
ATOM     17  N   LIG    1       -0.694   1.845  -1.363  0.00  0.00    -0.490 N 
BRANCH  17  18
ATOM     18  C   LIG    1        0.014   1.433  -0.144  0.00  0.00    +0.230 C 
BRANCH  18  19
ATOM     19  C   LIG    1       -0.921   1.567   1.059  0.00  0.00    +0.120 C 
BRANCH  19  20
ATOM     20  C   LIG    1       -0.195   1.145   2.310  0.00  0.00    +0.460 C 
ATOM     21  O   LIG    1        0.954   0.775   2.246  0.00  0.00    -0.510 OA
BRANCH  20  23
ATOM     22  C   LIG    1       -0.062   0.759   4.658  0.00  0.00    +0.260 C 
ATOM     23  O   LIG    1       -0.823   1.180   3.496  0.00  0.00    -0.360 OA
ENDBRANCH  20  23
ENDBRANCH  19  20
ENDBRANCH  18  19
ENDBRANCH  17  18
BRANCH  17  24
ATOM     24  C   LIG    1       -0.960   3.289  -1.356  0.00  0.00    +0.210 C 
BRANCH  24  25
ATOM     25  C   LIG    1       -2.049   3.613  -2.380  0.00  0.00    -0.010 C 
ATOM     26  C   LIG    1       -1.514   3.357  -3.791  0.00  0.00    +0.010 C 
ATOM     27  C   LIG    1       -2.454   5.083  -2.247  0.00  0.00    +0.030 C 
ENDBRANCH  24  25
ENDBRANCH  17  24
ENDBRANCH   1  17
TORSDOF 8
