REMARK  Name = ZINCnE000001KbsS.1
REMARK                            x       y       z     vdW  Elec       q    Type
REMARK                         _______ _______ _______ _____ _____    ______ ____
ROOT
ATOM      1  C   LIG    1        1.280   1.980   0.001  0.00  0.00    -0.050 C 
ATOM      2  C   LIG    1        1.361   2.854   1.254  0.00  0.00    +0.050 C 
ATOM      3  C   LIG    1        1.337   2.867  -1.245  0.00  0.00    +0.050 C 
ENDROOT
BRANCH   1   5
ATOM      4  N   LIG    1       -1.191   1.867   0.018  0.00  0.00    -0.650 NA
ATOM      5  C   LIG    1       -0.014   1.209   0.009  0.00  0.00    +0.460 C 
ATOM      6  O   LIG    1        0.002  -0.004   0.002  0.00  0.00    -0.610 OA
BRANCH   4  10
ATOM      7  C   LIG    1       -4.595   0.861   0.028  0.00  0.00    +0.090 A 
ATOM      8  C   LIG    1       -4.267  -0.432   0.018  0.00  0.00    -0.190 A 
ATOM      9  S   LIG    1       -2.509  -0.550   0.004  0.00  0.00    +0.020 S 
ATOM     10  C   LIG    1       -2.385   1.155   0.020  0.00  0.00    +0.350 A 
ATOM     11  N   LIG    1       -3.566   1.688   0.028  0.00  0.00    -0.560 NA
BRANCH   7  12
ATOM     12  C   LIG    1       -6.024   1.339   0.037  0.00  0.00    +0.270 C 
BRANCH  12  14
ATOM     13  C   LIG    1       -8.290   0.556   0.041  0.00  0.00    +0.190 C 
ATOM     14  O   LIG    1       -6.903   0.212   0.033  0.00  0.00    -0.390 OA
ENDBRANCH  12  14
ENDBRANCH   7  12
ENDBRANCH   4  10
ENDBRANCH   1   5
BRANCH   1  15
ATOM     15  C   LIG    1        2.457   1.002  -0.016  0.00  0.00    +0.190 C 
BRANCH  15  16
ATOM     16  O   LIG    1        3.684   1.733  -0.024  0.00  0.00    -0.380 OA
BRANCH  16  17
ATOM     17  C   LIG    1        4.852   0.909  -0.039  0.00  0.00    +0.200 C 
BRANCH  17  18
ATOM     18  C   LIG    1        6.081   1.780  -0.046  0.00  0.00    -0.080 A 
ATOM     19  C   LIG    1        6.637   2.181  -1.247  0.00  0.00    +0.020 A 
ATOM     20  C   LIG    1        7.763   2.984  -1.253  0.00  0.00    +0.000 A 
ATOM     21  C   LIG    1        8.338   3.377  -0.059  0.00  0.00    +0.000 A 
ATOM     22  C   LIG    1        7.785   2.971   1.141  0.00  0.00    +0.000 A 
ATOM     23  C   LIG    1        6.657   2.173   1.147  0.00  0.00    +0.020 A 
ENDBRANCH  17  18
ENDBRANCH  16  17
ENDBRANCH  15  16
ENDBRANCH   1  15
TORSDOF 8
