REMARK  Name = ZINCqH0000004HsZ.0
REMARK                            x       y       z     vdW  Elec       q    Type
REMARK                         _______ _______ _______ _____ _____    ______ ____
ROOT
ATOM      1  C   LIG    1        0.879   8.526   0.003  0.00  0.00    +0.240 C 
ENDROOT
BRANCH   1   4
ATOM      2  N   LIG    1       -0.757  10.257  -0.665  0.00  0.00    -0.680 N 
ATOM      3  H   LIG    1       -0.247  10.380  -1.481  0.00  0.00    +0.410 HD
ATOM      4  C   LIG    1       -0.380   9.323   0.231  0.00  0.00    +0.520 C 
ATOM      5  O   LIG    1       -1.052   9.125   1.220  0.00  0.00    -0.490 OA
BRANCH   2  12
ATOM      6  C   LIG    1       -1.746  12.412  -0.204  0.00  0.00    -0.080 A 
ATOM      7  C   LIG    1       -2.862  13.189   0.033  0.00  0.00    +0.010 A 
ATOM      8  C   LIG    1       -4.117  12.609   0.069  0.00  0.00    +0.020 A 
ATOM      9  C   LIG    1       -4.259  11.249  -0.140  0.00  0.00    +0.010 A 
ATOM     10  C   LIG    1       -3.147  10.466  -0.383  0.00  0.00    -0.060 A 
ATOM     11  C   LIG    1       -3.302   8.985  -0.610  0.00  0.00    +0.100 C 
ATOM     12  C   LIG    1       -1.886  11.046  -0.419  0.00  0.00    +0.130 A 
BRANCH   6  14
ATOM     13  C   LIG    1       -0.007  13.383  -1.681  0.00  0.00    +0.020 C 
ATOM     14  C   LIG    1       -0.379  13.044  -0.236  0.00  0.00    +0.060 C 
ENDBRANCH   6  14
ENDBRANCH   2  12
ENDBRANCH   1   4
BRANCH   1  15
ATOM     15  O   LIG    1        1.063   7.608   1.083  0.00  0.00    -0.280 OA
BRANCH  15  16
ATOM     16  C   LIG    1        2.160   6.807   1.031  0.00  0.00    +0.160 A 
ATOM     17  C   LIG    1        3.040   6.904  -0.037  0.00  0.00    -0.110 A 
ATOM     18  C   LIG    1        4.156   6.090  -0.091  0.00  0.00    +0.080 A 
ATOM     19  C   LIG    1        4.402   5.183   0.921  0.00  0.00    -0.060 A 
ATOM     20  C   LIG    1        3.521   5.078   1.990  0.00  0.00    +0.210 A 
ATOM     21  C   LIG    1        2.400   5.894   2.046  0.00  0.00    -0.030 A 
BRANCH  20  22
ATOM     22  N   LIG    1        3.767   4.155   3.013  0.00  0.00    -0.560 N 
ATOM     23  C   LIG    1        4.852   3.167   2.993  0.00  0.00    +0.260 C 
ATOM     24  C   LIG    1        5.004   2.693   4.455  0.00  0.00    +0.060 C 
ATOM     25  C   LIG    1        3.592   2.963   5.024  0.00  0.00    +0.070 C 
ATOM     26  C   LIG    1        3.040   4.059   4.139  0.00  0.00    +0.510 C 
ATOM     27  O   LIG    1        2.078   4.749   4.406  0.00  0.00    -0.500 OA
ENDBRANCH  20  22
ENDBRANCH  15  16
ENDBRANCH   1  15
TORSDOF 6
