REMARK  Name = ZINCrD00000hQ6wd.0
REMARK                            x       y       z     vdW  Elec       q    Type
REMARK                         _______ _______ _______ _____ _____    ______ ____
ROOT
ATOM      1  C   LIG    1        6.025   3.380  -0.878  0.00  0.00    +0.530 C 
ATOM      2  N   LIG    1        4.930   3.694  -0.158  0.00  0.00    -0.710 N 
ATOM      3  H   LIG    1        4.987   4.358   0.547  0.00  0.00    +0.410 HD
ATOM      4  O   LIG    1        5.953   2.550  -1.760  0.00  0.00    -0.530 OA
ENDROOT
BRANCH   2   5
ATOM      5  C   LIG    1        3.653   3.033  -0.440  0.00  0.00    +0.210 C 
ATOM      6  C   LIG    1        3.568   1.714   0.341  0.00  0.00    +0.240 C 
ATOM      7  O   LIG    1        2.354   1.057  -0.024  0.00  0.00    -0.310 OA
ATOM      8  C   LIG    1        1.203   1.780   0.000  0.00  0.00    +0.140 A 
ATOM      9  C   LIG    1        1.210   3.142   0.010  0.00  0.00    -0.160 A 
ATOM     10  C   LIG    1       -0.010   3.845   0.022  0.00  0.00    -0.010 A 
ATOM     11  C   LIG    1       -0.035   5.250   0.027  0.00  0.00    +0.010 A 
ATOM     12  C   LIG    1       -1.230   5.902   0.041  0.00  0.00    +0.020 A 
ATOM     13  C   LIG    1       -2.432   5.198   0.049  0.00  0.00    -0.010 A 
ATOM     14  C   LIG    1       -2.446   3.836   0.043  0.00  0.00    +0.040 A 
ATOM     15  C   LIG    1       -1.232   3.129   0.029  0.00  0.00    -0.080 A 
ATOM     16  C   LIG    1       -1.205   1.724   0.017  0.00  0.00    +0.070 A 
ATOM     17  C   LIG    1       -0.013   1.076   0.008  0.00  0.00    +0.000 A 
ATOM     18  C   LIG    1        2.497   3.928   0.011  0.00  0.00    +0.090 C 
ENDBRANCH   2   5
BRANCH   1  28
ATOM     19  C   LIG    1       10.823   3.731  -2.178  0.00  0.00    +0.030 C 
ATOM     20  C   LIG    1        9.794   4.024  -1.084  0.00  0.00    -0.020 C 
ATOM     21  C   LIG    1       10.211   3.317   0.211  0.00  0.00    +0.100 C 
ATOM     22  C   LIG    1        9.073   3.428   1.196  0.00  0.00    -0.230 A 
ATOM     23  C   LIG    1        9.099   3.233   2.527  0.00  0.00    +0.250 A 
ATOM     24  N   LIG    1        7.849   3.445   2.996  0.00  0.00    -0.480 N 
ATOM     25  H   LIG    1        7.568   3.377   3.922  0.00  0.00    +0.440 HD
ATOM     26  N   LIG    1        7.029   3.781   1.908  0.00  0.00    -0.290 NA
ATOM     27  C   LIG    1        7.759   3.770   0.832  0.00  0.00    +0.080 A 
ATOM     28  C   LIG    1        7.338   4.060  -0.588  0.00  0.00    +0.100 C 
ATOM     29  C   LIG    1        8.420   3.518  -1.530  0.00  0.00    +0.070 C 
ENDBRANCH   1  28
TORSDOF 2
