REMARK  Name = ZINCtV00000L6kiR.0
REMARK                            x       y       z     vdW  Elec       q    Type
REMARK                         _______ _______ _______ _____ _____    ______ ____
ROOT
ATOM      1  C   LIG    1        1.111   3.281  -0.351  0.00  0.00    +0.250 A 
ATOM      2  C   LIG    1        1.069   1.923  -0.463  0.00  0.00    -0.130 A 
ATOM      3  C   LIG    1       -0.099   1.221  -0.100  0.00  0.00    +0.420 A 
ATOM      4  C   LIG    1       -1.251   1.998   0.390  0.00  0.00    -0.210 A 
ATOM      5  C   LIG    1       -2.441   1.373   0.762  0.00  0.00    +0.150 A 
ATOM      6  C   LIG    1       -3.491   2.124   1.211  0.00  0.00    -0.040 A 
ATOM      7  C   LIG    1       -3.381   3.507   1.301  0.00  0.00    +0.160 A 
ATOM      8  C   LIG    1       -2.207   4.144   0.948  0.00  0.00    -0.060 A 
ATOM      9  F   LIG    1       -4.428   4.234   1.748  0.00  0.00    -0.130 F 
ATOM     10  C   LIG    1       -1.131   3.396   0.483  0.00  0.00    +0.230 A 
ATOM     11  O   LIG    1       -0.155   0.005  -0.193  0.00  0.00    -0.490 OA
ATOM     12  N   LIG    1        0.048   4.006   0.107  0.00  0.00    -0.450 N 
ENDROOT
BRANCH   1  17
ATOM     13  C   LIG    1        5.926   6.047  -1.859  0.00  0.00    +0.100 C 
ATOM     14  C   LIG    1        4.665   5.323  -1.464  0.00  0.00    -0.060 A 
ATOM     15  C   LIG    1        4.733   4.239  -0.606  0.00  0.00    +0.010 A 
ATOM     16  C   LIG    1        3.583   3.572  -0.240  0.00  0.00    +0.050 A 
ATOM     17  C   LIG    1        2.348   3.992  -0.738  0.00  0.00    -0.090 A 
ATOM     18  C   LIG    1        2.287   5.082  -1.608  0.00  0.00    +0.040 A 
ATOM     19  C   LIG    1        3.444   5.744  -1.962  0.00  0.00    +0.010 A 
ENDBRANCH   1  17
BRANCH  12  20
ATOM     20  C   LIG    1        0.157   5.398   0.197  0.00  0.00    +0.100 A 
ATOM     21  C   LIG    1       -0.534   6.210  -0.693  0.00  0.00    +0.020 A 
ATOM     22  C   LIG    1       -0.428   7.584  -0.598  0.00  0.00    +0.030 A 
ATOM     23  C   LIG    1        0.374   8.151   0.376  0.00  0.00    -0.050 A 
ATOM     24  C   LIG    1        1.069   7.345   1.260  0.00  0.00    +0.030 A 
ATOM     25  C   LIG    1        0.963   5.971   1.174  0.00  0.00    +0.040 A 
BRANCH  23  26
ATOM     26  C   LIG    1        0.493   9.650   0.473  0.00  0.00    -0.030 C 
ATOM     27  C   LIG    1        0.012  10.111   1.851  0.00  0.00    +0.040 C 
ATOM     28  C   LIG    1       -0.368  10.301  -0.612  0.00  0.00    +0.030 C 
ATOM     29  C   LIG    1        1.954  10.060   0.279  0.00  0.00    +0.040 C 
ENDBRANCH  23  26
ENDBRANCH  12  20
TORSDOF 3
