REMARK  Name = ZINCrH000004ukt1.0
REMARK                            x       y       z     vdW  Elec       q    Type
REMARK                         _______ _______ _______ _____ _____    ______ ____
ROOT
ATOM      1  O   LIG    1        2.368  -3.795  -3.688  0.00  0.00    -0.530 OA
ATOM      2  C   LIG    1        2.684  -4.333  -2.645  0.00  0.00    +0.570 C 
ATOM      3  N   LIG    1        2.546  -3.674  -1.477  0.00  0.00    -0.730 N 
ATOM      4  H   LIG    1        2.798  -4.103  -0.645  0.00  0.00    +0.400 HD
ENDROOT
BRANCH   2   5
ATOM      5  C   LIG    1        3.219  -5.710  -2.656  0.00  0.00    -0.260 A 
ATOM      6  C   LIG    1        3.594  -6.345  -1.465  0.00  0.00    +0.360 A 
ATOM      7  N   LIG    1        4.062  -7.578  -1.518  0.00  0.00    -0.510 NA
ATOM      8  C   LIG    1        4.190  -8.209  -2.678  0.00  0.00    +0.390 A 
ATOM      9  N   LIG    1        3.851  -7.640  -3.828  0.00  0.00    -0.510 NA
ATOM     10  C   LIG    1        3.370  -6.412  -3.859  0.00  0.00    +0.410 A 
BRANCH   8  11
ATOM     11  C   LIG    1        4.727  -9.591  -2.689  0.00  0.00    -0.060 A 
ATOM     12  C   LIG    1        4.865 -10.277  -3.895  0.00  0.00    +0.080 A 
ATOM     13  C   LIG    1        5.371 -11.561  -3.900  0.00  0.00    +0.000 A 
ATOM     14  C   LIG    1        5.730 -12.171  -2.712  0.00  0.00    +0.040 A 
ATOM     15  C   LIG    1        5.589 -11.497  -1.512  0.00  0.00    +0.000 A 
ATOM     16  C   LIG    1        5.090 -10.211  -1.494  0.00  0.00    +0.080 A 
ENDBRANCH   8  11
ENDBRANCH   2   5
BRANCH   3  17
ATOM     17  C   LIG    1        2.015  -2.308  -1.466  0.00  0.00    +0.260 C 
BRANCH  17  18
ATOM     18  C   LIG    1        1.962  -1.794  -0.025  0.00  0.00    +0.110 C 
BRANCH  18  19
ATOM     19  C   LIG    1        1.416  -0.390  -0.013  0.00  0.00    -0.170 A 
ATOM     20  C   LIG    1        2.132   0.745  -0.014  0.00  0.00    +0.240 A 
ATOM     21  N   LIG    1        1.293   1.827  -0.001  0.00  0.00    -0.590 N 
ATOM     22  H   LIG    1        1.579   2.754   0.002  0.00  0.00    +0.420 HD
ATOM     23  C   LIG    1       -0.017   1.403   0.010  0.00  0.00    +0.120 A 
ATOM     24  C   LIG    1       -1.238   2.068   0.030  0.00  0.00    -0.040 A 
ATOM     25  C   LIG    1       -2.413   1.344   0.034  0.00  0.00    +0.120 A 
ATOM     26  C   LIG    1       -2.387  -0.046   0.025  0.00  0.00    -0.040 A 
ATOM     27  C   LIG    1       -1.198  -0.718   0.010  0.00  0.00    +0.090 A 
ATOM     28  F   LIG    1       -3.598   1.992   0.049  0.00  0.00    -0.140 F 
ATOM     29  C   LIG    1        0.002  -0.004   0.002  0.00  0.00    -0.110 A 
ENDBRANCH  18  19
ENDBRANCH  17  18
ENDBRANCH   3  17
TORSDOF 5
