REMARK  Name = ZINCrD00000hQ4lM.0
REMARK                            x       y       z     vdW  Elec       q    Type
REMARK                         _______ _______ _______ _____ _____    ______ ____
ROOT
ATOM      1  O   LIG    1       -0.692   1.554   1.203  0.00  0.00    -0.320 OA
ENDROOT
BRANCH   1   3
ATOM      2  C   LIG    1       -0.753   1.593  -1.232  0.00  0.00    +0.070 C 
ATOM      3  C   LIG    1       -0.013   1.086   0.008  0.00  0.00    +0.190 C 
BRANCH   3   4
ATOM      4  C   LIG    1        1.401   1.607  -0.003  0.00  0.00    +0.520 C 
ATOM      5  N   LIG    1        2.226   1.299  -1.023  0.00  0.00    -0.720 N 
ATOM      6  H   LIG    1        1.909   0.741  -1.751  0.00  0.00    +0.400 HD
ATOM      7  O   LIG    1        1.797   2.305   0.907  0.00  0.00    -0.510 OA
BRANCH   5   8
ATOM      8  C   LIG    1        3.600   1.806  -1.034  0.00  0.00    +0.240 C 
ATOM      9  C   LIG    1        3.620   3.212  -1.636  0.00  0.00    +0.000 C 
ATOM     10  C   LIG    1        5.056   3.742  -1.647  0.00  0.00    +0.020 C 
ATOM     11  C   LIG    1        5.935   2.814  -2.487  0.00  0.00    +0.010 C 
ATOM     12  C   LIG    1        5.915   1.408  -1.885  0.00  0.00    +0.030 C 
ATOM     13  C   LIG    1        4.479   0.878  -1.874  0.00  0.00    -0.020 C 
ATOM     14  C   LIG    1        4.459  -0.528  -1.272  0.00  0.00    +0.020 C 
ENDBRANCH   5   8
ENDBRANCH   3   4
ENDBRANCH   1   3
BRANCH   1  15
ATOM     15  C   LIG    1       -1.655   0.765   1.705  0.00  0.00    +0.480 C 
ATOM     16  O   LIG    1       -1.921  -0.283   1.165  0.00  0.00    -0.490 OA
BRANCH  15  17
ATOM     17  C   LIG    1       -2.404   1.185   2.943  0.00  0.00    +0.160 C 
BRANCH  17  18
ATOM     18  S   LIG    1       -3.627  -0.080   3.367  0.00  0.00    +0.050 S 
BRANCH  18  19
ATOM     19  C   LIG    1       -4.334   0.648   4.808  0.00  0.00    +0.070 A 
ATOM     20  N   LIG    1       -3.892   1.816   5.236  0.00  0.00    -0.440 NA
ATOM     21  C   LIG    1       -4.431   2.367   6.331  0.00  0.00    +0.100 A 
ATOM     22  C   LIG    1       -3.982   3.609   6.811  0.00  0.00    +0.050 A 
ATOM     23  C   LIG    1       -4.549   4.147   7.926  0.00  0.00    +0.050 A 
ATOM     24  C   LIG    1       -5.570   3.482   8.601  0.00  0.00    +0.040 A 
ATOM     25  C   LIG    1       -6.030   2.277   8.165  0.00  0.00    +0.060 A 
ATOM     26  C   LIG    1       -5.469   1.692   7.017  0.00  0.00    +0.070 A 
ATOM     27  N   LIG    1       -5.903   0.507   6.566  0.00  0.00    -0.410 NA
ATOM     28  C   LIG    1       -5.370  -0.016   5.490  0.00  0.00    +0.290 A 
ENDBRANCH  18  19
ENDBRANCH  17  18
ENDBRANCH  15  17
ENDBRANCH   1  15
TORSDOF 7
