REMARK  Name = ZINCrD000000D87s.0
REMARK                            x       y       z     vdW  Elec       q    Type
REMARK                         _______ _______ _______ _____ _____    ______ ____
ROOT
ATOM      1  N   LIG    1       -2.350   5.901  -1.433  0.00  0.00    -0.940 N 
ENDROOT
BRANCH   1   6
ATOM      2  O   LIG    1       -3.891   6.489  -5.802  0.00  0.00    -0.930 OA
ATOM      3  S   LIG    1       -3.728   6.013  -4.473  0.00  0.00    +2.430 S 
ATOM      4  C   LIG    1       -4.593   7.175  -3.441  0.00  0.00    -0.440 C 
ATOM      5  C   LIG    1       -3.779   7.539  -2.490  0.00  0.00    +0.080 C 
ATOM      6  C   LIG    1       -2.402   6.956  -2.448  0.00  0.00    +0.300 C 
ATOM      7  O   LIG    1       -4.188   4.730  -4.071  0.00  0.00    -0.900 OA
ATOM      8  C   LIG    1       -2.041   6.359  -3.832  0.00  0.00    -0.280 C 
ENDBRANCH   1   6
BRANCH   1   9
ATOM      9  C   LIG    1       -3.086   4.726  -1.610  0.00  0.00    +0.090 A 
ATOM     10  C   LIG    1       -4.307   4.566  -0.967  0.00  0.00    +0.040 A 
ATOM     11  C   LIG    1       -5.034   3.406  -1.147  0.00  0.00    +0.020 A 
ATOM     12  C   LIG    1       -4.543   2.400  -1.958  0.00  0.00    +0.040 A 
ATOM     13  C   LIG    1       -3.325   2.553  -2.596  0.00  0.00    +0.040 A 
ATOM     14  C   LIG    1       -2.595   3.713  -2.424  0.00  0.00    +0.030 A 
ENDBRANCH   1   9
BRANCH   1  15
ATOM     15  S   LIG    1       -1.421   6.099  -0.078  0.00  0.00    +2.680 S 
ATOM     16  O   LIG    1       -1.393   7.495   0.189  0.00  0.00    -0.950 OA
ATOM     17  O   LIG    1       -1.874   5.137   0.864  0.00  0.00    -0.930 OA
BRANCH  15  18
ATOM     18  C   LIG    1        0.227   5.641  -0.503  0.00  0.00    -0.680 A 
ATOM     19  C   LIG    1        1.201   6.588  -0.583  0.00  0.00    +0.160 A 
ATOM     20  C   LIG    1        2.510   6.245  -0.918  0.00  0.00    -0.010 A 
ATOM     21  C   LIG    1        2.851   4.954  -1.177  0.00  0.00    +0.100 A 
ATOM     22  C   LIG    1        1.872   3.948  -1.105  0.00  0.00    -0.070 A 
ATOM     23  C   LIG    1        2.187   2.603  -1.365  0.00  0.00    +0.030 A 
ATOM     24  C   LIG    1        1.212   1.656  -1.287  0.00  0.00    +0.010 A 
ATOM     25  C   LIG    1       -0.097   2.000  -0.956  0.00  0.00    +0.050 A 
ATOM     26  C   LIG    1       -0.438   3.291  -0.692  0.00  0.00    +0.010 A 
ATOM     27  C   LIG    1        0.541   4.297  -0.763  0.00  0.00    +0.030 A 
ENDBRANCH  15  18
ENDBRANCH   1  15
TORSDOF 4
