REMARK  Name = ZINCrD0000070YS4.0
REMARK                            x       y       z     vdW  Elec       q    Type
REMARK                         _______ _______ _______ _____ _____    ______ ____
ROOT
ATOM      1  N   LIG    1       -0.931  -9.056   0.957  0.00  0.00    -0.490 N 
ATOM      2  C   LIG    1       -2.160  -8.266   1.105  0.00  0.00    +0.190 C 
ATOM      3  C   LIG    1       -2.234  -7.228  -0.020  0.00  0.00    +0.290 C 
ATOM      4  N   LIG    1       -0.988  -6.447  -0.018  0.00  0.00    -0.620 N 
ATOM      5  C   LIG    1        0.290  -7.175  -0.033  0.00  0.00    +0.300 C 
ATOM      6  C   LIG    1       -1.016  -5.099  -0.008  0.00  0.00    +0.520 C 
ATOM      7  O   LIG    1       -2.079  -4.515  -0.002  0.00  0.00    -0.530 OA
ATOM      8  C   LIG    1        0.265  -8.215   1.099  0.00  0.00    +0.190 C 
ENDROOT
BRANCH   1  12
ATOM      9  C   LIG    1       -0.857 -12.212   3.654  0.00  0.00    -0.200 A 
ATOM     10  C   LIG    1        0.209 -12.023   2.764  0.00  0.00    +0.110 A 
ATOM     11  C   LIG    1        0.180 -10.984   1.878  0.00  0.00    -0.020 A 
ATOM     12  C   LIG    1       -0.906 -10.112   1.859  0.00  0.00    +0.150 A 
ATOM     13  C   LIG    1       -1.965 -10.293   2.745  0.00  0.00    -0.060 A 
ATOM     14  C   LIG    1       -1.948 -11.332   3.631  0.00  0.00    +0.100 A 
BRANCH   9  16
ATOM     15  C   LIG    1       -1.915 -13.456   5.646  0.00  0.00    +0.070 C 
ATOM     16  C   LIG    1       -0.831 -13.326   4.608  0.00  0.00    +0.400 C 
ATOM     17  O   LIG    1        0.064 -14.144   4.561  0.00  0.00    -0.460 OA
ENDBRANCH   9  16
ENDBRANCH   1  12
BRANCH   6  18
ATOM     18  C   LIG    1        0.273  -4.318  -0.006  0.00  0.00    +0.050 C 
BRANCH  18  19
ATOM     19  C   LIG    1       -0.039  -2.820   0.005  0.00  0.00    +0.280 C 
BRANCH  19  20
ATOM     20  N   LIG    1        1.214  -2.061   0.007  0.00  0.00    -0.750 N 
ATOM     21  H   LIG    1        2.064  -2.529   0.001  0.00  0.00    +0.400 HD
BRANCH  20  22
ATOM     22  C   LIG    1        1.185  -0.665   0.016  0.00  0.00    +0.210 A 
ATOM     23  C   LIG    1       -0.031   0.006   0.024  0.00  0.00    -0.070 A 
ATOM     24  C   LIG    1       -0.057   1.387   0.034  0.00  0.00    +0.040 A 
ATOM     25  C   LIG    1        1.127   2.101   0.035  0.00  0.00    -0.050 A 
ATOM     26  C   LIG    1        2.340   1.437   0.027  0.00  0.00    +0.040 A 
ATOM     27  C   LIG    1        2.373   0.057   0.018  0.00  0.00    -0.160 A 
ATOM     28  C   LIG    1        3.695  -0.667   0.009  0.00  0.00    +0.090 C 
ENDBRANCH  20  22
ENDBRANCH  19  20
ENDBRANCH  18  19
ENDBRANCH   6  18
TORSDOF 6
