REMARK  Name = ZINCAx0000000dOn.0
REMARK                            x       y       z     vdW  Elec       q    Type
REMARK                         _______ _______ _______ _____ _____    ______ ____
ROOT
ATOM      1  C   LIG    1       -7.285   1.135   2.703  0.00  0.00    +0.350 C 
ATOM      2  C   LIG    1       -6.526   1.271   4.003  0.00  0.00    -0.220 C 
ATOM      3  C   LIG    1       -7.448   1.453   4.976  0.00  0.00    +0.100 C 
ATOM      4  C   LIG    1       -8.797   1.453   4.373  0.00  0.00    +0.520 C 
ATOM      5  O   LIG    1       -9.836   1.597   4.987  0.00  0.00    -0.510 OA
ATOM      6  N   LIG    1       -8.707   1.263   3.044  0.00  0.00    -0.590 N 
ENDROOT
BRANCH   1  10
ATOM      7  C   LIG    1       -6.533  -2.693   0.958  0.00  0.00    +0.140 A 
ATOM      8  C   LIG    1       -6.006  -1.548   0.377  0.00  0.00    -0.020 A 
ATOM      9  C   LIG    1       -6.250  -0.312   0.943  0.00  0.00    +0.070 A 
ATOM     10  C   LIG    1       -7.020  -0.215   2.088  0.00  0.00    -0.140 A 
ATOM     11  C   LIG    1       -7.541  -1.354   2.672  0.00  0.00    +0.080 A 
ATOM     12  C   LIG    1       -7.304  -2.592   2.106  0.00  0.00    -0.080 A 
BRANCH   7  14
ATOM     13  C   LIG    1       -6.868  -5.044   1.054  0.00  0.00    +0.250 C 
ATOM     14  O   LIG    1       -6.294  -3.910   0.402  0.00  0.00    -0.310 OA
ENDBRANCH   7  14
ENDBRANCH   1  10
BRANCH   3  15
ATOM     15  O   LIG    1       -7.178   1.613   6.292  0.00  0.00    -0.430 OA
ATOM     16  H   LIG    1       -7.963   1.730   6.844  0.00  0.00    +0.410 HD
ENDBRANCH   3  15
BRANCH   2  17
ATOM     17  C   LIG    1       -5.071   1.212   4.176  0.00  0.00    +0.480 C 
ATOM     18  O   LIG    1       -4.569   0.295   4.800  0.00  0.00    -0.420 OA
BRANCH  17  19
ATOM     19  C   LIG    1       -4.215   2.265   3.594  0.00  0.00    -0.160 A 
ATOM     20  C   LIG    1       -4.783   3.286   2.827  0.00  0.00    +0.070 A 
ATOM     21  C   LIG    1       -3.982   4.265   2.284  0.00  0.00    +0.020 A 
ATOM     22  C   LIG    1       -2.608   4.244   2.496  0.00  0.00    +0.090 A 
ATOM     23  O   LIG    1       -1.836   5.219   1.948  0.00  0.00    -0.300 OA
ATOM     24  C   LIG    1       -0.521   5.381   2.490  0.00  0.00    +0.230 C 
ATOM     25  C   LIG    1        0.122   3.994   2.616  0.00  0.00    +0.230 C 
ATOM     26  O   LIG    1       -0.692   3.199   3.486  0.00  0.00    -0.300 OA
ATOM     27  C   LIG    1       -2.035   3.230   3.262  0.00  0.00    +0.040 A 
ATOM     28  C   LIG    1       -2.834   2.243   3.809  0.00  0.00    +0.100 A 
ENDBRANCH  17  19
ENDBRANCH   2  17
BRANCH   6  29
ATOM     29  C   LIG    1       -9.828   1.197   2.104  0.00  0.00    +0.320 C 
BRANCH  29  30
ATOM     30  C   LIG    1      -10.300  -0.253   1.975  0.00  0.00    +0.020 C 
BRANCH  30  31
ATOM     31  C   LIG    1      -11.471  -0.322   0.993  0.00  0.00    +0.180 C 
BRANCH  31  32
ATOM     32  N   LIG    1      -11.924  -1.714   0.869  0.00  0.00    -0.530 NA
ATOM     33  C   LIG    1      -10.894  -2.549   0.234  0.00  0.00    +0.150 C 
ATOM     34  C   LIG    1      -11.383  -3.999   0.179  0.00  0.00    +0.220 C 
ATOM     35  O   LIG    1      -12.629  -4.051  -0.521  0.00  0.00    -0.380 OA
ATOM     36  C   LIG    1      -13.655  -3.250   0.071  0.00  0.00    +0.220 C 
ATOM     37  C   LIG    1      -13.190  -1.792   0.125  0.00  0.00    +0.150 C 
ENDBRANCH  31  32
ENDBRANCH  30  31
ENDBRANCH  29  30
ENDBRANCH   6  29
TORSDOF 9
