REMARK  Name = ZINCpe000000UxNS.0
REMARK                            x       y       z     vdW  Elec       q    Type
REMARK                         _______ _______ _______ _____ _____    ______ ____
ROOT
ATOM      1  C   LIG    1       -0.480   5.149  -0.052  0.00  0.00    +0.560 C 
ATOM      2  N   LIG    1        0.567   5.986   0.088  0.00  0.00    -0.730 N 
ATOM      3  H   LIG    1        1.464   5.629   0.176  0.00  0.00    +0.400 HD
ATOM      4  O   LIG    1       -1.606   5.597  -0.162  0.00  0.00    -0.460 OA
ENDROOT
BRANCH   2   5
ATOM      5  C   LIG    1        0.350   7.434   0.107  0.00  0.00    +0.280 C 
ATOM      6  C   LIG    1        1.624   8.146  -0.356  0.00  0.00    +0.040 C 
ATOM      7  C   LIG    1        2.683   8.007   0.744  0.00  0.00    +0.030 C 
ATOM      8  C   LIG    1        2.232   8.812   1.963  0.00  0.00    +0.270 C 
ATOM      9  N   LIG    1        0.863   8.464   2.325  0.00  0.00    -0.540 N 
ATOM     10  C   LIG    1        0.000   7.868   1.502  0.00  0.00    +0.500 C 
ATOM     11  O   LIG    1       -1.127   7.665   1.901  0.00  0.00    -0.500 OA
BRANCH   9  12
ATOM     12  C   LIG    1        0.428   8.776   3.613  0.00  0.00    +0.300 A 
ATOM     13  C   LIG    1       -0.081   9.970   4.023  0.00  0.00    -0.100 A 
ATOM     14  C   LIG    1       -0.390   9.859   5.382  0.00  0.00    +0.240 A 
ATOM     15  N   LIG    1       -0.081   8.651   5.777  0.00  0.00    -0.280 NA
ATOM     16  N   LIG    1        0.431   7.945   4.681  0.00  0.00    -0.370 N 
ATOM     17  C   LIG    1        0.892   6.555   4.689  0.00  0.00    +0.350 C 
ENDBRANCH   9  12
ENDBRANCH   2   5
BRANCH   1  23
ATOM     18  C   LIG    1       -1.352   2.804  -0.100  0.00  0.00    +0.350 A 
ATOM     19  N   LIG    1       -1.149   1.496  -0.123  0.00  0.00    -0.520 NA
ATOM     20  C   LIG    1        0.065   0.981  -0.108  0.00  0.00    +0.300 A 
ATOM     21  C   LIG    1        1.186   1.790  -0.080  0.00  0.00    -0.030 A 
ATOM     22  C   LIG    1        1.035   3.165  -0.061  0.00  0.00    +0.100 A 
ATOM     23  C   LIG    1       -0.262   3.691  -0.071  0.00  0.00    -0.160 A 
BRANCH  18  25
ATOM     24  C   LIG    1       -3.397   2.779  -1.258  0.00  0.00    +0.220 C 
ATOM     25  N   LIG    1       -2.642   3.301  -0.111  0.00  0.00    -0.480 N 
ATOM     26  C   LIG    1       -3.331   3.004   1.152  0.00  0.00    +0.230 C 
ENDBRANCH  18  25
ENDBRANCH   1  23
TORSDOF 4
