REMARK  Name = ZINCrD00000rSOz8.0
REMARK                            x       y       z     vdW  Elec       q    Type
REMARK                         _______ _______ _______ _____ _____    ______ ____
ROOT
ATOM      1  C   LIG    1       -0.195  -4.013   0.045  0.00  0.00    +0.550 C 
ATOM      2  N   LIG    1       -0.203  -2.672  -0.093  0.00  0.00    -0.650 N 
ATOM      3  H   LIG    1        0.631  -2.193  -0.222  0.00  0.00    +0.420 HD
ATOM      4  O   LIG    1       -1.232  -4.606   0.280  0.00  0.00    -0.530 OA
ENDROOT
BRANCH   2   5
ATOM      5  C   LIG    1       -1.414  -1.971  -0.051  0.00  0.00    +0.140 A 
ATOM      6  C   LIG    1       -2.500  -2.501   0.628  0.00  0.00    +0.050 A 
ATOM      7  C   LIG    1       -3.700  -1.804   0.667  0.00  0.00    +0.130 A 
ATOM      8  C   LIG    1       -3.811  -0.577   0.027  0.00  0.00    +0.040 A 
ATOM      9  C   LIG    1       -2.727  -0.044  -0.645  0.00  0.00    -0.030 A 
ATOM     10  C   LIG    1       -1.530  -0.739  -0.692  0.00  0.00    +0.090 A 
BRANCH   7  11
ATOM     11  N   LIG    1       -4.798  -2.338   1.353  0.00  0.00    -0.670 N 
ATOM     12  H   LIG    1       -4.660  -2.854   2.163  0.00  0.00    +0.410 HD
ATOM     13  C   LIG    1       -6.047  -2.135   0.888  0.00  0.00    +0.510 C 
ATOM     14  O   LIG    1       -6.214  -1.575  -0.175  0.00  0.00    -0.530 OA
ATOM     15  C   LIG    1       -7.235  -2.604   1.688  0.00  0.00    +0.110 C 
ENDBRANCH   7  11
BRANCH  10  16
ATOM     16  O   LIG    1       -0.466  -0.216  -1.359  0.00  0.00    -0.320 OA
ATOM     17  C   LIG    1       -0.656   1.050  -1.993  0.00  0.00    +0.250 C 
ENDBRANCH  10  16
ENDBRANCH   2   5
BRANCH   1  19
ATOM     18  C   LIG    1        1.067  -6.097   0.051  0.00  0.00    +0.130 C 
ATOM     19  C   LIG    1        1.059  -4.756  -0.088  0.00  0.00    -0.060 C 
BRANCH  18  22
ATOM     20  C   LIG    1        3.528  -8.931  -0.067  0.00  0.00    +0.170 A 
ATOM     21  C   LIG    1        2.339  -8.234   0.060  0.00  0.00    -0.020 A 
ATOM     22  C   LIG    1        2.329  -6.843  -0.083  0.00  0.00    -0.000 A 
ATOM     23  C   LIG    1        3.519  -6.165  -0.359  0.00  0.00    -0.030 A 
ATOM     24  C   LIG    1        4.704  -6.872  -0.479  0.00  0.00    +0.170 A 
ATOM     25  C   LIG    1        4.708  -8.252  -0.336  0.00  0.00    -0.150 A 
BRANCH  20  27
ATOM     26  C   LIG    1        4.802 -10.939  -0.072  0.00  0.00    +0.250 C 
ATOM     27  O   LIG    1        3.540 -10.283   0.072  0.00  0.00    -0.310 OA
ENDBRANCH  20  27
BRANCH  24  28
ATOM     28  O   LIG    1        5.863  -6.213  -0.742  0.00  0.00    -0.310 OA
ATOM     29  C   LIG    1        7.047  -7.004  -0.859  0.00  0.00    +0.250 C 
ENDBRANCH  24  28
ENDBRANCH  18  22
ENDBRANCH   1  19
TORSDOF 7
