REMARK  Name = ZINCah0000002veh.0
REMARK                            x       y       z     vdW  Elec       q    Type
REMARK                         _______ _______ _______ _____ _____    ______ ____
ROOT
ATOM      1  C   LIG    1       -1.165  -0.889   0.009  0.00  0.00    +0.330 C 
ATOM      2  N   LIG    1        0.002  -0.004   0.002  0.00  0.00    -0.450 N 
ATOM      3  C   LIG    1        1.315  -0.391  -0.013  0.00  0.00    +0.020 A 
ATOM      4  C   LIG    1        2.054   0.737  -0.014  0.00  0.00    +0.200 A 
ATOM      5  N   LIG    1        1.214   1.783   0.000  0.00  0.00    -0.460 NA
ATOM      6 CL   LIG    1        1.914  -2.020  -0.027  0.00  0.00    +0.000 Cl
ATOM      7  C   LIG    1       -0.016   1.347   0.009  0.00  0.00    +0.210 A 
ENDROOT
BRANCH   7   8
ATOM      8  C   LIG    1       -1.253   2.209   0.020  0.00  0.00    +0.350 C 
BRANCH   8   9
ATOM      9  C   LIG    1       -1.648   2.482   1.411  0.00  0.00    +0.200 C 
ATOM     10  N   LIG    1       -1.954   2.692   2.485  0.00  0.00    -0.410 NA
ENDBRANCH   8   9
ENDBRANCH   7   8
TORSDOF 2
