REMARK  Name = ZINCrD0000075KyN.0
REMARK                            x       y       z     vdW  Elec       q    Type
REMARK                         _______ _______ _______ _____ _____    ______ ____
ROOT
ATOM      1  O   LIG    1       -0.853   4.381   5.787  0.00  0.00    -0.490 OA
ATOM      2  C   LIG    1        0.041   5.107   6.176  0.00  0.00    +0.600 C 
ATOM      3  N   LIG    1        1.083   5.386   5.367  0.00  0.00    -0.660 N 
ATOM      4  H   LIG    1        1.833   5.902   5.703  0.00  0.00    +0.420 HD
ENDROOT
BRANCH   3   5
ATOM      5  C   LIG    1        1.083   4.931   4.045  0.00  0.00    +0.150 A 
ATOM      6  C   LIG    1        2.277   4.576   3.432  0.00  0.00    -0.010 A 
ATOM      7  C   LIG    1        2.274   4.127   2.125  0.00  0.00    +0.070 A 
ATOM      8  C   LIG    1        1.083   4.032   1.428  0.00  0.00    -0.130 A 
ATOM      9  C   LIG    1       -0.107   4.390   2.035  0.00  0.00    +0.050 A 
ATOM     10  C   LIG    1       -0.111   4.834   3.342  0.00  0.00    +0.020 A 
BRANCH   8  11
ATOM     11  C   LIG    1        1.084   3.542   0.003  0.00  0.00    +0.340 C 
BRANCH  11  12
ATOM     12  N   LIG    1        0.927   2.086  -0.013  0.00  0.00    -0.490 N 
ATOM     13  C   LIG    1       -0.318   1.546  -0.064  0.00  0.00    +0.290 A 
ATOM     14  C   LIG    1       -0.488   0.203  -0.080  0.00  0.00    -0.080 A 
ATOM     15  C   LIG    1        0.628  -0.645  -0.044  0.00  0.00    +0.110 A 
ATOM     16  C   LIG    1        1.878  -0.100   0.007  0.00  0.00    -0.100 A 
ATOM     17  C   LIG    1        2.018   1.298   0.023  0.00  0.00    +0.510 A 
ATOM     18  O   LIG    1        3.131   1.799   0.068  0.00  0.00    -0.550 OA
ENDBRANCH  11  12
ENDBRANCH   8  11
ENDBRANCH   3   5
BRANCH   2  19
ATOM     19  C   LIG    1       -0.015   5.687   7.540  0.00  0.00    -0.020 A 
ATOM     20  N   LIG    1        0.870   6.481   8.093  0.00  0.00    -0.320 NA
ATOM     21  O   LIG    1        0.554   6.793   9.218  0.00  0.00    +0.150 OA
ATOM     22  C   LIG    1       -0.616   6.233   9.579  0.00  0.00    +0.050 A 
ATOM     23  C   LIG    1       -1.038   5.496   8.502  0.00  0.00    +0.040 A 
BRANCH  22  24
ATOM     24  C   LIG    1       -1.306   6.387  10.868  0.00  0.00    +0.030 A 
ATOM     25  C   LIG    1       -0.871   7.130  11.925  0.00  0.00    +0.010 A 
ATOM     26  C   LIG    1       -1.835   6.992  12.940  0.00  0.00    -0.060 A 
ATOM     27  C   LIG    1       -2.801   6.181  12.462  0.00  0.00    +0.210 A 
ATOM     28  O   LIG    1       -2.481   5.822  11.209  0.00  0.00    -0.160 OA
ENDBRANCH  22  24
ENDBRANCH   2  19
TORSDOF 5
