REMARK  Name = ZINCpe000000SBdf.0
REMARK                            x       y       z     vdW  Elec       q    Type
REMARK                         _______ _______ _______ _____ _____    ______ ____
ROOT
ATOM      1  C   LIG    1        1.242   2.093   0.001  0.00  0.00    +0.270 C 
ENDROOT
BRANCH   1   4
ATOM      2  N   LIG    1        2.995   2.574  -1.677  0.00  0.00    -0.730 N 
ATOM      3  H   LIG    1        3.189   3.393  -1.194  0.00  0.00    +0.400 HD
ATOM      4  C   LIG    1        2.026   1.747  -1.238  0.00  0.00    +0.500 C 
ATOM      5  O   LIG    1        1.784   0.723  -1.842  0.00  0.00    -0.500 OA
BRANCH   2   6
ATOM      6  C   LIG    1        3.757   2.237  -2.882  0.00  0.00    +0.260 C 
BRANCH   6   7
ATOM      7  C   LIG    1        4.787   3.334  -3.158  0.00  0.00    +0.260 C 
BRANCH   7  10
ATOM      8  C   LIG    1        7.301   3.478  -6.041  0.00  0.00    +0.110 C 
ATOM      9  C   LIG    1        6.518   3.825  -4.801  0.00  0.00    +0.510 C 
ATOM     10  N   LIG    1        5.548   2.997  -4.363  0.00  0.00    -0.730 N 
ATOM     11  H   LIG    1        5.355   2.179  -4.846  0.00  0.00    +0.400 HD
ATOM     12  O   LIG    1        6.760   4.849  -4.197  0.00  0.00    -0.540 OA
ENDBRANCH   7  10
ENDBRANCH   6   7
ENDBRANCH   2   6
ENDBRANCH   1   4
BRANCH   1  13
ATOM     13  N   LIG    1       -0.016   1.344   0.009  0.00  0.00    -0.710 N 
ATOM     14  H   LIG    1       -0.863   1.817   0.016  0.00  0.00    +0.410 HD
ATOM     15  C   LIG    1        0.002  -0.004   0.002  0.00  0.00    +0.610 C 
ATOM     16  O   LIG    1        1.064  -0.598  -0.011  0.00  0.00    -0.490 OA
BRANCH  15  17
ATOM     17  C   LIG    1       -1.258  -0.755   0.010  0.00  0.00    -0.080 A 
ATOM     18  C   LIG    1       -1.382  -2.114   0.004  0.00  0.00    +0.040 A 
ATOM     19  C   LIG    1       -2.757  -2.394   0.016  0.00  0.00    -0.060 A 
ATOM     20  C   LIG    1       -3.404  -1.208   0.029  0.00  0.00    +0.200 A 
ATOM     21  O   LIG    1       -2.498  -0.222   0.031  0.00  0.00    -0.170 OA
ENDBRANCH  15  17
ENDBRANCH   1  13
BRANCH   1  22
ATOM     22  C   LIG    1        2.062   1.728   1.241  0.00  0.00    +0.090 C 
BRANCH  22  23
ATOM     23  C   LIG    1        1.333   2.186   2.478  0.00  0.00    -0.080 A 
ATOM     24  C   LIG    1        1.564   3.450   2.988  0.00  0.00    +0.000 A 
ATOM     25  C   LIG    1        0.892   3.871   4.120  0.00  0.00    +0.000 A 
ATOM     26  C   LIG    1       -0.004   3.026   4.747  0.00  0.00    +0.000 A 
ATOM     27  C   LIG    1       -0.232   1.760   4.240  0.00  0.00    +0.000 A 
ATOM     28  C   LIG    1        0.437   1.340   3.105  0.00  0.00    +0.010 A 
ENDBRANCH  22  23
ENDBRANCH   1  22
TORSDOF 8
