REMARK  Name = ZINCpe000000Xa8k.2
REMARK                            x       y       z     vdW  Elec       q    Type
REMARK                         _______ _______ _______ _____ _____    ______ ____
ROOT
ATOM      1  C   LIG    1       -0.346   1.038  -0.126  0.00  0.00    +0.030 C 
ATOM      2  C   LIG    1       -0.712   1.576   1.259  0.00  0.00    +0.170 C 
ENDROOT
BRANCH   2   3
ATOM      3  C   LIG    1       -2.118   1.160   1.605  0.00  0.00    +0.530 C 
ATOM      4  N   LIG    1       -2.355  -0.074   2.094  0.00  0.00    -0.610 N 
ATOM      5  C   LIG    1       -1.270  -1.060   2.192  0.00  0.00    +0.260 C 
ATOM      6  C   LIG    1       -1.699  -2.343   1.482  0.00  0.00    +0.020 C 
ATOM      7  C   LIG    1       -3.036  -2.819   2.054  0.00  0.00    +0.030 C 
ATOM      8  C   LIG    1       -4.105  -1.750   1.812  0.00  0.00    -0.020 C 
ATOM      9  C   LIG    1       -3.703  -0.459   2.532  0.00  0.00    +0.310 C 
ATOM     10  O   LIG    1       -3.037   1.935   1.444  0.00  0.00    -0.520 OA
BRANCH   8  11
ATOM     11  C   LIG    1       -5.428  -2.233   2.347  0.00  0.00    +0.520 C 
ATOM     12  O   LIG    1       -5.995  -1.608   3.218  0.00  0.00    -0.540 OA
ATOM     13  N   LIG    1       -5.982  -3.361   1.858  0.00  0.00    -0.850 N 
ATOM     14  H   LIG    1       -6.834  -3.671   2.202  0.00  0.00    +0.400 HD
ATOM     15  H   LIG    1       -5.529  -3.861   1.161  0.00  0.00    +0.400 HD
ENDBRANCH   8  11
ENDBRANCH   2   3
BRANCH   2  16
ATOM     16  N   LIG    1       -0.623   3.042   1.253  0.00  0.00    -0.540 NA
ATOM     17  C   LIG    1       -1.420   3.617   0.151  0.00  0.00    +0.200 C 
ATOM     18  C   LIG    1       -1.898   4.981   0.581  0.00  0.00    +0.050 C 
ATOM     19  C   LIG    1       -0.958   6.093   0.085  0.00  0.00    +0.010 C 
ATOM     20  C   LIG    1        0.526   5.697   0.218  0.00  0.00    +0.110 C 
ATOM     21  C   LIG    1        0.822   4.988   1.515  0.00  0.00    +0.080 C 
ATOM     22  C   LIG    1        0.710   3.463   1.292  0.00  0.00    +0.200 C 
BRANCH  20  23
ATOM     23  C   LIG    1        1.384   6.960   0.138  0.00  0.00    +0.420 C 
ATOM     24  F   LIG    1        1.082   7.799   1.216  0.00  0.00    -0.180 F 
ATOM     25  F   LIG    1        1.119   7.629  -1.062  0.00  0.00    -0.180 F 
ATOM     26  F   LIG    1        2.737   6.609   0.186  0.00  0.00    -0.180 F 
ENDBRANCH  20  23
BRANCH  20  27
ATOM     27  O   LIG    1        0.873   4.836  -0.869  0.00  0.00    -0.530 OA
ATOM     28  H   LIG    1        0.711   5.220  -1.742  0.00  0.00    +0.380 HD
ENDBRANCH  20  27
ENDBRANCH   2  16
TORSDOF 5
