REMARK  Name = ZINCrH00000tj1ph.0
REMARK                            x       y       z     vdW  Elec       q    Type
REMARK                         _______ _______ _______ _____ _____    ______ ____
ROOT
ATOM      1  N   LIG    1       -0.644   8.809  -6.075  0.00  0.00    -0.720 N 
ATOM      2  H   LIG    1       -1.316   9.206  -5.499  0.00  0.00    +0.400 HD
ATOM      3  C   LIG    1       -0.109   7.612  -5.760  0.00  0.00    +0.560 C 
ATOM      4  O   LIG    1        0.734   7.115  -6.482  0.00  0.00    -0.530 OA
ENDROOT
BRANCH   3   5
ATOM      5  C   LIG    1       -0.546   6.905  -4.538  0.00  0.00    -0.120 A 
ATOM      6  C   LIG    1       -1.513   7.474  -3.708  0.00  0.00    +0.030 A 
ATOM      7  C   LIG    1       -1.920   6.811  -2.567  0.00  0.00    +0.030 A 
ATOM      8  C   LIG    1       -1.372   5.585  -2.243  0.00  0.00    +0.010 A 
ATOM      9  C   LIG    1       -0.409   5.010  -3.063  0.00  0.00    +0.140 A 
ATOM     10  C   LIG    1        0.010   5.669  -4.208  0.00  0.00    +0.090 A 
BRANCH   9  11
ATOM     11  N   LIG    1        0.142   3.767  -2.730  0.00  0.00    -0.670 N 
ATOM     12  H   LIG    1        0.262   3.523  -1.799  0.00  0.00    +0.410 HD
ATOM     13  C   LIG    1        0.507   2.909  -3.703  0.00  0.00    +0.540 C 
ATOM     14  O   LIG    1        0.271   3.172  -4.863  0.00  0.00    -0.500 OA
BRANCH  13  15
ATOM     15  C   LIG    1        1.209   1.623  -3.350  0.00  0.00    -0.070 C 
ATOM     16  C   LIG    1        0.443   0.317  -3.568  0.00  0.00    +0.060 C 
ATOM     17  C   LIG    1        1.598   0.691  -4.500  0.00  0.00    +0.000 C 
ATOM     18  C   LIG    1        1.244   1.136  -5.920  0.00  0.00    +0.060 C 
ENDBRANCH  13  15
ENDBRANCH   9  11
ENDBRANCH   3   5
BRANCH   1  19
ATOM     19  C   LIG    1       -0.210   9.510  -7.286  0.00  0.00    +0.320 C 
BRANCH  19  23
ATOM     20  C   LIG    1       -2.324  13.207  -7.626  0.00  0.00    -0.080 A 
ATOM     21  C   LIG    1       -1.122  13.158  -6.945  0.00  0.00    +0.030 A 
ATOM     22  C   LIG    1       -0.438  11.961  -6.835  0.00  0.00    +0.030 A 
ATOM     23  C   LIG    1       -0.956  10.814  -7.405  0.00  0.00    -0.100 A 
ATOM     24  C   LIG    1       -2.155  10.864  -8.091  0.00  0.00    +0.030 A 
ATOM     25  C   LIG    1       -2.842  12.059  -8.196  0.00  0.00    +0.030 A 
BRANCH  20  26
ATOM     26  C   LIG    1       -3.069  14.511  -7.746  0.00  0.00    +0.220 C 
BRANCH  26  27
ATOM     27  O   LIG    1       -2.646  15.194  -8.927  0.00  0.00    -0.380 OA
BRANCH  27  29
ATOM     28  C   LIG    1       -2.768  17.089 -10.423  0.00  0.00    +0.040 C 
ATOM     29  C   LIG    1       -3.296  16.450  -9.137  0.00  0.00    +0.160 C 
ENDBRANCH  27  29
ENDBRANCH  26  27
ENDBRANCH  20  26
ENDBRANCH  19  23
ENDBRANCH   1  19
TORSDOF 8
