REMARK  Name = ZINCqH0000005hqn.0
REMARK                            x       y       z     vdW  Elec       q    Type
REMARK                         _______ _______ _______ _____ _____    ______ ____
ROOT
ATOM      1  C   LIG    1        1.996   4.558   4.510  0.00  0.00    +0.300 C 
ATOM      2  N   LIG    1        1.737   5.537   3.450  0.00  0.00    -0.620 N 
ATOM      3  C   LIG    1        1.564   5.124   2.179  0.00  0.00    +0.520 C 
ATOM      4  O   LIG    1        1.351   5.934   1.302  0.00  0.00    -0.520 OA
ENDROOT
BRANCH   3   5
ATOM      5  C   LIG    1        1.637   3.656   1.847  0.00  0.00    +0.040 C 
BRANCH   5   6
ATOM      6  C   LIG    1        1.408   3.460   0.347  0.00  0.00    +0.320 C 
BRANCH   6   7
ATOM      7  N   LIG    1        1.479   2.033   0.025  0.00  0.00    -0.550 N 
ATOM      8  C   LIG    1        2.657   1.464  -0.314  0.00  0.00    +0.490 C 
ATOM      9  C   LIG    1        2.703   0.002  -0.679  0.00  0.00    +0.300 C 
ATOM     10  O   LIG    1        1.697  -0.707   0.049  0.00  0.00    -0.300 OA
ATOM     11  C   LIG    1        0.456  -0.152   0.075  0.00  0.00    +0.080 A 
ATOM     12  C   LIG    1       -0.674  -0.950   0.113  0.00  0.00    +0.030 A 
ATOM     13  C   LIG    1       -1.929  -0.367   0.138  0.00  0.00    +0.030 A 
ATOM     14  C   LIG    1       -2.058   1.010   0.125  0.00  0.00    +0.020 A 
ATOM     15  C   LIG    1       -0.932   1.814   0.093  0.00  0.00    +0.000 A 
ATOM     16  O   LIG    1        3.672   2.126  -0.324  0.00  0.00    -0.500 OA
ATOM     17  C   LIG    1        0.326   1.236   0.063  0.00  0.00    +0.090 A 
ENDBRANCH   6   7
ENDBRANCH   5   6
ENDBRANCH   3   5
BRANCH   2  18
ATOM     18  C   LIG    1        1.666   6.964   3.773  0.00  0.00    +0.360 C 
BRANCH  18  19
ATOM     19  C   LIG    1        0.232   7.352   4.024  0.00  0.00    -0.080 A 
ATOM     20  C   LIG    1       -0.750   6.380   4.060  0.00  0.00    +0.030 A 
ATOM     21  C   LIG    1       -2.066   6.735   4.295  0.00  0.00    +0.040 A 
ATOM     22  C   LIG    1       -2.402   8.062   4.484  0.00  0.00    +0.040 A 
ATOM     23  C   LIG    1       -1.421   9.036   4.444  0.00  0.00    -0.030 A 
ATOM     24 CL   LIG    1       -1.842  10.704   4.681  0.00  0.00    -0.040 Cl
ATOM     25  C   LIG    1       -0.102   8.681   4.213  0.00  0.00    -0.030 A 
ATOM     26 CL   LIG    1        1.130   9.902   4.162  0.00  0.00    -0.040 Cl
ENDBRANCH  18  19
ENDBRANCH   2  18
TORSDOF 5
