REMARK  Name = ZINCpk00000e948f.0
REMARK                            x       y       z     vdW  Elec       q    Type
REMARK                         _______ _______ _______ _____ _____    ______ ____
ROOT
ATOM      1  N   LIG    1        1.501   2.354  -1.140  0.00  0.00    -0.560 N 
ATOM      2  C   LIG    1        0.363   2.331  -1.842  0.00  0.00    +0.710 C 
ATOM      3  N   LIG    1       -0.596   1.603  -1.242  0.00  0.00    -0.720 N 
ATOM      4  H   LIG    1       -1.496   1.449  -1.568  0.00  0.00    +0.440 HD
ATOM      5  C   LIG    1       -0.013   1.086   0.008  0.00  0.00    +0.230 C 
ATOM      6  O   LIG    1        0.212   2.904  -2.903  0.00  0.00    -0.540 OA
ATOM      7  C   LIG    1        1.399   1.638  -0.003  0.00  0.00    +0.530 C 
ATOM      8  O   LIG    1        2.257   1.472   0.838  0.00  0.00    -0.460 OA
ENDROOT
BRANCH   1   9
ATOM      9  C   LIG    1        2.710   3.070  -1.555  0.00  0.00    +0.360 C 
BRANCH   9  12
ATOM     10  N   LIG    1        4.745   2.604  -2.882  0.00  0.00    -0.730 N 
ATOM     11  H   LIG    1        5.032   3.513  -2.703  0.00  0.00    +0.400 HD
ATOM     12  C   LIG    1        3.574   2.157  -2.387  0.00  0.00    +0.500 C 
ATOM     13  O   LIG    1        3.215   1.020  -2.610  0.00  0.00    -0.530 OA
BRANCH  10  14
ATOM     14  C   LIG    1        5.585   1.716  -3.690  0.00  0.00    +0.260 C 
BRANCH  14  16
ATOM     15  C   LIG    1        7.687   2.805  -2.892  0.00  0.00    +0.020 C 
ATOM     16  C   LIG    1        6.847   2.464  -4.124  0.00  0.00    -0.030 C 
ATOM     17  C   LIG    1        7.663   1.580  -5.070  0.00  0.00    +0.030 C 
ENDBRANCH  14  16
ENDBRANCH  10  14
ENDBRANCH   9  12
ENDBRANCH   1   9
BRANCH   5  18
ATOM     18  C   LIG    1       -0.785   1.605   1.222  0.00  0.00    +0.140 C 
BRANCH  18  19
ATOM     19  C   LIG    1       -2.159   0.986   1.246  0.00  0.00    -0.180 A 
ATOM     20  C   LIG    1       -3.286   1.524   0.753  0.00  0.00    +0.230 A 
ATOM     21  N   LIG    1       -4.337   0.671   0.954  0.00  0.00    -0.590 N 
ATOM     22  H   LIG    1       -5.252   0.840   0.680  0.00  0.00    +0.420 HD
ATOM     23  C   LIG    1       -3.902  -0.462   1.605  0.00  0.00    +0.100 A 
ATOM     24  C   LIG    1       -4.540  -1.616   2.047  0.00  0.00    -0.010 A 
ATOM     25  C   LIG    1       -3.813  -2.598   2.685  0.00  0.00    +0.030 A 
ATOM     26  C   LIG    1       -2.449  -2.447   2.892  0.00  0.00    -0.020 A 
ATOM     27  C   LIG    1       -1.802  -1.321   2.466  0.00  0.00    +0.050 A 
ATOM     28  C   LIG    1       -2.519  -0.314   1.817  0.00  0.00    -0.100 A 
ENDBRANCH  18  19
ENDBRANCH   5  18
TORSDOF 6
