REMARK  Name = ZINCpe000000SOrE.0
REMARK                            x       y       z     vdW  Elec       q    Type
REMARK                         _______ _______ _______ _____ _____    ______ ____
ROOT
ATOM      1  C   LIG    1       -2.671   0.918  -2.022  0.00  0.00    +0.530 C 
ATOM      2  N   LIG    1       -3.770   1.685  -2.166  0.00  0.00    -0.620 N 
ATOM      3  C   LIG    1       -4.909   1.243  -2.987  0.00  0.00    +0.310 C 
ATOM      4  C   LIG    1       -6.137   1.133  -2.073  0.00  0.00    +0.280 C 
ATOM      5  N   LIG    1       -6.262   2.317  -1.234  0.00  0.00    -0.560 N 
ATOM      6  C   LIG    1       -5.258   3.143  -0.935  0.00  0.00    +0.510 C 
ATOM      7  O   LIG    1       -5.469   4.053  -0.161  0.00  0.00    -0.520 OA
ATOM      8  C   LIG    1       -3.878   2.998  -1.514  0.00  0.00    +0.320 C 
ATOM      9  O   LIG    1       -2.565  -0.115  -2.648  0.00  0.00    -0.510 OA
ENDROOT
BRANCH   5  10
ATOM     10  C   LIG    1       -7.524   2.608  -0.703  0.00  0.00    +0.130 A 
ATOM     11  C   LIG    1       -8.213   3.736  -1.126  0.00  0.00    +0.020 A 
ATOM     12  C   LIG    1       -9.461   4.018  -0.605  0.00  0.00    +0.020 A 
ATOM     13  C   LIG    1      -10.019   3.183   0.346  0.00  0.00    +0.010 A 
ATOM     14  C   LIG    1       -9.332   2.061   0.774  0.00  0.00    +0.020 A 
ATOM     15  C   LIG    1       -8.087   1.771   0.252  0.00  0.00    +0.000 A 
ENDBRANCH   5  10
BRANCH   1  16
ATOM     16  C   LIG    1       -1.572   1.345  -1.082  0.00  0.00    +0.250 C 
BRANCH  16  18
ATOM     17  C   LIG    1       -0.671   1.109   1.236  0.00  0.00    +0.030 C 
ATOM     18  C   LIG    1       -1.845   0.779   0.313  0.00  0.00    -0.070 C 
ATOM     19  C   LIG    1       -2.013  -0.739   0.223  0.00  0.00    +0.040 C 
ATOM     20  C   LIG    1       -3.126   1.401   0.874  0.00  0.00    +0.030 C 
ENDBRANCH  16  18
BRANCH  16  21
ATOM     21  N   LIG    1       -0.287   0.840  -1.571  0.00  0.00    -1.100 NA
ATOM     22  H   LIG    1       -0.160  -0.112  -1.705  0.00  0.00    +0.430 HD
BRANCH  21  23
ATOM     23  S   LIG    1        0.946   1.895  -1.902  0.00  0.00    +2.610 S 
ATOM     24  O   LIG    1        0.377   2.823  -2.816  0.00  0.00    -0.950 OA
ATOM     25  O   LIG    1        2.029   1.059  -2.286  0.00  0.00    -0.950 OA
ATOM     26  C   LIG    1        1.293   2.697  -0.313  0.00  0.00    -0.280 C 
ENDBRANCH  21  23
ENDBRANCH  16  21
ENDBRANCH   1  16
TORSDOF 5
