REMARK  Name = ZINCqH0000034yFf.0
REMARK                            x       y       z     vdW  Elec       q    Type
REMARK                         _______ _______ _______ _____ _____    ______ ____
ROOT
ATOM      1  C   LIG    1        2.307   5.031   0.898  0.00  0.00    +0.360 C 
ENDROOT
BRANCH   1   2
ATOM      2  C   LIG    1        1.144   5.857   0.413  0.00  0.00    +0.480 C 
ATOM      3  N   LIG    1        0.025   5.250  -0.030  0.00  0.00    -0.550 N 
ATOM      4  C   LIG    1        0.025   3.797  -0.165  0.00  0.00    +0.300 C 
ATOM      5  C   LIG    1       -0.410   3.437  -1.594  0.00  0.00    +0.100 C 
ATOM      6  S   LIG    1       -2.141   3.950  -1.794  0.00  0.00    -0.090 S 
ATOM      7  C   LIG    1       -2.135   5.586  -1.134  0.00  0.00    -0.120 A 
ATOM      8  C   LIG    1       -3.208   6.426  -1.412  0.00  0.00    +0.070 A 
ATOM      9  C   LIG    1       -3.235   7.712  -0.909  0.00  0.00    +0.030 A 
ATOM     10  C   LIG    1       -2.196   8.164  -0.115  0.00  0.00    -0.020 A 
ATOM     11  C   LIG    1       -1.127   7.336   0.167  0.00  0.00    +0.050 A 
ATOM     12 CL   LIG    1       -2.235   9.777   0.527  0.00  0.00    -0.060 Cl
ATOM     13  C   LIG    1       -1.086   6.039  -0.340  0.00  0.00    +0.160 A 
ATOM     14  O   LIG    1        1.214   7.068   0.422  0.00  0.00    -0.480 OA
ENDBRANCH   1   2
BRANCH   1  16
ATOM     15  C   LIG    1        3.374   6.452   2.710  0.00  0.00    +0.320 C 
ATOM     16  N   LIG    1        3.384   5.919   1.345  0.00  0.00    -0.980 NA
BRANCH  16  17
ATOM     17  S   LIG    1        4.611   6.319   0.308  0.00  0.00    +2.690 S 
ATOM     18  O   LIG    1        4.667   5.285  -0.665  0.00  0.00    -0.950 OA
ATOM     19  O   LIG    1        5.718   6.685   1.119  0.00  0.00    -0.940 OA
BRANCH  17  20
ATOM     20  C   LIG    1        4.116   7.779  -0.546  0.00  0.00    -0.670 A 
ATOM     21  C   LIG    1        3.423   7.681  -1.738  0.00  0.00    +0.140 A 
ATOM     22  C   LIG    1        3.031   8.826  -2.406  0.00  0.00    +0.010 A 
ATOM     23  C   LIG    1        3.341  10.070  -1.887  0.00  0.00    +0.020 A 
ATOM     24  C   LIG    1        4.039  10.168  -0.696  0.00  0.00    +0.010 A 
ATOM     25 CL   LIG    1        2.855  11.508  -2.729  0.00  0.00    -0.050 Cl
ATOM     26  C   LIG    1        4.426   9.022  -0.026  0.00  0.00    +0.150 A 
ENDBRANCH  17  20
ENDBRANCH  16  17
ENDBRANCH   1  16
TORSDOF 4
