REMARK  Name = ZINCkj000018RAxb.0
REMARK                            x       y       z     vdW  Elec       q    Type
REMARK                         _______ _______ _______ _____ _____    ______ ____
ROOT
ATOM      1  C   LIG    1        2.524   4.244   1.183  0.00  0.00    +0.180 C 
ENDROOT
BRANCH   1   5
ATOM      2  N   LIG    1        4.302   5.521   0.031  0.00  0.00    -0.820 N 
ATOM      3  H   LIG    1        4.934   6.256  -0.015  0.00  0.00    +0.420 HD
ATOM      4  H   LIG    1        4.243   4.886  -0.699  0.00  0.00    +0.410 HD
ATOM      5  C   LIG    1        3.506   5.385   1.111  0.00  0.00    +0.520 C 
ATOM      6  O   LIG    1        3.580   6.180   2.023  0.00  0.00    -0.530 OA
ENDBRANCH   1   5
BRANCH   1   7
ATOM      7  N   LIG    1        1.782   4.316   2.448  0.00  0.00    -0.490 N 
ATOM      8  H   LIG    1        1.069   3.602   2.461  0.00  0.00    +0.430 HD
ATOM      9  H   LIG    1        1.350   5.224   2.534  0.00  0.00    +0.430 HD
BRANCH   7  10
ATOM     10  C   LIG    1        2.706   4.105   3.571  0.00  0.00    +0.170 C 
ATOM     11  C   LIG    1        3.261   2.678   3.519  0.00  0.00    +0.030 C 
ATOM     12  C   LIG    1        4.277   2.518   4.650  0.00  0.00    +0.040 C 
ATOM     13  C   LIG    1        3.654   2.783   6.000  0.00  0.00    +0.000 C 
ATOM     14  C   LIG    1        2.571   1.750   6.364  0.00  0.00    +0.010 C 
ATOM     15  C   LIG    1        1.781   2.442   7.499  0.00  0.00    +0.000 C 
ATOM     16  C   LIG    1        2.017   3.956   7.338  0.00  0.00    +0.020 C 
ATOM     17  C   LIG    1        2.909   4.127   6.080  0.00  0.00    +0.010 C 
ATOM     18  C   LIG    1        1.961   4.293   4.890  0.00  0.00    +0.040 C 
ENDBRANCH   7  10
ENDBRANCH   1   7
BRANCH   1  19
ATOM     19  C   LIG    1        1.545   4.338   0.011  0.00  0.00    +0.190 C 
BRANCH  19  20
ATOM     20  C   LIG    1        0.641   3.132   0.013  0.00  0.00    -0.060 A 
ATOM     21  C   LIG    1       -0.705   3.152   0.026  0.00  0.00    +0.150 A 
ATOM     22  N   LIG    1       -1.121   1.848   0.017  0.00  0.00    -0.560 N 
ATOM     23  H   LIG    1       -2.039   1.536   0.019  0.00  0.00    +0.430 HD
ATOM     24  C   LIG    1       -0.013   1.076   0.008  0.00  0.00    +0.430 A 
ATOM     25  N   LIG    1        1.037   1.851   0.002  0.00  0.00    -0.490 NA
ENDBRANCH  19  20
ENDBRANCH   1  19
TORSDOF 5
