REMARK  Name = ZINCkj000018RAxb.1
REMARK                            x       y       z     vdW  Elec       q    Type
REMARK                         _______ _______ _______ _____ _____    ______ ____
ROOT
ATOM      1  C   LIG    1        1.417   2.032  -0.001  0.00  0.00    +0.170 C 
ENDROOT
BRANCH   1   5
ATOM      2  N   LIG    1        0.826   4.121  -1.187  0.00  0.00    -0.820 N 
ATOM      3  H   LIG    1        0.813   5.088  -1.261  0.00  0.00    +0.430 HD
ATOM      4  H   LIG    1        0.427   3.576  -1.883  0.00  0.00    +0.410 HD
ATOM      5  C   LIG    1        1.397   3.535  -0.116  0.00  0.00    +0.520 C 
ATOM      6  O   LIG    1        1.895   4.217   0.754  0.00  0.00    -0.520 OA
ENDBRANCH   1   5
BRANCH   1   7
ATOM      7  N   LIG    1        2.091   1.646   1.246  0.00  0.00    -0.490 N 
ATOM      8  H   LIG    1        2.032   0.646   1.364  0.00  0.00    +0.430 HD
ATOM      9  H   LIG    1        1.643   2.104   2.026  0.00  0.00    +0.430 HD
BRANCH   7  10
ATOM     10  C   LIG    1        3.502   2.050   1.185  0.00  0.00    +0.170 C 
ATOM     11  C   LIG    1        4.216   1.263   0.080  0.00  0.00    +0.030 C 
ATOM     12  C   LIG    1        5.656   1.767  -0.012  0.00  0.00    +0.050 C 
ATOM     13  C   LIG    1        6.388   1.593   1.296  0.00  0.00    -0.010 C 
ATOM     14  C   LIG    1        6.564   0.113   1.685  0.00  0.00    +0.010 C 
ATOM     15  C   LIG    1        6.893   0.174   3.194  0.00  0.00    +0.010 C 
ATOM     16  C   LIG    1        6.333   1.512   3.713  0.00  0.00    +0.020 C 
ATOM     17  C   LIG    1        5.635   2.178   2.504  0.00  0.00    +0.010 C 
ATOM     18  C   LIG    1        4.181   1.741   2.517  0.00  0.00    +0.050 C 
ENDBRANCH   7  10
ENDBRANCH   1   7
BRANCH   1  19
ATOM     19  C   LIG    1       -0.018   1.503   0.010  0.00  0.00    +0.180 C 
BRANCH  19  20
ATOM     20  C   LIG    1        0.002  -0.004   0.002  0.00  0.00    -0.080 A 
ATOM     21  C   LIG    1        0.117  -0.811   1.074  0.00  0.00    +0.160 A 
ATOM     22  N   LIG    1        0.092  -2.081   0.642  0.00  0.00    -0.480 NA
ATOM     23  C   LIG    1       -0.034  -2.091  -0.657  0.00  0.00    +0.440 A 
ATOM     24  N   LIG    1       -0.099  -0.815  -1.096  0.00  0.00    -0.560 N 
ATOM     25  H   LIG    1       -0.197  -0.528  -2.017  0.00  0.00    +0.430 HD
ENDBRANCH  19  20
ENDBRANCH   1  19
TORSDOF 5
