REMARK  Name = ZINCpk00000KaROQ.0
REMARK                            x       y       z     vdW  Elec       q    Type
REMARK                         _______ _______ _______ _____ _____    ______ ____
ROOT
ATOM      1  O   LIG    1        5.734   0.792  -3.212  0.00  0.00    -0.510 OA
ATOM      2  C   LIG    1        6.231   1.299  -2.229  0.00  0.00    +0.500 C 
ATOM      3  N   LIG    1        5.446   1.706  -1.211  0.00  0.00    -0.610 N 
ATOM      4  C   LIG    1        6.034   2.321  -0.013  0.00  0.00    +0.270 C 
ATOM      5  C   LIG    1        5.541   1.562   1.223  0.00  0.00    +0.030 C 
ATOM      6  C   LIG    1        4.011   1.527   1.221  0.00  0.00    +0.030 C 
ATOM      7  C   LIG    1        3.518   0.791  -0.027  0.00  0.00    +0.220 C 
ATOM      8  C   LIG    1        3.988   1.541  -1.278  0.00  0.00    +0.290 C 
ENDROOT
BRANCH   7   9
ATOM      9  N   LIG    1        2.055   0.731  -0.014  0.00  0.00    -0.460 N 
ATOM     10  C   LIG    1        1.288  -0.403  -0.012  0.00  0.00    +0.120 A 
ATOM     11  C   LIG    1        0.002  -0.004   0.002  0.00  0.00    +0.140 A 
ATOM     12  N   LIG    1       -0.016   1.337   0.009  0.00  0.00    -0.490 NA
ATOM     13  C   LIG    1        1.210   1.784   0.000  0.00  0.00    +0.380 A 
ENDBRANCH   7   9
BRANCH   2  14
ATOM     14  C   LIG    1        7.725   1.475  -2.145  0.00  0.00    +0.340 C 
BRANCH  14  15
ATOM     15  N   LIG    1        8.347   0.958  -3.367  0.00  0.00    -0.540 N 
ATOM     16  C   LIG    1        8.739  -0.332  -3.444  0.00  0.00    +0.500 C 
ATOM     17  C   LIG    1        9.407  -0.838  -4.697  0.00  0.00    +0.310 C 
ATOM     18  O   LIG    1        8.911  -0.122  -5.831  0.00  0.00    -0.300 OA
ATOM     19  C   LIG    1        8.833   1.231  -5.714  0.00  0.00    +0.080 A 
ATOM     20  C   LIG    1        9.034   2.047  -6.813  0.00  0.00    +0.030 A 
ATOM     21  C   LIG    1        8.953   3.421  -6.676  0.00  0.00    +0.030 A 
ATOM     22  C   LIG    1        8.673   3.982  -5.444  0.00  0.00    +0.020 A 
ATOM     23  C   LIG    1        8.469   3.173  -4.340  0.00  0.00    +0.000 A 
ATOM     24  O   LIG    1        8.550  -1.083  -2.510  0.00  0.00    -0.510 OA
ATOM     25  C   LIG    1        8.549   1.797  -4.472  0.00  0.00    +0.100 A 
ENDBRANCH  14  15
ENDBRANCH   2  14
TORSDOF 3
