REMARK  Name = ZINCDN0000000cSH.0
REMARK                            x       y       z     vdW  Elec       q    Type
REMARK                         _______ _______ _______ _____ _____    ______ ____
ROOT
ATOM      1  C   LIG    1        1.481  -0.905   0.876  0.00  0.00    -0.150 A 
ATOM      2  C   LIG    1        2.539  -0.061   0.538  0.00  0.00    +0.110 A 
ATOM      3  C   LIG    1        3.748  -0.598   0.144  0.00  0.00    +0.000 A 
ATOM      4  C   LIG    1        3.908  -1.971   0.073  0.00  0.00    +0.150 A 
ATOM      5  C   LIG    1        2.861  -2.813   0.402  0.00  0.00    -0.690 A 
ATOM      6  C   LIG    1        1.649  -2.289   0.802  0.00  0.00    +0.200 A 
ENDROOT
BRANCH   1   8
ATOM      7  O   LIG    1       -0.737  -1.075   1.592  0.00  0.00    -0.500 OA
ATOM      8  C   LIG    1        0.185  -0.337   1.303  0.00  0.00    +0.560 C 
ATOM      9  N   LIG    1        0.026   1.000   1.373  0.00  0.00    -0.670 N 
ATOM     10  H   LIG    1        0.782   1.587   1.215  0.00  0.00    +0.410 HD
BRANCH   9  11
ATOM     11  C   LIG    1       -1.230   1.540   1.668  0.00  0.00    +0.170 A 
ATOM     12  C   LIG    1       -2.383   0.900   1.231  0.00  0.00    +0.000 A 
ATOM     13  C   LIG    1       -3.621   1.433   1.528  0.00  0.00    +0.140 A 
ATOM     14  C   LIG    1       -3.715   2.608   2.251  0.00  0.00    -0.630 A 
ATOM     15  C   LIG    1       -2.569   3.251   2.683  0.00  0.00    +0.140 A 
ATOM     16  C   LIG    1       -1.327   2.720   2.394  0.00  0.00    -0.040 A 
BRANCH  14  17
ATOM     17  S   LIG    1       -5.297   3.289   2.623  0.00  0.00    +2.640 S 
ATOM     18  O   LIG    1       -5.122   4.105   3.773  0.00  0.00    -1.020 OA
ATOM     19  O   LIG    1       -6.220   2.210   2.568  0.00  0.00    -1.010 OA
BRANCH  17  20
ATOM     20  N   LIG    1       -5.695   4.309   1.381  0.00  0.00    -1.050 NA
BRANCH  20  21
ATOM     21  C   LIG    1       -6.899   4.992   1.405  0.00  0.00    +0.590 A 
ATOM     22  N   LIG    1       -7.724   4.812   2.427  0.00  0.00    -0.620 NA
ATOM     23  C   LIG    1       -8.880   5.453   2.483  0.00  0.00    +0.330 A 
ATOM     24  C   LIG    1       -9.228   6.311   1.452  0.00  0.00    -0.230 A 
ATOM     25  C   LIG    1       -8.345   6.471   0.396  0.00  0.00    +0.330 A 
ATOM     26  N   LIG    1       -7.203   5.804   0.404  0.00  0.00    -0.550 NA
ENDBRANCH  20  21
ENDBRANCH  17  20
ENDBRANCH  14  17
ENDBRANCH   9  11
ENDBRANCH   1   8
BRANCH   5  27
ATOM     27  S   LIG    1        3.075  -4.560   0.308  0.00  0.00    +2.690 S 
ATOM     28  O   LIG    1        2.048  -5.134   1.105  0.00  0.00    -0.940 OA
ATOM     29  O   LIG    1        4.457  -4.807   0.526  0.00  0.00    -0.940 OA
BRANCH  27  30
ATOM     30  N   LIG    1        2.761  -5.009  -1.254  0.00  0.00    -1.060 N 
ATOM     31  H   LIG    1        2.006  -5.586  -1.451  0.00  0.00    +0.430 HD
BRANCH  30  32
ATOM     32  C   LIG    1        3.583  -4.559  -2.290  0.00  0.00    +0.120 A 
ATOM     33  C   LIG    1        3.136  -3.565  -3.151  0.00  0.00    +0.060 A 
ATOM     34  C   LIG    1        3.954  -3.119  -4.171  0.00  0.00    +0.030 A 
ATOM     35  C   LIG    1        5.212  -3.667  -4.341  0.00  0.00    +0.080 A 
ATOM     36  C   LIG    1        5.658  -4.659  -3.488  0.00  0.00    -0.180 A 
ATOM     37  C   LIG    1        4.848  -5.107  -2.463  0.00  0.00    +0.090 A 
BRANCH  36  38
ATOM     38  C   LIG    1        7.030  -5.254  -3.677  0.00  0.00    +0.510 C 
ATOM     39  F   LIG    1        7.534  -5.666  -2.438  0.00  0.00    -0.170 F 
ATOM     40  F   LIG    1        7.883  -4.292  -4.230  0.00  0.00    -0.180 F 
ATOM     41  F   LIG    1        6.947  -6.354  -4.537  0.00  0.00    -0.170 F 
ENDBRANCH  36  38
ENDBRANCH  30  32
ENDBRANCH  27  30
ENDBRANCH   5  27
TORSDOF 9
