REMARK  Name = ZINCpe000000YhlN.0
REMARK                            x       y       z     vdW  Elec       q    Type
REMARK                         _______ _______ _______ _____ _____    ______ ____
ROOT
ATOM      1  C   LIG    1       -3.903   4.087   2.937  0.00  0.00    +0.190 A 
ATOM      2  N   LIG    1       -4.400   4.724   1.906  0.00  0.00    -0.450 NA
ATOM      3  C   LIG    1       -4.380   6.033   2.245  0.00  0.00    +0.250 A 
ATOM      4  N   LIG    1       -3.877   6.112   3.450  0.00  0.00    -0.350 NA
ATOM      5  O   LIG    1       -3.604   5.005   3.861  0.00  0.00    +0.100 OA
ENDROOT
BRANCH   3   6
ATOM      6  C   LIG    1       -4.842   7.168   1.407  0.00  0.00    +0.300 A 
ATOM      7  N   LIG    1       -4.815   8.436   1.752  0.00  0.00    -0.240 NA
ATOM      8  N   LIG    1       -5.341   9.161   0.670  0.00  0.00    -0.370 N 
ATOM      9  C   LIG    1       -5.657   8.258  -0.277  0.00  0.00    +0.500 A 
ATOM     10  N   LIG    1       -5.350   7.070   0.171  0.00  0.00    -0.500 NA
BRANCH   8  11
ATOM     11  C   LIG    1       -5.513  10.613   0.588  0.00  0.00    +0.380 C 
BRANCH  11  12
ATOM     12  C   LIG    1       -6.330  11.089   1.762  0.00  0.00    +0.500 C 
ATOM     13  O   LIG    1       -6.729  10.293   2.586  0.00  0.00    -0.510 OA
ATOM     14  N   LIG    1       -6.617  12.399   1.896  0.00  0.00    -0.850 N 
ATOM     15  H   LIG    1       -7.143  12.706   2.652  0.00  0.00    +0.410 HD
ATOM     16  H   LIG    1       -6.298  13.036   1.237  0.00  0.00    +0.400 HD
ENDBRANCH  11  12
ENDBRANCH   8  11
ENDBRANCH   3   6
BRANCH   1  17
ATOM     17  C   LIG    1       -3.710   2.597   3.059  0.00  0.00    +0.280 C 
BRANCH  17  21
ATOM     18  C   LIG    1       -0.013   1.086   0.008  0.00  0.00    +0.320 C 
ATOM     19  N   LIG    1       -0.698   1.558   1.213  0.00  0.00    -0.490 N 
ATOM     20  C   LIG    1       -2.041   1.807   1.308  0.00  0.00    +0.260 A 
ATOM     21  C   LIG    1       -2.343   2.224   2.547  0.00  0.00    -0.190 A 
ATOM     22  C   LIG    1       -1.091   2.252   3.307  0.00  0.00    -0.100 A 
ATOM     23  C   LIG    1       -0.759   2.595   4.619  0.00  0.00    +0.050 A 
ATOM     24  C   LIG    1        0.540   2.512   5.034  0.00  0.00    -0.020 A 
ATOM     25  C   LIG    1        1.534   2.090   4.161  0.00  0.00    +0.030 A 
ATOM     26  C   LIG    1        1.229   1.747   2.862  0.00  0.00    -0.010 A 
ATOM     27  C   LIG    1       -0.087   1.824   2.418  0.00  0.00    +0.090 A 
ENDBRANCH  17  21
ENDBRANCH   1  17
TORSDOF 5
