REMARK  Name = ZINCvU00000005q4.0
REMARK                            x       y       z     vdW  Elec       q    Type
REMARK                         _______ _______ _______ _____ _____    ______ ____
ROOT
ATOM      1  C   LIG    1        4.702   1.549  -1.615  0.00  0.00    +0.320 C 
ENDROOT
BRANCH   1   2
ATOM      2  C   LIG    1        5.790   1.896  -2.599  0.00  0.00    +0.110 A 
ATOM      3  C   LIG    1        5.595   2.928  -3.496  0.00  0.00    -0.020 A 
ATOM      4  C   LIG    1        6.600   3.236  -4.401  0.00  0.00    +0.080 A 
ATOM      5  C   LIG    1        7.772   2.497  -4.361  0.00  0.00    -0.020 A 
ATOM      6  C   LIG    1        7.895   1.478  -3.435  0.00  0.00    +0.260 A 
ATOM      7  N   LIG    1        6.917   1.210  -2.593  0.00  0.00    -0.440 NA
ENDBRANCH   1   2
BRANCH   1   9
ATOM      8  O   LIG    1        5.000   1.947   0.692  0.00  0.00    -0.510 OA
ATOM      9  C   LIG    1        4.819   2.436  -0.403  0.00  0.00    +0.510 C 
ATOM     10  N   LIG    1        4.724   3.774  -0.535  0.00  0.00    -0.720 N 
ATOM     11  H   LIG    1        4.580   4.166  -1.411  0.00  0.00    +0.400 HD
BRANCH  10  12
ATOM     12  C   LIG    1        4.838   4.637   0.643  0.00  0.00    +0.240 C 
ATOM     13  C   LIG    1        3.473   4.754   1.323  0.00  0.00    +0.000 C 
ATOM     14  C   LIG    1        3.592   5.655   2.554  0.00  0.00    +0.010 C 
ATOM     15  C   LIG    1        4.069   7.044   2.125  0.00  0.00    +0.000 C 
ATOM     16  C   LIG    1        5.435   6.927   1.445  0.00  0.00    +0.020 C 
ATOM     17  C   LIG    1        5.316   6.026   0.214  0.00  0.00    +0.010 C 
ENDBRANCH  10  12
ENDBRANCH   1   9
BRANCH   1  18
ATOM     18  N   LIG    1        4.839   0.148  -1.210  0.00  0.00    -0.600 N 
ATOM     19  C   LIG    1        3.835  -0.721  -1.440  0.00  0.00    +0.580 C 
ATOM     20  O   LIG    1        2.680  -0.347  -1.376  0.00  0.00    -0.520 OA
BRANCH  18  21
ATOM     21  C   LIG    1        6.067  -0.309  -0.555  0.00  0.00    +0.280 C 
ATOM     22  C   LIG    1        6.957  -1.019  -1.577  0.00  0.00    +0.010 C 
ATOM     23  C   LIG    1        8.239  -1.496  -0.893  0.00  0.00    +0.010 C 
ATOM     24  C   LIG    1        7.885  -2.466   0.236  0.00  0.00    +0.000 C 
ATOM     25  C   LIG    1        6.996  -1.755   1.258  0.00  0.00    +0.030 C 
ATOM     26  C   LIG    1        5.713  -1.278   0.574  0.00  0.00    -0.010 C 
ENDBRANCH  18  21
BRANCH  19  27
ATOM     27  C   LIG    1        4.138  -2.131  -1.769  0.00  0.00    -0.160 A 
ATOM     28  C   LIG    1        5.307  -2.726  -1.293  0.00  0.00    +0.090 A 
ATOM     29  C   LIG    1        5.581  -4.043  -1.600  0.00  0.00    -0.030 A 
ATOM     30  C   LIG    1        4.705  -4.770  -2.386  0.00  0.00    +0.030 A 
ATOM     31  C   LIG    1        3.547  -4.184  -2.865  0.00  0.00    -0.010 A 
ATOM     32  C   LIG    1        3.258  -2.870  -2.561  0.00  0.00    +0.070 A 
ENDBRANCH  19  27
ENDBRANCH   1  18
TORSDOF 6
