REMARK  Name = ZINCrg00000fRebZ.0
REMARK                            x       y       z     vdW  Elec       q    Type
REMARK                         _______ _______ _______ _____ _____    ______ ____
ROOT
ATOM      1  C   LIG    1       -2.026   2.227  -1.296  0.00  0.00    +0.580 C 
ATOM      2  N   LIG    1       -0.689   2.059  -1.272  0.00  0.00    -0.730 N 
ATOM      3  H   LIG    1       -0.160   2.264  -2.060  0.00  0.00    +0.400 HD
ATOM      4  O   LIG    1       -2.688   1.970  -0.309  0.00  0.00    -0.520 OA
ENDROOT
BRANCH   1  10
ATOM      5  N   LIG    1       -4.634   4.082  -5.847  0.00  0.00    -0.380 N 
ATOM      6  N   LIG    1       -5.956   4.085  -5.391  0.00  0.00    -0.230 NA
ATOM      7  C   LIG    1       -6.006   3.672  -4.157  0.00  0.00    +0.300 A 
ATOM      8  C   LIG    1       -4.642   3.367  -3.739  0.00  0.00    -0.240 A 
ATOM      9  C   LIG    1       -4.071   2.892  -2.556  0.00  0.00    +0.240 A 
ATOM     10  C   LIG    1       -2.687   2.721  -2.521  0.00  0.00    -0.240 A 
ATOM     11  C   LIG    1       -1.932   3.019  -3.663  0.00  0.00    +0.360 A 
ATOM     12  N   LIG    1       -2.499   3.459  -4.761  0.00  0.00    -0.500 NA
ATOM     13  C   LIG    1       -3.813   3.644  -4.846  0.00  0.00    +0.330 A 
BRANCH   5  15
ATOM     14  C   LIG    1       -4.871   3.591  -8.231  0.00  0.00    +0.050 C 
ATOM     15  C   LIG    1       -4.198   4.484  -7.186  0.00  0.00    +0.270 C 
ATOM     16  C   LIG    1       -4.590   5.942  -7.434  0.00  0.00    +0.050 C 
ENDBRANCH   5  15
ENDBRANCH   1  10
BRANCH   2  17
ATOM     17  C   LIG    1       -0.033   1.569  -0.058  0.00  0.00    +0.290 C 
ATOM     18  C   LIG    1       -0.052   0.033  -0.067  0.00  0.00    -0.310 C 
ATOM     19  S   LIG    1        1.703  -0.474   0.072  0.00  0.00    +2.390 S 
ATOM     20  C   LIG    1        2.289   1.125   0.763  0.00  0.00    -0.290 C 
ATOM     21  O   LIG    1        2.250  -0.661  -1.227  0.00  0.00    -0.930 OA
ATOM     22  O   LIG    1        1.829  -1.494   1.054  0.00  0.00    -0.930 OA
ATOM     23  C   LIG    1        1.389   2.131   0.000  0.00  0.00    +0.150 C 
BRANCH  23  24
ATOM     24  N   LIG    1        1.382   3.420   0.704  0.00  0.00    -0.500 NA
ATOM     25  C   LIG    1        2.762   3.945   0.867  0.00  0.00    +0.170 C 
ATOM     26  C   LIG    1        2.540   5.458   1.115  0.00  0.00    +0.030 C 
ATOM     27  C   LIG    1        1.355   5.791   0.178  0.00  0.00    +0.010 C 
ATOM     28  C   LIG    1        0.651   4.444  -0.074  0.00  0.00    +0.160 C 
ENDBRANCH  23  24
ENDBRANCH   2  17
TORSDOF 4
