REMARK  Name = ZINCrg000000oh3X.0
REMARK                            x       y       z     vdW  Elec       q    Type
REMARK                         _______ _______ _______ _____ _____    ______ ____
ROOT
ATOM      1  N   LIG    1       -0.919   1.648  -0.996  0.00  0.00    -0.740 N 
ATOM      2  H   LIG    1       -0.764   2.540  -1.344  0.00  0.00    +0.390 HD
ATOM      3  C   LIG    1       -1.968   0.926  -1.437  0.00  0.00    +0.710 C 
ATOM      4  N   LIG    1       -2.802   1.443  -2.361  0.00  0.00    -0.750 N 
ATOM      5  H   LIG    1       -2.647   2.335  -2.708  0.00  0.00    +0.400 HD
ATOM      6  O   LIG    1       -2.162  -0.193  -1.001  0.00  0.00    -0.580 OA
ENDROOT
BRANCH   1   9
ATOM      7  C   LIG    1        1.341   1.659   1.534  0.00  0.00    +0.130 C 
ATOM      8  C   LIG    1       -0.192   1.692   1.410  0.00  0.00    +0.010 C 
ATOM      9  C   LIG    1       -0.013   1.086   0.008  0.00  0.00    +0.280 C 
ATOM     10  C   LIG    1        1.388   1.721  -0.002  0.00  0.00    +0.160 C 
BRANCH  10  11
ATOM     11  O   LIG    1        2.392   0.883  -0.578  0.00  0.00    -0.360 OA
ATOM     12  C   LIG    1        3.455   1.601  -1.208  0.00  0.00    +0.200 C 
ENDBRANCH  10  11
BRANCH   7  13
ATOM     13  O   LIG    1        1.845   0.435   2.073  0.00  0.00    -0.350 OA
BRANCH  13  15
ATOM     14  C   LIG    1        2.940  -0.794   3.843  0.00  0.00    +0.040 C 
ATOM     15  C   LIG    1        2.437   0.570   3.367  0.00  0.00    +0.160 C 
ENDBRANCH  13  15
ENDBRANCH   7  13
ENDBRANCH   1   9
BRANCH   4  16
ATOM     16  C   LIG    1       -3.943   0.658  -2.839  0.00  0.00    +0.350 C 
BRANCH  16  17
ATOM     17  C   LIG    1       -4.710   1.458  -3.860  0.00  0.00    -0.160 A 
ATOM     18  C   LIG    1       -4.387   1.372  -5.199  0.00  0.00    +0.310 A 
ATOM     19  N   LIG    1       -5.053   2.067  -6.103  0.00  0.00    -0.490 NA
ATOM     20  C   LIG    1       -6.050   2.869  -5.766  0.00  0.00    +0.300 A 
ATOM     21  C   LIG    1       -6.430   3.005  -4.432  0.00  0.00    +0.030 A 
ATOM     22  F   LIG    1       -7.448   3.825  -4.090  0.00  0.00    -0.120 F 
ATOM     23  C   LIG    1       -5.753   2.284  -3.463  0.00  0.00    +0.080 A 
BRANCH  20  24
ATOM     24  N   LIG    1       -6.723   3.584  -6.752  0.00  0.00    -0.470 N 
ATOM     25  C   LIG    1       -8.165   3.298  -6.717  0.00  0.00    +0.180 C 
ATOM     26  C   LIG    1       -8.874   4.147  -7.775  0.00  0.00    +0.250 C 
ATOM     27  O   LIG    1       -8.299   3.879  -9.057  0.00  0.00    -0.380 OA
ATOM     28  C   LIG    1       -6.896   4.147  -9.127  0.00  0.00    +0.230 C 
ATOM     29  C   LIG    1       -6.168   3.298  -8.082  0.00  0.00    +0.190 C 
ENDBRANCH  20  24
ENDBRANCH  16  17
ENDBRANCH   4  16
TORSDOF 7
