REMARK  Name = ZINCpk00000e9uxv.0
REMARK                            x       y       z     vdW  Elec       q    Type
REMARK                         _______ _______ _______ _____ _____    ______ ____
ROOT
ATOM      1  O   LIG    1        4.405   0.088   2.277  0.00  0.00    -0.340 OA
ENDROOT
BRANCH   1   2
ATOM      2  C   LIG    1        3.140  -0.347   2.170  0.00  0.00    +0.470 C 
ATOM      3  O   LIG    1        2.705  -1.142   2.968  0.00  0.00    -0.500 OA
BRANCH   2   4
ATOM      4  C   LIG    1        2.263   0.156   1.052  0.00  0.00    +0.040 C 
ATOM      5  C   LIG    1        0.880  -0.492   1.159  0.00  0.00    +0.050 C 
ATOM      6  C   LIG    1        0.002  -0.004   0.002  0.00  0.00    +0.300 C 
ATOM      7  N   LIG    1       -0.018   1.465   0.010  0.00  0.00    -1.000 NA
ATOM      8  C   LIG    1        1.261   2.189   0.002  0.00  0.00    +0.300 C 
ATOM      9  C   LIG    1        2.125   1.677   1.158  0.00  0.00    +0.040 C 
BRANCH   7  10
ATOM     10  S   LIG    1       -1.454   2.289   0.021  0.00  0.00    +2.610 S 
ATOM     11  O   LIG    1       -2.377   1.394  -0.584  0.00  0.00    -0.950 OA
ATOM     12  O   LIG    1       -1.145   3.540  -0.579  0.00  0.00    -0.950 OA
ATOM     13  C   LIG    1       -1.838   2.505   1.781  0.00  0.00    -0.280 C 
ENDBRANCH   7  10
ENDBRANCH   2   4
ENDBRANCH   1   2
BRANCH   1  14
ATOM     14  C   LIG    1        5.193  -0.439   3.377  0.00  0.00    +0.240 C 
BRANCH  14  15
ATOM     15  C   LIG    1        6.576   0.158   3.337  0.00  0.00    +0.400 C 
ATOM     16  O   LIG    1        6.869   0.950   2.467  0.00  0.00    -0.430 OA
BRANCH  15  20
ATOM     17  C   LIG    1        9.438  -0.929   6.263  0.00  0.00    +0.170 A 
ATOM     18  C   LIG    1        9.777  -0.021   5.266  0.00  0.00    -0.020 A 
ATOM     19  C   LIG    1        8.854   0.334   4.316  0.00  0.00    +0.130 A 
ATOM     20  C   LIG    1        7.568  -0.219   4.352  0.00  0.00    -0.210 A 
ATOM     21  C   LIG    1        7.230  -1.129   5.361  0.00  0.00    +0.100 A 
ATOM     22  C   LIG    1        8.162  -1.482   6.303  0.00  0.00    -0.080 A 
BRANCH  17  23
ATOM     23  O   LIG    1       10.354  -1.277   7.201  0.00  0.00    -0.310 OA
BRANCH  23  25
ATOM     24  C   LIG    1       11.099  -2.482   9.159  0.00  0.00    +0.070 C 
ATOM     25  C   LIG    1        9.940  -2.215   8.197  0.00  0.00    +0.190 C 
ENDBRANCH  23  25
ENDBRANCH  17  23
ENDBRANCH  15  20
ENDBRANCH  14  15
ENDBRANCH   1  14
TORSDOF 8
