REMARK  Name = ZINCvU000000062H.0
REMARK                            x       y       z     vdW  Elec       q    Type
REMARK                         _______ _______ _______ _____ _____    ______ ____
ROOT
ATOM      1  C   LIG    1       -1.010   3.230   2.954  0.00  0.00    +0.100 A 
ATOM      2  C   LIG    1       -0.359   2.780   1.818  0.00  0.00    -0.010 A 
ATOM      3  C   LIG    1       -0.718   1.572   1.248  0.00  0.00    -0.080 A 
ATOM      4  C   LIG    1       -1.719   0.807   1.816  0.00  0.00    +0.010 A 
ATOM      5  C   LIG    1       -2.369   1.248   2.954  0.00  0.00    -0.040 A 
ATOM      6  C   LIG    1       -2.018   2.460   3.526  0.00  0.00    +0.110 A 
ENDROOT
BRANCH   1   8
ATOM      7  C   LIG    1        0.382   5.157   2.871  0.00  0.00    +0.240 C 
ATOM      8  O   LIG    1       -0.661   4.420   3.512  0.00  0.00    -0.310 OA
ENDBRANCH   1   8
BRANCH   3   9
ATOM      9  C   LIG    1       -0.013   1.086   0.008  0.00  0.00    +0.240 C 
BRANCH   9  10
ATOM     10  N   LIG    1       -0.723   1.572  -1.182  0.00  0.00    -0.520 NA
ATOM     11  C   LIG    1       -2.059   0.969  -1.281  0.00  0.00    +0.190 C 
BRANCH  10  12
ATOM     12  C   LIG    1        0.059   1.323  -2.401  0.00  0.00    +0.260 C 
ATOM     13  C   LIG    1        1.403   2.047  -2.301  0.00  0.00    +0.080 C 
BRANCH  12  14
ATOM     14  C   LIG    1       -0.701   1.834  -3.598  0.00  0.00    +0.170 A 
ATOM     15  N   LIG    1       -1.316   2.980  -3.686  0.00  0.00    -0.250 NA
ATOM     16  N   LIG    1       -1.855   3.091  -4.849  0.00  0.00    -0.270 NA
ATOM     17  C   LIG    1       -1.606   2.005  -5.548  0.00  0.00    +0.240 A 
ATOM     18  O   LIG    1       -0.869   1.189  -4.766  0.00  0.00    -0.220 OA
BRANCH  17  19
ATOM     19  C   LIG    1       -2.049   1.731  -6.923  0.00  0.00    -0.150 A 
ATOM     20  C   LIG    1       -2.793   2.571  -7.693  0.00  0.00    +0.100 A 
ATOM     21  C   LIG    1       -3.081   2.088  -8.950  0.00  0.00    +0.020 A 
ATOM     22  C   LIG    1       -2.588   0.875  -9.220  0.00  0.00    -0.010 A 
ATOM     23  S   LIG    1       -1.694   0.269  -7.834  0.00  0.00    +0.170 S 
ENDBRANCH  17  19
ENDBRANCH  12  14
ENDBRANCH  10  12
ENDBRANCH   9  10
ENDBRANCH   3   9
BRANCH   6  24
ATOM     24  O   LIG    1       -2.656   2.895   4.646  0.00  0.00    -0.300 OA
BRANCH  24  25
ATOM     25  C   LIG    1       -3.680   2.053   5.178  0.00  0.00    +0.240 C 
BRANCH  25  26
ATOM     26  C   LIG    1       -4.269   2.694   6.408  0.00  0.00    -0.100 A 
ATOM     27  C   LIG    1       -3.731   2.427   7.653  0.00  0.00    +0.020 A 
ATOM     28  C   LIG    1       -4.269   3.019   8.780  0.00  0.00    +0.010 A 
ATOM     29  C   LIG    1       -5.351   3.870   8.664  0.00  0.00    +0.010 A 
ATOM     30  C   LIG    1       -5.893   4.133   7.420  0.00  0.00    +0.010 A 
ATOM     31  C   LIG    1       -5.352   3.545   6.292  0.00  0.00    +0.030 A 
ENDBRANCH  25  26
ENDBRANCH  24  25
ENDBRANCH   6  24
TORSDOF 9
