REMARK  Name = ZINCqH0000007RNN.0
REMARK                            x       y       z     vdW  Elec       q    Type
REMARK                         _______ _______ _______ _____ _____    ______ ____
ROOT
ATOM      1  N   LIG    1        3.516  -2.044  -0.625  0.00  0.00    -0.720 N 
ATOM      2  H   LIG    1        2.642  -2.464  -0.598  0.00  0.00    +0.400 HD
ATOM      3  C   LIG    1        4.552  -2.682  -1.205  0.00  0.00    +0.550 C 
ATOM      4  O   LIG    1        5.647  -2.156  -1.238  0.00  0.00    -0.500 OA
ENDROOT
BRANCH   3   5
ATOM      5  C   LIG    1        4.356  -4.027  -1.802  0.00  0.00    -0.030 A 
ATOM      6  C   LIG    1        5.412  -4.691  -2.399  0.00  0.00    +0.000 A 
ATOM      7  C   LIG    1        5.190  -5.967  -2.955  0.00  0.00    +0.520 A 
ATOM      8  N   LIG    1        3.965  -6.523  -2.901  0.00  0.00    -0.600 N 
ATOM      9  H   LIG    1        3.822  -7.401  -3.287  0.00  0.00    +0.410 HD
ATOM     10  C   LIG    1        2.926  -5.875  -2.316  0.00  0.00    +0.200 A 
ATOM     11  O   LIG    1        6.109  -6.569  -3.486  0.00  0.00    -0.540 OA
ATOM     12  C   LIG    1        3.091  -4.651  -1.763  0.00  0.00    -0.060 A 
BRANCH  10  13
ATOM     13  C   LIG    1        1.570  -6.531  -2.276  0.00  0.00    +0.000 C 
ATOM     14  C   LIG    1        1.479  -7.992  -2.720  0.00  0.00    +0.040 C 
ATOM     15  C   LIG    1        0.916  -6.883  -3.613  0.00  0.00    +0.050 C 
ENDBRANCH  10  13
ENDBRANCH   3   5
BRANCH   1  16
ATOM     16  C   LIG    1        3.710  -0.717  -0.036  0.00  0.00    +0.300 C 
BRANCH  16  22
ATOM     17  C   LIG    1        2.380   1.409  -0.013  0.00  0.00    +0.140 A 
ATOM     18  C   LIG    1        1.170   2.086   0.002  0.00  0.00    -0.070 A 
ATOM     19  C   LIG    1       -0.017   1.378   0.010  0.00  0.00    +0.050 A 
ATOM     20  C   LIG    1        0.002  -0.004   0.002  0.00  0.00    -0.020 A 
ATOM     21  C   LIG    1        1.208  -0.681  -0.013  0.00  0.00    +0.040 A 
ATOM     22  C   LIG    1        2.396   0.022  -0.020  0.00  0.00    -0.120 A 
BRANCH  17  24
ATOM     23  C   LIG    1        3.456   3.530  -0.011  0.00  0.00    +0.250 C 
ATOM     24  O   LIG    1        3.548   2.104  -0.019  0.00  0.00    -0.310 OA
ENDBRANCH  17  24
ENDBRANCH  16  22
BRANCH  16  25
ATOM     25  C   LIG    1        4.229  -0.865   1.396  0.00  0.00    +0.020 C 
BRANCH  25  26
ATOM     26  C   LIG    1        5.619  -1.503   1.370  0.00  0.00    -0.020 C 
ATOM     27  C   LIG    1        6.086  -1.766   2.803  0.00  0.00    +0.000 C 
ATOM     28  C   LIG    1        6.603  -0.557   0.679  0.00  0.00    +0.020 C 
ENDBRANCH  25  26
ENDBRANCH  16  25
ENDBRANCH   1  16
TORSDOF 7
