REMARK  Name = ZINCpk00000e9QyA.0
REMARK                            x       y       z     vdW  Elec       q    Type
REMARK                         _______ _______ _______ _____ _____    ______ ____
ROOT
ATOM      1  N   LIG    1        3.097   4.309  -1.589  0.00  0.00    -0.980 NA
ENDROOT
BRANCH   1   2
ATOM      2  S   LIG    1        2.689   4.054  -0.004  0.00  0.00    +2.690 S 
ATOM      3  O   LIG    1        3.671   3.174   0.527  0.00  0.00    -0.950 OA
ATOM      4  O   LIG    1        2.411   5.333   0.549  0.00  0.00    -0.940 OA
BRANCH   2   5
ATOM      5  C   LIG    1        1.167   3.166   0.007  0.00  0.00    -0.700 A 
ATOM      6  C   LIG    1        1.176   1.782   0.000  0.00  0.00    +0.200 A 
ATOM      7  C   LIG    1       -0.013   1.076   0.008  0.00  0.00    -0.010 A 
ATOM      8  C   LIG    1       -1.220   1.749   0.017  0.00  0.00    +0.200 A 
ATOM      9  C   LIG    1       -1.235   3.148   0.030  0.00  0.00    -0.070 A 
ATOM     10  F   LIG    1       -2.381   1.059   0.019  0.00  0.00    -0.110 F 
ATOM     11  C   LIG    1       -0.029   3.853   0.022  0.00  0.00    +0.220 A 
BRANCH   9  12
ATOM     12  C   LIG    1       -2.481   3.854   0.046  0.00  0.00    +0.240 C 
ATOM     13  N   LIG    1       -3.469   4.415   0.058  0.00  0.00    -0.380 NA
ENDBRANCH   9  12
ENDBRANCH   2   5
ENDBRANCH   1   2
BRANCH   1  14
ATOM     14  C   LIG    1        3.916   3.325  -2.301  0.00  0.00    +0.330 C 
BRANCH  14  20
ATOM     15  C   LIG    1        3.752  -0.718  -5.102  0.00  0.00    +0.190 C 
ATOM     16  N   LIG    1        2.985   0.388  -4.513  0.00  0.00    -0.540 NA
ATOM     17  C   LIG    1        2.286   1.157  -5.552  0.00  0.00    +0.160 C 
ATOM     18  C   LIG    1        1.454   2.259  -4.890  0.00  0.00    +0.220 C 
ATOM     19  O   LIG    1        2.310   3.081  -4.092  0.00  0.00    -0.370 OA
ATOM     20  C   LIG    1        3.007   2.364  -3.070  0.00  0.00    +0.140 C 
ATOM     21  C   LIG    1        3.854   1.263  -3.713  0.00  0.00    +0.160 C 
ENDBRANCH  14  20
ENDBRANCH   1  14
BRANCH   1  22
ATOM     22  C   LIG    1        2.638   5.517  -2.278  0.00  0.00    +0.330 C 
BRANCH  22  23
ATOM     23  C   LIG    1        3.726   6.590  -2.206  0.00  0.00    -0.070 C 
ATOM     24  C   LIG    1        3.401   7.876  -1.444  0.00  0.00    +0.020 C 
ATOM     25  C   LIG    1        3.486   7.893  -2.971  0.00  0.00    +0.020 C 
ENDBRANCH  22  23
ENDBRANCH   1  22
TORSDOF 7
