REMARK  Name = ZINCtV000002FnCw.0
REMARK                            x       y       z     vdW  Elec       q    Type
REMARK                         _______ _______ _______ _____ _____    ______ ____
ROOT
ATOM      1  N   LIG    1       -0.776   1.610  -5.312  0.00  0.00    -0.410 N 
ATOM      2  C   LIG    1       -0.940   1.718  -3.959  0.00  0.00    +0.180 A 
ATOM      3  N   LIG    1       -2.010   2.454  -3.754  0.00  0.00    -0.280 NA
ATOM      4  N   LIG    1       -2.526   2.807  -4.877  0.00  0.00    -0.250 NA
ATOM      5  C   LIG    1       -1.818   2.319  -5.869  0.00  0.00    +0.230 A 
ENDROOT
BRANCH   1  13
ATOM      6  C   LIG    1        1.611   3.021  -5.956  0.00  0.00    +0.120 C 
ATOM      7  C   LIG    1        1.419   1.572  -6.323  0.00  0.00    -0.040 A 
ATOM      8  C   LIG    1        2.418   0.890  -6.992  0.00  0.00    -0.030 A 
ATOM      9  C   LIG    1        2.242  -0.441  -7.329  0.00  0.00    +0.070 A 
ATOM     10  C   LIG    1        1.068  -1.091  -6.997  0.00  0.00    +0.050 A 
ATOM     11  C   LIG    1        0.068  -0.415  -6.325  0.00  0.00    +0.050 A 
ATOM     12 CL   LIG    1        3.894   1.702  -7.409  0.00  0.00    -0.040 Cl
ATOM     13  C   LIG    1        0.239   0.921  -5.990  0.00  0.00    +0.100 A 
ENDBRANCH   1  13
BRANCH   5  14
ATOM     14  C   LIG    1       -2.085   2.501  -7.311  0.00  0.00    +0.030 A 
ATOM     15  C   LIG    1       -1.454   1.695  -8.267  0.00  0.00    -0.020 A 
ATOM     16  C   LIG    1       -1.737   1.896  -9.601  0.00  0.00    +0.270 A 
ATOM     17  N   LIG    1       -2.579   2.837  -9.982  0.00  0.00    -0.470 NA
ATOM     18  C   LIG    1       -3.191   3.622  -9.114  0.00  0.00    +0.280 A 
ATOM     19  C   LIG    1       -2.972   3.487  -7.760  0.00  0.00    +0.020 A 
ENDBRANCH   5  14
BRANCH   2  20
ATOM     20  S   LIG    1        0.095   1.009  -2.721  0.00  0.00    +0.010 S 
BRANCH  20  21
ATOM     21  C   LIG    1       -0.753   1.593  -1.232  0.00  0.00    +0.090 C 
BRANCH  21  22
ATOM     22  C   LIG    1       -0.013   1.086   0.008  0.00  0.00    +0.060 C 
BRANCH  22  23
ATOM     23  C   LIG    1       -0.729   1.579   1.267  0.00  0.00    +0.090 C 
BRANCH  23  24
ATOM     24  C   LIG    1        0.000   1.080   2.488  0.00  0.00    -0.080 A 
ATOM     25  C   LIG    1       -0.347  -0.133   3.052  0.00  0.00    +0.000 A 
ATOM     26  C   LIG    1        0.325  -0.593   4.169  0.00  0.00    +0.000 A 
ATOM     27  C   LIG    1        1.337   0.165   4.728  0.00  0.00    +0.000 A 
ATOM     28  C   LIG    1        1.680   1.380   4.167  0.00  0.00    +0.000 A 
ATOM     29  C   LIG    1        1.012   1.838   3.046  0.00  0.00    +0.000 A 
ENDBRANCH  23  24
ENDBRANCH  22  23
ENDBRANCH  21  22
ENDBRANCH  20  21
ENDBRANCH   2  20
TORSDOF 7
