REMARK  Name = ZINCtV000002pxmw.0
REMARK                            x       y       z     vdW  Elec       q    Type
REMARK                         _______ _______ _______ _____ _____    ______ ____
ROOT
ATOM      1  C   LIG    1        1.294   0.068   3.773  0.00  0.00    +0.390 A 
ATOM      2  N   LIG    1        0.815   0.393   2.586  0.00  0.00    -0.570 NA
ATOM      3  C   LIG    1       -0.209   1.224   2.463  0.00  0.00    +0.490 A 
ATOM      4  C   LIG    1       -0.800   1.760   3.637  0.00  0.00    -0.220 A 
ATOM      5  C   LIG    1       -0.260   1.382   4.864  0.00  0.00    +0.120 A 
ATOM      6  S   LIG    1       -1.145   2.163   6.163  0.00  0.00    +0.180 S 
ATOM      7  C   LIG    1       -2.220   2.981   5.041  0.00  0.00    -0.180 A 
ATOM      8  C   LIG    1       -3.345   3.912   5.458  0.00  0.00    +0.120 C 
ATOM      9  C   LIG    1       -3.778   4.739   4.245  0.00  0.00    +0.030 C 
ATOM     10  C   LIG    1       -4.024   3.796   3.063  0.00  0.00    +0.020 C 
ATOM     11  C   LIG    1       -2.683   3.239   2.580  0.00  0.00    +0.090 C 
ATOM     12  C   LIG    1       -1.924   2.679   3.776  0.00  0.00    -0.070 A 
ATOM     13  N   LIG    1        0.781   0.539   4.887  0.00  0.00    -0.510 NA
ENDROOT
BRANCH   3  14
ATOM     14  N   LIG    1       -0.698   1.558   1.213  0.00  0.00    -0.700 N 
ATOM     15  H   LIG    1       -1.398   2.225   1.129  0.00  0.00    +0.420 HD
BRANCH  14  16
ATOM     16  C   LIG    1       -0.160   0.906   0.017  0.00  0.00    +0.400 C 
BRANCH  16  17
ATOM     17  C   LIG    1       -0.857   1.444  -1.206  0.00  0.00    -0.050 A 
ATOM     18  C   LIG    1       -0.465   2.507  -1.930  0.00  0.00    -0.030 A 
ATOM     19  C   LIG    1       -1.401   2.656  -2.979  0.00  0.00    -0.070 A 
ATOM     20  C   LIG    1       -2.310   1.675  -2.832  0.00  0.00    +0.190 A 
ATOM     21  O   LIG    1       -1.972   0.940  -1.760  0.00  0.00    -0.170 OA
ENDBRANCH  16  17
ENDBRANCH  14  16
ENDBRANCH   3  14
BRANCH   1  22
ATOM     22  C   LIG    1        2.464  -0.877   3.853  0.00  0.00    +0.190 C 
BRANCH  22  23
ATOM     23  S   LIG    1        1.858  -2.584   3.950  0.00  0.00    -0.060 S 
BRANCH  23  28
ATOM     24 BR   LIG    1        7.269  -6.026   4.259  0.00  0.00    -0.050 Br
ATOM     25  C   LIG    1        5.675  -5.012   4.169  0.00  0.00    -0.100 A 
ATOM     26  C   LIG    1        4.448  -5.652   4.188  0.00  0.00    +0.070 A 
ATOM     27  C   LIG    1        3.283  -4.914   4.122  0.00  0.00    +0.050 A 
ATOM     28  C   LIG    1        3.343  -3.529   4.035  0.00  0.00    -0.070 A 
ATOM     29  C   LIG    1        4.577  -2.890   4.010  0.00  0.00    +0.000 A 
ATOM     30  C   LIG    1        5.738  -3.632   4.083  0.00  0.00    +0.070 A 
ENDBRANCH  23  28
ENDBRANCH  22  23
ENDBRANCH   1  22
TORSDOF 6
