REMARK  Name = ZINCrD000006OIwX.0
REMARK                            x       y       z     vdW  Elec       q    Type
REMARK                         _______ _______ _______ _____ _____    ______ ____
ROOT
ATOM      1  N   LIG    1        6.964   1.432   1.275  0.00  0.00    -0.490 N 
ATOM      2  C   LIG    1        6.946  -0.037   1.266  0.00  0.00    +0.180 C 
ATOM      3  C   LIG    1        6.118  -0.526   0.073  0.00  0.00    +0.310 C 
ATOM      4  N   LIG    1        4.794   0.112   0.129  0.00  0.00    -0.590 N 
ATOM      5  C   LIG    1        4.732   1.574   0.272  0.00  0.00    +0.290 C 
ATOM      6  C   LIG    1        3.668  -0.624   0.048  0.00  0.00    +0.570 C 
ATOM      7  O   LIG    1        2.582  -0.078   0.083  0.00  0.00    -0.530 OA
ATOM      8  C   LIG    1        5.615   1.980   1.463  0.00  0.00    +0.190 C 
ENDROOT
BRANCH   6   9
ATOM      9  C   LIG    1        3.753  -2.098  -0.086  0.00  0.00    +0.120 A 
ATOM     10  N   LIG    1        4.868  -2.641  -0.533  0.00  0.00    -0.440 NA
ATOM     11  C   LIG    1        4.990  -3.961  -0.669  0.00  0.00    +0.120 A 
ATOM     12  C   LIG    1        6.183  -4.534  -1.147  0.00  0.00    +0.050 A 
ATOM     13  C   LIG    1        6.279  -5.885  -1.276  0.00  0.00    +0.030 A 
ATOM     14  C   LIG    1        5.213  -6.717  -0.941  0.00  0.00    +0.030 A 
ATOM     15  C   LIG    1        4.040  -6.201  -0.480  0.00  0.00    +0.030 A 
ATOM     16  C   LIG    1        3.905  -4.811  -0.329  0.00  0.00    -0.090 A 
ATOM     17  C   LIG    1        2.711  -4.241   0.150  0.00  0.00    +0.100 A 
ATOM     18  C   LIG    1        2.645  -2.883   0.267  0.00  0.00    +0.020 A 
ENDBRANCH   6   9
BRANCH   1  22
ATOM     19  C   LIG    1        9.569   2.868   4.171  0.00  0.00    -0.200 A 
ATOM     20  C   LIG    1        8.853   3.763   3.364  0.00  0.00    +0.110 A 
ATOM     21  C   LIG    1        7.997   3.286   2.413  0.00  0.00    -0.030 A 
ATOM     22  C   LIG    1        7.836   1.913   2.244  0.00  0.00    +0.150 A 
ATOM     23  C   LIG    1        8.542   1.020   3.047  0.00  0.00    -0.060 A 
ATOM     24  C   LIG    1        9.404   1.488   3.997  0.00  0.00    +0.100 A 
BRANCH  19  26
ATOM     25  C   LIG    1       11.303   2.413   6.021  0.00  0.00    +0.070 C 
ATOM     26  C   LIG    1       10.490   3.376   5.195  0.00  0.00    +0.400 C 
ATOM     27  O   LIG    1       10.595   4.571   5.376  0.00  0.00    -0.460 OA
ENDBRANCH  19  26
ENDBRANCH   1  22
TORSDOF 3
