REMARK  Name = ZINCrg00000Kc7Au.0
REMARK                            x       y       z     vdW  Elec       q    Type
REMARK                         _______ _______ _______ _____ _____    ______ ____
ROOT
ATOM      1  O   LIG    1        3.880   0.001   2.527  0.00  0.00    -0.490 OA
ATOM      2  C   LIG    1        2.810  -0.536   2.316  0.00  0.00    +0.610 C 
ATOM      3  N   LIG    1        1.880   0.086   1.564  0.00  0.00    -0.600 N 
ATOM      4  C   LIG    1        0.641  -0.602   1.169  0.00  0.00    +0.270 C 
ATOM      5  C   LIG    1        0.462  -0.443  -0.345  0.00  0.00    +0.210 C 
ATOM      6  O   LIG    1        0.555   0.942  -0.687  0.00  0.00    -0.370 OA
ATOM      7  C   LIG    1        1.825   1.532  -0.396  0.00  0.00    +0.250 C 
ATOM      8  C   LIG    1        2.074   1.474   1.115  0.00  0.00    +0.290 C 
ENDROOT
BRANCH   2   9
ATOM      9  C   LIG    1        2.529  -1.871   2.882  0.00  0.00    +0.060 A 
ATOM     10  N   LIG    1        1.371  -2.500   2.845  0.00  0.00    -0.220 NA
ATOM     11  N   LIG    1        1.526  -3.735   3.484  0.00  0.00    -0.410 N 
ATOM     12  C   LIG    1        0.816  -4.973   3.856  0.00  0.00    +0.330 C 
ATOM     13  C   LIG    1        1.978  -5.926   4.215  0.00  0.00    +0.270 C 
ATOM     14  O   LIG    1        3.024  -5.007   4.583  0.00  0.00    -0.280 OA
ATOM     15  C   LIG    1        2.805  -3.834   3.929  0.00  0.00    +0.240 A 
ATOM     16  C   LIG    1        3.451  -2.693   3.562  0.00  0.00    -0.040 A 
ENDBRANCH   2   9
BRANCH   8  17
ATOM     17  C   LIG    1        3.484   1.912   1.415  0.00  0.00    +0.300 A 
ATOM     18  N   LIG    1        4.572   1.420   0.879  0.00  0.00    -0.510 NA
ATOM     19  C   LIG    1        5.641   2.042   1.374  0.00  0.00    +0.440 A 
ATOM     20  N   LIG    1        5.248   2.943   2.236  0.00  0.00    -0.310 NA
ATOM     21  N   LIG    1        3.846   2.882   2.276  0.00  0.00    -0.320 N 
BRANCH  21  22
ATOM     22  C   LIG    1        2.992   3.672   3.059  0.00  0.00    +0.150 A 
ATOM     23  C   LIG    1        1.756   4.063   2.563  0.00  0.00    -0.010 A 
ATOM     24  C   LIG    1        0.914   4.835   3.340  0.00  0.00    +0.050 A 
ATOM     25  C   LIG    1        1.308   5.230   4.605  0.00  0.00    +0.010 A 
ATOM     26  C   LIG    1        2.541   4.848   5.100  0.00  0.00    +0.030 A 
ATOM     27  C   LIG    1        3.384   4.070   4.331  0.00  0.00    +0.030 A 
ENDBRANCH  21  22
ENDBRANCH   8  17
TORSDOF 3
