REMARK  Name = ZINCpk00000xI9IE.0
REMARK                            x       y       z     vdW  Elec       q    Type
REMARK                         _______ _______ _______ _____ _____    ______ ____
ROOT
ATOM      1  C   LIG    1        0.657   2.999  -0.570  0.00  0.00    +0.060 C 
ATOM      2  C   LIG    1        1.784   2.054  -0.141  0.00  0.00    +0.330 C 
ATOM      3  N   LIG    1        1.343   0.669  -0.315  0.00  0.00    -0.710 N 
ATOM      4  H   LIG    1        2.000  -0.018  -0.505  0.00  0.00    +0.430 HD
ATOM      5  C   LIG    1        0.048   0.333  -0.221  0.00  0.00    +0.730 C 
ATOM      6  N   LIG    1       -0.916   1.231   0.033  0.00  0.00    -0.740 N 
ATOM      7  H   LIG    1       -1.838   0.936   0.086  0.00  0.00    +0.420 HD
ATOM      8  O   LIG    1       -0.265  -0.833  -0.369  0.00  0.00    -0.570 OA
ATOM      9  C   LIG    1       -0.604   2.648   0.227  0.00  0.00    +0.330 C 
ENDROOT
BRANCH   2  10
ATOM     10  C   LIG    1        2.121   2.297   1.307  0.00  0.00    -0.140 A 
ATOM     11  C   LIG    1        2.974   3.329   1.654  0.00  0.00    +0.070 A 
ATOM     12  C   LIG    1        3.280   3.558   2.981  0.00  0.00    -0.080 A 
ATOM     13  C   LIG    1        2.740   2.744   3.966  0.00  0.00    +0.140 A 
ATOM     14  C   LIG    1        1.889   1.706   3.616  0.00  0.00    -0.020 A 
ATOM     15  C   LIG    1        1.582   1.485   2.287  0.00  0.00    +0.100 A 
BRANCH  13  16
ATOM     16  O   LIG    1        3.043   2.964   5.273  0.00  0.00    -0.320 OA
ATOM     17  C   LIG    1        3.925   4.050   5.560  0.00  0.00    +0.250 C 
ENDBRANCH  13  16
ENDBRANCH   2  10
BRANCH   9  18
ATOM     18  C   LIG    1       -1.775   3.501  -0.266  0.00  0.00    +0.430 C 
ATOM     19  F   LIG    1       -1.418   4.853  -0.221  0.00  0.00    -0.160 F 
ATOM     20  F   LIG    1       -2.887   3.285   0.555  0.00  0.00    -0.170 F 
ATOM     21  F   LIG    1       -2.090   3.146  -1.581  0.00  0.00    -0.160 F 
ENDBRANCH   9  18
BRANCH   1  22
ATOM     22  C   LIG    1        0.387   2.829  -2.043  0.00  0.00    +0.460 C 
ATOM     23  O   LIG    1        0.595   1.765  -2.577  0.00  0.00    -0.470 OA
BRANCH  22  24
ATOM     24  O   LIG    1       -0.083   3.860  -2.763  0.00  0.00    -0.350 OA
BRANCH  24  26
ATOM     25  C   LIG    1       -0.850   4.904  -4.825  0.00  0.00    +0.070 C 
ATOM     26  C   LIG    1       -0.319   3.624  -4.176  0.00  0.00    +0.210 C 
ENDBRANCH  24  26
ENDBRANCH  22  24
ENDBRANCH   1  22
BRANCH   9  27
ATOM     27  O   LIG    1       -0.378   2.903   1.615  0.00  0.00    -0.510 OA
ATOM     28  H   LIG    1       -1.136   2.703   2.180  0.00  0.00    +0.390 HD
ENDBRANCH   9  27
TORSDOF 7
