REMARK  Name = ZINCvU0000000Dsp.1
REMARK                            x       y       z     vdW  Elec       q    Type
REMARK                         _______ _______ _______ _____ _____    ______ ____
ROOT
ATOM      1  C   LIG    1        3.709   2.987  -0.017  0.00  0.00    +0.500 C 
ATOM      2  N   LIG    1        3.480   1.659  -0.022  0.00  0.00    -0.630 N 
ATOM      3  H   LIG    1        4.225   1.038  -0.033  0.00  0.00    +0.430 HD
ATOM      4  O   LIG    1        2.777   3.763  -0.004  0.00  0.00    -0.450 OA
ENDROOT
BRANCH   2   5
ATOM      5  C   LIG    1        2.173   1.178  -0.012  0.00  0.00    +0.250 A 
ATOM      6  N   LIG    1        1.093   1.898   0.002  0.00  0.00    -0.250 NA
ATOM      7  N   LIG    1       -0.016   1.297   0.009  0.00  0.00    -0.240 NA
ATOM      8  C   LIG    1        0.002  -0.004   0.002  0.00  0.00    -0.020 A 
ATOM      9  S   LIG    1        1.690  -0.520  -0.017  0.00  0.00    +0.130 S 
BRANCH   8  10
ATOM     10  S   LIG    1       -1.407  -1.062   0.010  0.00  0.00    +0.030 S 
BRANCH  10  11
ATOM     11  C   LIG    1       -2.794   0.106   0.029  0.00  0.00    +0.150 C 
BRANCH  11  12
ATOM     12  C   LIG    1       -4.094  -0.657   0.037  0.00  0.00    -0.120 A 
ATOM     13  C   LIG    1       -4.679  -1.013   1.237  0.00  0.00    +0.070 A 
ATOM     14  C   LIG    1       -5.871  -1.713   1.245  0.00  0.00    +0.010 A 
ATOM     15  C   LIG    1       -6.479  -2.058   0.052  0.00  0.00    +0.060 A 
ATOM     16  C   LIG    1       -5.896  -1.703  -1.149  0.00  0.00    -0.010 A 
ATOM     17  C   LIG    1       -4.705  -0.997  -1.158  0.00  0.00    +0.120 A 
ATOM     18  F   LIG    1       -4.137  -0.644  -2.332  0.00  0.00    -0.130 F 
ENDBRANCH  11  12
ENDBRANCH  10  11
ENDBRANCH   8  10
ENDBRANCH   2   5
BRANCH   1  19
ATOM     19  C   LIG    1        5.124   3.507  -0.028  0.00  0.00    +0.190 C 
BRANCH  19  21
ATOM     20  C   LIG    1        5.105   5.802   1.075  0.00  0.00    +0.130 A 
ATOM     21  C   LIG    1        5.104   5.014  -0.020  0.00  0.00    -0.220 A 
ATOM     22  S   LIG    1        5.085   6.059  -1.438  0.00  0.00    +0.150 S 
ATOM     23  C   LIG    1        5.070   7.443  -0.435  0.00  0.00    +0.060 A 
ATOM     24  C   LIG    1        5.048   8.865  -0.933  0.00  0.00    +0.180 C 
ATOM     25  N   LIG    1        5.086   7.100   0.806  0.00  0.00    -0.460 NA
BRANCH  20  30
ATOM     26  C   LIG    1        5.180   3.712   6.440  0.00  0.00    +0.090 C 
ATOM     27  C   LIG    1        5.160   4.259   5.036  0.00  0.00    -0.070 A 
ATOM     28  C   LIG    1        5.831   5.433   4.745  0.00  0.00    +0.010 A 
ATOM     29  C   LIG    1        5.816   5.939   3.461  0.00  0.00    +0.050 A 
ATOM     30  C   LIG    1        5.124   5.264   2.457  0.00  0.00    -0.030 A 
ATOM     31  C   LIG    1        4.446   4.084   2.757  0.00  0.00    +0.020 A 
ATOM     32  C   LIG    1        4.471   3.585   4.044  0.00  0.00    +0.000 A 
ENDBRANCH  20  30
ENDBRANCH  19  21
ENDBRANCH   1  19
TORSDOF 7
