REMARK  Name = ZINCrD0000074kvt.0
REMARK                            x       y       z     vdW  Elec       q    Type
REMARK                         _______ _______ _______ _____ _____    ______ ____
ROOT
ATOM      1  C   LIG    1        3.258  -0.806   5.500  0.00  0.00    +0.160 C 
ATOM      2  C   LIG    1        2.160  -0.822   6.566  0.00  0.00    +0.070 C 
ENDROOT
BRANCH   1   3
ATOM      3  C   LIG    1        4.538  -1.338   6.091  0.00  0.00    +0.450 C 
ATOM      4  O   LIG    1        4.854  -2.497   5.913  0.00  0.00    -0.420 OA
BRANCH   3   7
ATOM      5  C   LIG    1        6.667   0.587   4.920  0.00  0.00    +0.150 C 
ATOM      6  C   LIG    1        6.331   0.383   6.375  0.00  0.00    +0.150 A 
ATOM      7  C   LIG    1        5.374  -0.485   6.855  0.00  0.00    -0.270 A 
ATOM      8  C   LIG    1        5.399  -0.354   8.325  0.00  0.00    -0.060 A 
ATOM      9  C   LIG    1        4.690  -0.953   9.362  0.00  0.00    +0.040 A 
ATOM     10  C   LIG    1        4.960  -0.600  10.666  0.00  0.00    +0.000 A 
ATOM     11  C   LIG    1        5.933   0.348  10.947  0.00  0.00    +0.030 A 
ATOM     12  C   LIG    1        6.642   0.949   9.930  0.00  0.00    +0.000 A 
ATOM     13  C   LIG    1        6.384   0.606   8.607  0.00  0.00    +0.090 A 
ATOM     14  N   LIG    1        6.917   1.024   7.404  0.00  0.00    -0.570 N 
ATOM     15  H   LIG    1        7.619   1.687   7.313  0.00  0.00    +0.420 HD
ENDBRANCH   3   7
ENDBRANCH   1   3
BRANCH   1  16
ATOM     16  O   LIG    1        2.858  -1.641   4.381  0.00  0.00    -0.330 OA
BRANCH  16  17
ATOM     17  C   LIG    1        2.170  -1.044   3.388  0.00  0.00    +0.520 C 
ATOM     18  O   LIG    1        1.912   0.142   3.455  0.00  0.00    -0.520 OA
BRANCH  17  19
ATOM     19  C   LIG    1        1.732  -1.828   2.221  0.00  0.00    -0.220 A 
ATOM     20  C   LIG    1        2.132  -3.159   2.078  0.00  0.00    +0.130 A 
ATOM     21  C   LIG    1        1.724  -3.885   0.980  0.00  0.00    -0.070 A 
ATOM     22  C   LIG    1        0.911  -3.305   0.019  0.00  0.00    +0.100 A 
ATOM     23  C   LIG    1        0.502  -1.994   0.149  0.00  0.00    -0.090 A 
ATOM     24  C   LIG    1        0.903  -1.245   1.248  0.00  0.00    +0.280 A 
BRANCH  24  25
ATOM     25  N   LIG    1        0.493   0.075   1.381  0.00  0.00    -0.720 N 
ATOM     26  H   LIG    1        0.692   0.565   2.194  0.00  0.00    +0.420 HD
BRANCH  25  27
ATOM     27  C   LIG    1       -0.242   0.727   0.294  0.00  0.00    +0.260 C 
BRANCH  27  28
ATOM     28  C   LIG    1       -0.573   2.166   0.694  0.00  0.00    +0.170 C 
BRANCH  28  29
ATOM     29  O   LIG    1        0.638   2.912   0.832  0.00  0.00    -0.570 OA
ATOM     30  H   LIG    1        0.504   3.836   1.085  0.00  0.00    +0.380 HD
ENDBRANCH  28  29
ENDBRANCH  27  28
ENDBRANCH  25  27
ENDBRANCH  24  25
ENDBRANCH  17  19
ENDBRANCH  16  17
ENDBRANCH   1  16
TORSDOF 9
