REMARK  Name = ZINCvU0000000DXE.0
REMARK                            x       y       z     vdW  Elec       q    Type
REMARK                         _______ _______ _______ _____ _____    ______ ____
ROOT
ATOM      1  N   LIG    1       -0.462   1.965   1.632  0.00  0.00    -0.620 N 
ATOM      2  C   LIG    1       -1.385   1.582   2.535  0.00  0.00    +0.710 C 
ATOM      3  N   LIG    1       -1.846   2.465   3.444  0.00  0.00    -0.740 N 
ATOM      4  H   LIG    1       -1.513   3.376   3.447  0.00  0.00    +0.400 HD
ATOM      5  O   LIG    1       -1.803   0.440   2.532  0.00  0.00    -0.580 OA
ENDROOT
BRANCH   1   7
ATOM      6  C   LIG    1       -1.046   4.283   1.117  0.00  0.00    +0.010 C 
ATOM      7  C   LIG    1        0.041   3.341   1.637  0.00  0.00    +0.260 C 
ENDBRANCH   1   7
BRANCH   1   8
ATOM      8  C   LIG    1        0.039   1.005   0.645  0.00  0.00    +0.350 C 
BRANCH   8   9
ATOM      9  C   LIG    1       -1.084   0.595  -0.273  0.00  0.00    -0.090 A 
ATOM     10  C   LIG    1       -2.170   1.432  -0.452  0.00  0.00    +0.050 A 
ATOM     11  C   LIG    1       -3.198   1.060  -1.297  0.00  0.00    -0.020 A 
ATOM     12  C   LIG    1       -3.145  -0.156  -1.956  0.00  0.00    +0.100 A 
ATOM     13  C   LIG    1       -2.060  -0.996  -1.771  0.00  0.00    -0.010 A 
ATOM     14  F   LIG    1       -4.152  -0.524  -2.779  0.00  0.00    -0.140 F 
ATOM     15  C   LIG    1       -1.031  -0.620  -0.930  0.00  0.00    +0.060 A 
ENDBRANCH   8   9
BRANCH   8  16
ATOM     16  C   LIG    1        1.140   1.643  -0.163  0.00  0.00    -0.100 A 
ATOM     17  C   LIG    1        0.860   2.722  -0.981  0.00  0.00    +0.030 A 
ATOM     18  C   LIG    1        1.871   3.310  -1.718  0.00  0.00    +0.000 A 
ATOM     19  C   LIG    1        3.159   2.814  -1.645  0.00  0.00    +0.010 A 
ATOM     20  C   LIG    1        3.437   1.732  -0.831  0.00  0.00    +0.010 A 
ATOM     21  C   LIG    1        2.428   1.147  -0.090  0.00  0.00    +0.030 A 
ENDBRANCH   8  16
ENDBRANCH   1   8
BRANCH   3  22
ATOM     22  C   LIG    1       -2.850   2.049   4.426  0.00  0.00    +0.330 C 
BRANCH  22  23
ATOM     23  C   LIG    1       -3.193   3.214   5.318  0.00  0.00    -0.110 A 
ATOM     24  C   LIG    1       -2.482   3.422   6.484  0.00  0.00    +0.040 A 
ATOM     25  C   LIG    1       -2.790   4.492   7.304  0.00  0.00    -0.040 A 
ATOM     26  C   LIG    1       -3.820   5.353   6.962  0.00  0.00    +0.110 A 
ATOM     27  C   LIG    1       -4.540   5.140   5.790  0.00  0.00    +0.100 A 
ATOM     28  C   LIG    1       -4.223   4.069   4.971  0.00  0.00    -0.010 A 
BRANCH  27  29
ATOM     29  O   LIG    1       -5.552   5.982   5.450  0.00  0.00    -0.310 OA
ATOM     30  C   LIG    1       -6.247   5.703   4.233  0.00  0.00    +0.240 C 
ENDBRANCH  27  29
BRANCH  26  31
ATOM     31  O   LIG    1       -4.128   6.403   7.770  0.00  0.00    -0.310 OA
ATOM     32  C   LIG    1       -3.346   6.559   8.956  0.00  0.00    +0.240 C 
ENDBRANCH  26  31
ENDBRANCH  22  23
ENDBRANCH   3  22
TORSDOF 8
