REMARK  Name = ZINCpk00000e9Pzn.0
REMARK                            x       y       z     vdW  Elec       q    Type
REMARK                         _______ _______ _______ _____ _____    ______ ____
ROOT
ATOM      1  C   LIG    1       -1.135  -5.101  -0.361  0.00  0.00    +0.200 C 
ATOM      2  N   LIG    1       -1.544  -4.738   1.003  0.00  0.00    -0.500 N 
ATOM      3  C   LIG    1       -2.590  -3.706   0.981  0.00  0.00    +0.220 C 
ATOM      4  C   LIG    1       -2.381  -2.764  -0.199  0.00  0.00    +0.280 C 
ATOM      5  N   LIG    1       -1.119  -2.038  -0.093  0.00  0.00    -0.620 N 
ATOM      6  C   LIG    1        0.157  -2.765  -0.114  0.00  0.00    +0.320 C 
ATOM      7  C   LIG    1        0.400  -3.326   1.276  0.00  0.00    -0.140 A 
ATOM      8  C   LIG    1        1.462  -2.883   2.034  0.00  0.00    +0.020 A 
ATOM      9  C   LIG    1        1.696  -3.442   3.279  0.00  0.00    +0.010 A 
ATOM     10  C   LIG    1        0.866  -4.439   3.759  0.00  0.00    +0.020 A 
ATOM     11  C   LIG    1       -0.205  -4.876   3.005  0.00  0.00    +0.030 A 
ATOM     12  C   LIG    1       -1.125  -0.695   0.019  0.00  0.00    +0.710 C 
ATOM     13  N   LIG    1        0.038  -0.013   0.019  0.00  0.00    -0.740 N 
ATOM     14  H   LIG    1        0.881  -0.493   0.014  0.00  0.00    +0.400 HD
ATOM     15  O   LIG    1       -2.179  -0.097   0.120  0.00  0.00    -0.580 OA
ATOM     16  C   LIG    1       -0.448  -4.311   1.757  0.00  0.00    +0.100 A 
ENDROOT
BRANCH  13  17
ATOM     17  C   LIG    1        0.029   1.451   0.026  0.00  0.00    +0.300 C 
BRANCH  17  18
ATOM     18  C   LIG    1        1.469   1.970   0.024  0.00  0.00    +0.160 C 
BRANCH  18  19
ATOM     19  C   LIG    1        1.460   3.477   0.032  0.00  0.00    +0.200 A 
ATOM     20  N   LIG    1        1.459   4.246   1.087  0.00  0.00    -0.280 NA
ATOM     21  N   LIG    1        1.449   5.479   0.723  0.00  0.00    -0.280 NA
ATOM     22  C   LIG    1        1.441   5.553  -0.581  0.00  0.00    +0.160 A 
ATOM     23  C   LIG    1        1.425   6.535  -1.732  0.00  0.00    +0.170 C 
ATOM     24  C   LIG    1        1.002   5.686  -2.953  0.00  0.00    +0.070 C 
ATOM     25  C   LIG    1        1.450   4.272  -2.524  0.00  0.00    +0.300 C 
ATOM     26  N   LIG    1        1.457   4.287  -1.056  0.00  0.00    -0.490 N 
ENDBRANCH  18  19
ENDBRANCH  17  18
ENDBRANCH  13  17
TORSDOF 3
