REMARK  Name = ZINCnE000001KgGi.1
REMARK                            x       y       z     vdW  Elec       q    Type
REMARK                         _______ _______ _______ _____ _____    ______ ____
ROOT
ATOM      1  N   LIG    1       -0.721   1.571  -1.179  0.00  0.00    -0.720 N 
ATOM      2  H   LIG    1       -1.516   2.118  -1.079  0.00  0.00    +0.400 HD
ATOM      3  C   LIG    1       -0.268   1.258  -2.409  0.00  0.00    +0.580 C 
ATOM      4  O   LIG    1        0.729   0.574  -2.534  0.00  0.00    -0.530 OA
ENDROOT
BRANCH   3   5
ATOM      5  C   LIG    1       -0.982   1.747  -3.604  0.00  0.00    -0.140 A 
ATOM      6  C   LIG    1       -0.641   2.980  -4.172  0.00  0.00    -0.000 A 
ATOM      7  C   LIG    1       -1.309   3.430  -5.295  0.00  0.00    +0.020 A 
ATOM      8  C   LIG    1       -2.321   2.671  -5.854  0.00  0.00    -0.090 A 
ATOM      9  C   LIG    1       -2.671   1.451  -5.296  0.00  0.00    +0.240 A 
ATOM     10  O   LIG    1       -3.668   0.711  -5.851  0.00  0.00    -0.700 OA
ATOM     11  F   LIG    1        0.344   3.726  -3.626  0.00  0.00    -0.160 F 
ATOM     12  C   LIG    1       -2.006   0.983  -4.173  0.00  0.00    -0.010 A 
ATOM     13  F   LIG    1       -2.346  -0.206  -3.629  0.00  0.00    -0.150 F 
ENDBRANCH   3   5
BRANCH   1  14
ATOM     14  C   LIG    1       -0.013   1.086   0.008  0.00  0.00    +0.290 C 
BRANCH  14  15
ATOM     15  C   LIG    1       -0.729   1.579   1.267  0.00  0.00    +0.200 C 
BRANCH  15  16
ATOM     16  C   LIG    1        0.000   1.080   2.488  0.00  0.00    -0.100 A 
ATOM     17  C   LIG    1       -0.411  -0.084   3.110  0.00  0.00    +0.030 A 
ATOM     18  C   LIG    1        0.258  -0.543   4.230  0.00  0.00    +0.020 A 
ATOM     19  C   LIG    1        1.337   0.162   4.728  0.00  0.00    +0.020 A 
ATOM     20  C   LIG    1        1.749   1.327   4.105  0.00  0.00    -0.040 A 
ATOM     21 CL   LIG    1        3.105   2.213   4.730  0.00  0.00    -0.070 Cl
ATOM     22  C   LIG    1        1.083   1.783   2.982  0.00  0.00    +0.060 A 
ENDBRANCH  15  16
BRANCH  15  24
ATOM     23  C   LIG    1       -1.880   3.570   1.941  0.00  0.00    +0.210 C 
ATOM     24  O   LIG    1       -0.748   3.008   1.275  0.00  0.00    -0.370 OA
ENDBRANCH  15  24
ENDBRANCH  14  15
ENDBRANCH   1  14
TORSDOF 5
