REMARK  Name = ZINCtV00000L6kmB.0
REMARK                            x       y       z     vdW  Elec       q    Type
REMARK                         _______ _______ _______ _____ _____    ______ ____
ROOT
ATOM      1  N   LIG    1        3.469  -0.728   0.024  0.00  0.00    -0.470 N 
ATOM      2  C   LIG    1        2.505   0.244   0.211  0.00  0.00    +0.060 A 
ATOM      3  C   LIG    1        2.544   1.611   0.443  0.00  0.00    +0.010 A 
ATOM      4  C   LIG    1        1.366   2.313   0.590  0.00  0.00    +0.030 A 
ATOM      5  C   LIG    1        0.144   1.660   0.507  0.00  0.00    +0.000 A 
ATOM      6  C   LIG    1        0.087   0.314   0.279  0.00  0.00    +0.070 A 
ATOM      7  C   LIG    1        1.268  -0.417   0.127  0.00  0.00    +0.040 A 
ATOM      8  N   LIG    1        1.534  -1.728  -0.102  0.00  0.00    -0.470 NA
ATOM      9  C   LIG    1        2.821  -1.909  -0.162  0.00  0.00    +0.280 A 
ENDROOT
BRANCH   1  11
ATOM     10  C   LIG    1        5.231   0.920   0.426  0.00  0.00    +0.070 C 
ATOM     11  C   LIG    1        4.919  -0.523   0.025  0.00  0.00    +0.280 C 
BRANCH  11  12
ATOM     12  C   LIG    1        5.465  -0.791  -1.353  0.00  0.00    -0.110 A 
ATOM     13  C   LIG    1        5.020  -0.047  -2.430  0.00  0.00    +0.030 A 
ATOM     14  C   LIG    1        5.524  -0.290  -3.694  0.00  0.00    +0.000 A 
ATOM     15  C   LIG    1        6.467  -1.283  -3.883  0.00  0.00    +0.010 A 
ATOM     16  C   LIG    1        6.909  -2.030  -2.807  0.00  0.00    +0.010 A 
ATOM     17  C   LIG    1        6.408  -1.785  -1.542  0.00  0.00    +0.020 A 
ENDBRANCH  11  12
ENDBRANCH   1  11
BRANCH   9  18
ATOM     18  C   LIG    1        3.496  -3.235  -0.402  0.00  0.00    +0.330 C 
BRANCH  18  19
ATOM     19  O   LIG    1        3.539  -3.500  -1.806  0.00  0.00    -0.300 OA
BRANCH  19  20
ATOM     20  C   LIG    1        4.120  -4.665  -2.196  0.00  0.00    +0.130 A 
ATOM     21  C   LIG    1        4.643  -5.532  -1.248  0.00  0.00    -0.090 A 
ATOM     22  C   LIG    1        5.229  -6.718  -1.647  0.00  0.00    +0.050 A 
ATOM     23  C   LIG    1        5.303  -7.037  -2.990  0.00  0.00    -0.110 A 
ATOM     24  C   LIG    1        4.788  -6.171  -3.938  0.00  0.00    +0.060 A 
ATOM     25  C   LIG    1        4.197  -4.986  -3.543  0.00  0.00    -0.010 A 
BRANCH  23  26
ATOM     26  C   LIG    1        5.947  -8.328  -3.423  0.00  0.00    -0.030 C 
ATOM     27  C   LIG    1        4.927  -9.177  -4.184  0.00  0.00    +0.040 C 
ATOM     28  C   LIG    1        6.431  -9.095  -2.190  0.00  0.00    +0.030 C 
ATOM     29  C   LIG    1        7.138  -8.024  -4.334  0.00  0.00    +0.040 C 
ENDBRANCH  23  26
ENDBRANCH  19  20
ENDBRANCH  18  19
ENDBRANCH   9  18
TORSDOF 6
