REMARK  Name = ZINCpk00000y6yX8.0
REMARK                            x       y       z     vdW  Elec       q    Type
REMARK                         _______ _______ _______ _____ _____    ______ ____
ROOT
ATOM      1  C   LIG    1        3.510   0.499  -0.546  0.00  0.00    +0.510 C 
ATOM      2  N   LIG    1        4.442   1.381  -0.959  0.00  0.00    -0.600 N 
ATOM      3  C   LIG    1        3.998   2.621  -1.624  0.00  0.00    +0.250 C 
ATOM      4  C   LIG    1        4.789   3.852  -1.146  0.00  0.00    +0.020 C 
ATOM      5  C   LIG    1        5.012   3.778   0.344  0.00  0.00    +0.030 C 
ATOM      6  C   LIG    1        6.343   3.087   0.622  0.00  0.00    +0.170 C 
ATOM      7  C   LIG    1        6.269   1.619   0.653  0.00  0.00    -0.020 C 
ATOM      8  C   LIG    1        5.836   1.076  -0.725  0.00  0.00    +0.280 C 
ATOM      9  O   LIG    1        3.842  -0.486   0.078  0.00  0.00    -0.510 OA
ENDROOT
BRANCH   1  14
ATOM     10  C   LIG    1       -1.089  -0.583  -1.074  0.00  0.00    +0.030 C 
ATOM     11  C   LIG    1        0.008  -0.133  -0.107  0.00  0.00    +0.150 C 
ATOM     12  C   LIG    1       -0.047   1.400   0.070  0.00  0.00    +0.020 C 
ATOM     13  C   LIG    1        1.458   1.780   0.118  0.00  0.00    +0.020 C 
ATOM     14  C   LIG    1        2.056   0.738  -0.860  0.00  0.00    +0.150 C 
ATOM     15  O   LIG    1        1.295  -0.461  -0.642  0.00  0.00    -0.350 OA
ENDBRANCH   1  14
BRANCH   6  16
ATOM     16  N   LIG    1        6.849   3.556   1.919  0.00  0.00    -0.530 NA
ATOM     17  C   LIG    1        5.978   3.114   3.016  0.00  0.00    +0.190 C 
BRANCH  16  18
ATOM     18  C   LIG    1        8.233   3.112   2.136  0.00  0.00    +0.280 C 
BRANCH  18  19
ATOM     19  C   LIG    1        8.800   3.807   3.347  0.00  0.00    +0.370 A 
ATOM     20  N   LIG    1        9.425   4.957   3.192  0.00  0.00    -0.540 NA
ATOM     21  C   LIG    1        9.933   5.604   4.232  0.00  0.00    +0.350 A 
ATOM     22  C   LIG    1        9.812   5.053   5.492  0.00  0.00    -0.160 A 
ATOM     23  C   LIG    1        9.149   3.830   5.621  0.00  0.00    +0.440 A 
ATOM     24  N   LIG    1        8.661   3.245   4.531  0.00  0.00    -0.580 NA
BRANCH  23  25
ATOM     25  N   LIG    1        9.002   3.237   6.864  0.00  0.00    -0.840 N 
ATOM     26  H   LIG    1        9.361   3.670   7.654  0.00  0.00    +0.410 HD
ATOM     27  H   LIG    1        8.540   2.388   6.944  0.00  0.00    +0.410 HD
ENDBRANCH  23  25
ENDBRANCH  18  19
ENDBRANCH  16  18
ENDBRANCH   6  16
TORSDOF 5
