REMARK  Name = ZINCkj000005iGD1.0
REMARK                            x       y       z     vdW  Elec       q    Type
REMARK                         _______ _______ _______ _____ _____    ______ ____
ROOT
ATOM      1  N   LIG    1        0.422   4.024   1.312  0.00  0.00    -0.540 NA
ATOM      2  C   LIG    1       -0.792   3.861   2.125  0.00  0.00    +0.210 C 
ATOM      3  C   LIG    1       -0.495   4.278   3.567  0.00  0.00    +0.280 C 
ATOM      4  N   LIG    1       -0.053   5.678   3.592  0.00  0.00    -0.380 N 
ATOM      5  C   LIG    1        1.173   5.820   2.796  0.00  0.00    +0.260 C 
ATOM      6  H   LIG    1       -0.776   6.265   3.203  0.00  0.00    +0.430 HD
ATOM      7  C   LIG    1        0.891   5.417   1.347  0.00  0.00    +0.220 C 
ENDROOT
BRANCH   1   8
ATOM      8  C   LIG    1        0.194   3.580  -0.070  0.00  0.00    +0.260 C 
BRANCH   8  12
ATOM      9  C   LIG    1       -0.487  -0.639  -0.118  0.00  0.00    +0.110 A 
ATOM     10  C   LIG    1       -1.553   0.235   0.025  0.00  0.00    -0.040 A 
ATOM     11  C   LIG    1       -1.330   1.599   0.040  0.00  0.00    +0.040 A 
ATOM     12  C   LIG    1       -0.045   2.093  -0.087  0.00  0.00    -0.110 A 
ATOM     13  C   LIG    1        1.022   1.224  -0.229  0.00  0.00    +0.050 A 
ATOM     14  C   LIG    1        0.804  -0.142  -0.245  0.00  0.00    +0.070 A 
ATOM     15  F   LIG    1        1.846  -0.991  -0.384  0.00  0.00    -0.130 F 
BRANCH   9  17
ATOM     16  C   LIG    1       -2.057  -2.421   0.001  0.00  0.00    +0.250 C 
ATOM     17  O   LIG    1       -0.704  -1.982  -0.134  0.00  0.00    -0.310 OA
ENDBRANCH   9  17
ENDBRANCH   8  12
ENDBRANCH   1   8
BRANCH   4  18
ATOM     18  C   LIG    1        0.213   6.083   4.978  0.00  0.00    +0.280 C 
BRANCH  18  19
ATOM     19  C   LIG    1        0.532   7.579   5.021  0.00  0.00    +0.160 C 
ATOM     20  C   LIG    1        0.829   7.996   6.463  0.00  0.00    +0.050 C 
BRANCH  19  21
ATOM     21  O   LIG    1       -0.589   8.318   4.532  0.00  0.00    -0.580 OA
ATOM     22  H   LIG    1       -0.457   9.276   4.530  0.00  0.00    +0.410 HD
ENDBRANCH  19  21
ENDBRANCH  18  19
ENDBRANCH   4  18
TORSDOF 6
