REMARK  Name = ZINCrH00000apwT9.0
REMARK                            x       y       z     vdW  Elec       q    Type
REMARK                         _______ _______ _______ _____ _____    ______ ____
ROOT
ATOM      1  C   LIG    1       -2.369  -0.218   1.496  0.00  0.00    +0.020 C 
ATOM      2  C   LIG    1       -2.146   1.289   1.351  0.00  0.00    +0.250 C 
ATOM      3  C   LIG    1       -2.868   1.797   0.099  0.00  0.00    +0.010 C 
ATOM      4  C   LIG    1       -2.228   1.174  -1.143  0.00  0.00    +0.230 C 
ATOM      5  C   LIG    1       -0.759   1.596  -1.228  0.00  0.00    +0.000 C 
ATOM      6  C   LIG    1       -0.013   1.086   0.008  0.00  0.00    +0.280 C 
ATOM      7  N   LIG    1       -0.706   1.562   1.213  0.00  0.00    -0.610 N 
ATOM      8  C   LIG    1       -0.037   2.238   2.168  0.00  0.00    +0.530 C 
ATOM      9  O   LIG    1       -0.621   2.626   3.158  0.00  0.00    -0.530 OA
ENDROOT
BRANCH   8  10
ATOM     10  C   LIG    1        1.436   2.511   2.006  0.00  0.00    +0.000 C 
ATOM     11  C   LIG    1        2.329   1.317   2.386  0.00  0.00    +0.070 C 
ATOM     12  C   LIG    1        3.281   2.339   3.034  0.00  0.00    +0.260 C 
ATOM     13  F   LIG    1        3.825   1.908   4.248  0.00  0.00    -0.180 F 
ATOM     14  F   LIG    1        4.245   2.841   2.153  0.00  0.00    -0.180 F 
ATOM     15  C   LIG    1        2.059   3.258   3.198  0.00  0.00    +0.090 C 
ENDBRANCH   8  10
BRANCH   4  16
ATOM     16  N   LIG    1       -2.938   1.631  -2.340  0.00  0.00    -0.730 N 
ATOM     17  H   LIG    1       -3.419   2.473  -2.326  0.00  0.00    +0.400 HD
ATOM     18  C   LIG    1       -2.921   0.883  -3.461  0.00  0.00    +0.520 C 
ATOM     19  O   LIG    1       -2.319  -0.170  -3.479  0.00  0.00    -0.530 OA
BRANCH  18  20
ATOM     20  C   LIG    1       -3.651   1.354  -4.692  0.00  0.00    +0.010 C 
BRANCH  20  21
ATOM     21  C   LIG    1       -5.140   1.511  -4.374  0.00  0.00    +0.000 C 
ATOM     22  C   LIG    1       -5.875   2.470  -5.324  0.00  0.00    +0.020 C 
ATOM     23  C   LIG    1       -6.633   2.987  -4.089  0.00  0.00    +0.010 C 
ATOM     24  C   LIG    1       -5.427   2.525  -3.254  0.00  0.00    +0.000 C 
ENDBRANCH  20  21
BRANCH  20  25
ATOM     25  C   LIG    1       -3.475   0.328  -5.814  0.00  0.00    +0.010 C 
ATOM     26  C   LIG    1       -2.151   0.477  -6.581  0.00  0.00    +0.020 C 
ATOM     27  C   LIG    1       -2.950   0.177  -7.861  0.00  0.00    +0.010 C 
ATOM     28  C   LIG    1       -4.185   0.716  -7.121  0.00  0.00    +0.020 C 
ENDBRANCH  20  25
ENDBRANCH  18  20
ENDBRANCH   4  16
TORSDOF 5
