REMARK  Name = ZINCpk00000eaf6G.0
REMARK                            x       y       z     vdW  Elec       q    Type
REMARK                         _______ _______ _______ _____ _____    ______ ____
ROOT
ATOM      1  C   LIG    1        1.792   2.892   0.934  0.00  0.00    +0.590 C 
ATOM      2  N   LIG    1        1.348   2.087  -0.051  0.00  0.00    -0.600 N 
ATOM      3  C   LIG    1       -0.034   1.588  -0.046  0.00  0.00    +0.290 C 
ATOM      4  C   LIG    1       -0.007   0.061  -0.166  0.00  0.00    +0.030 C 
ATOM      5  C   LIG    1        0.799  -0.335  -1.405  0.00  0.00    +0.020 C 
ATOM      6  C   LIG    1        2.239   0.163  -1.259  0.00  0.00    +0.260 C 
ATOM      7  C   LIG    1        2.238   1.691  -1.151  0.00  0.00    +0.280 C 
ATOM      8  O   LIG    1        1.022   3.289   1.788  0.00  0.00    -0.520 OA
ENDROOT
BRANCH   1  11
ATOM      9  N   LIG    1        4.960   4.693   0.221  0.00  0.00    -0.480 N 
ATOM     10  C   LIG    1        3.668   4.321   0.180  0.00  0.00    +0.370 A 
ATOM     11  C   LIG    1        3.210   3.292   0.978  0.00  0.00    -0.250 A 
ATOM     12  C   LIG    1        4.115   2.619   1.834  0.00  0.00    +0.150 A 
ATOM     13  C   LIG    1        5.418   3.009   1.854  0.00  0.00    -0.080 A 
ATOM     14  C   LIG    1        5.837   4.067   1.027  0.00  0.00    +0.510 A 
ATOM     15  O   LIG    1        7.005   4.420   1.041  0.00  0.00    -0.540 OA
BRANCH   9  16
ATOM     16  C   LIG    1        5.421   5.793  -0.630  0.00  0.00    +0.320 C 
BRANCH  16  17
ATOM     17  C   LIG    1        5.879   5.236  -1.980  0.00  0.00    +0.170 C 
BRANCH  17  19
ATOM     18  C   LIG    1        5.081   4.118  -3.944  0.00  0.00    +0.210 C 
ATOM     19  O   LIG    1        4.760   4.670  -2.666  0.00  0.00    -0.400 OA
ENDBRANCH  17  19
ENDBRANCH  16  17
ENDBRANCH   9  16
ENDBRANCH   1  11
BRANCH   6  20
ATOM     20  N   LIG    1        3.018  -0.244  -2.431  0.00  0.00    -0.370 N 
ATOM     21  C   LIG    1        3.093   0.419  -3.604  0.00  0.00    +0.220 A 
ATOM     22  C   LIG    1        3.912  -0.282  -4.422  0.00  0.00    -0.240 A 
ATOM     23  C   LIG    1        4.352  -1.412  -3.726  0.00  0.00    +0.230 A 
ATOM     24  C   LIG    1        4.284   0.090  -5.835  0.00  0.00    +0.110 C 
ATOM     25  N   LIG    1        3.821  -1.388  -2.530  0.00  0.00    -0.290 NA
ENDBRANCH   6  20
TORSDOF 5
