REMARK  Name = ZINCkj000005hCYW.1
REMARK                            x       y       z     vdW  Elec       q    Type
REMARK                         _______ _______ _______ _____ _____    ______ ____
ROOT
ATOM      1  N   LIG    1        3.783  -1.624  -2.334  0.00  0.00    -0.700 N 
ATOM      2  H   LIG    1        3.092  -2.252  -2.072  0.00  0.00    +0.410 HD
ATOM      3  C   LIG    1        4.256  -0.730  -1.443  0.00  0.00    +0.510 C 
ATOM      4  O   LIG    1        5.120   0.055  -1.772  0.00  0.00    -0.520 OA
ENDROOT
BRANCH   1   5
ATOM      5  C   LIG    1        4.313  -1.647  -3.700  0.00  0.00    +0.280 C 
BRANCH   5   6
ATOM      6  C   LIG    1        3.612  -2.746  -4.501  0.00  0.00    +0.040 C 
BRANCH   6   7
ATOM      7  C   LIG    1        4.165  -2.770  -5.927  0.00  0.00    +0.110 C 
BRANCH   7   8
ATOM      8  C   LIG    1        3.475  -3.853  -6.716  0.00  0.00    +0.460 C 
ATOM      9  O   LIG    1        2.628  -4.535  -6.191  0.00  0.00    -0.510 OA
BRANCH   8  11
ATOM     10  C   LIG    1        3.096  -5.119  -8.699  0.00  0.00    +0.280 C 
ATOM     11  O   LIG    1        3.802  -4.059  -8.001  0.00  0.00    -0.360 OA
ENDBRANCH   8  11
ENDBRANCH   7   8
ENDBRANCH   6   7
ENDBRANCH   5   6
ENDBRANCH   1   5
BRANCH   3  12
ATOM     12  C   LIG    1        3.711  -0.707  -0.038  0.00  0.00    +0.220 C 
BRANCH  12  13
ATOM     13  C   LIG    1        2.396   0.029  -0.022  0.00  0.00    -0.150 A 
ATOM     14  C   LIG    1        1.208  -0.679  -0.013  0.00  0.00    +0.050 A 
ATOM     15  C   LIG    1        0.002  -0.004   0.002  0.00  0.00    +0.040 A 
ATOM     16  C   LIG    1       -0.017   1.378   0.010  0.00  0.00    +0.060 A 
ATOM     17  C   LIG    1        1.171   2.086   0.002  0.00  0.00    +0.040 A 
ATOM     18  C   LIG    1        2.377   1.411  -0.015  0.00  0.00    +0.010 A 
ENDBRANCH  12  13
BRANCH  12  19
ATOM     19  N   LIG    1        4.665  -0.024   0.846  0.00  0.00    -0.370 N 
ATOM     20  C   LIG    1        5.947  -0.742   0.830  0.00  0.00    +0.320 C 
ATOM     21  C   LIG    1        4.134  -0.002   2.215  0.00  0.00    +0.340 C 
ATOM     22  H   LIG    1        4.805   0.921   0.523  0.00  0.00    +0.430 HD
ENDBRANCH  12  19
ENDBRANCH   3  12
TORSDOF 8
