REMARK  Name = ZINCtV000002AFyg.0
REMARK                            x       y       z     vdW  Elec       q    Type
REMARK                         _______ _______ _______ _____ _____    ______ ____
ROOT
ATOM      1  C   LIG    1        3.963  -1.322   2.451  0.00  0.00    +0.240 A 
ATOM      2  N   LIG    1        3.991  -1.762   3.688  0.00  0.00    -0.270 NA
ATOM      3  N   LIG    1        3.299  -0.987   4.444  0.00  0.00    -0.290 NA
ATOM      4  C   LIG    1        2.791  -0.002   3.738  0.00  0.00    +0.160 A 
ATOM      5  N   LIG    1        3.190  -0.184   2.444  0.00  0.00    -0.450 N 
ENDROOT
BRANCH   1   9
ATOM      6  C   LIG    1        5.896  -3.082  -0.899  0.00  0.00    +0.150 A 
ATOM      7  C   LIG    1        4.695  -2.405  -1.069  0.00  0.00    -0.010 A 
ATOM      8  C   LIG    1        4.065  -1.833   0.015  0.00  0.00    +0.060 A 
ATOM      9  C   LIG    1        4.635  -1.935   1.286  0.00  0.00    -0.060 A 
ATOM     10  C   LIG    1        5.845  -2.611   1.451  0.00  0.00    +0.110 A 
ATOM     11  C   LIG    1        6.466  -3.185   0.363  0.00  0.00    -0.070 A 
BRANCH   6  13
ATOM     12  C   LIG    1        7.746  -4.325  -1.725  0.00  0.00    +0.240 C 
ATOM     13  O   LIG    1        6.514  -3.644  -1.970  0.00  0.00    -0.310 OA
ENDBRANCH   6  13
ENDBRANCH   1   9
BRANCH   5  14
ATOM     14  C   LIG    1        2.869   0.661   1.292  0.00  0.00    +0.240 C 
ATOM     15  C   LIG    1        1.366   0.592   1.012  0.00  0.00    +0.010 C 
ATOM     16  C   LIG    1        1.030   1.474  -0.192  0.00  0.00    +0.040 C 
ATOM     17  C   LIG    1        1.426   2.921   0.110  0.00  0.00    +0.010 C 
ATOM     18  C   LIG    1        2.929   2.990   0.389  0.00  0.00    +0.040 C 
ATOM     19  C   LIG    1        3.265   2.108   1.593  0.00  0.00    +0.020 C 
ENDBRANCH   5  14
BRANCH   4  20
ATOM     20  S   LIG    1        1.780   1.307   4.346  0.00  0.00    +0.020 S 
BRANCH  20  21
ATOM     21  C   LIG    1        1.706   0.859   6.098  0.00  0.00    +0.150 C 
BRANCH  21  22
ATOM     22  C   LIG    1        0.868   1.869   6.840  0.00  0.00    -0.100 A 
ATOM     23  C   LIG    1        1.462   2.986   7.394  0.00  0.00    +0.090 A 
ATOM     24  C   LIG    1        0.693   3.915   8.070  0.00  0.00    +0.050 A 
ATOM     25  C   LIG    1       -0.670   3.722   8.202  0.00  0.00    -0.060 A 
ATOM     26  C   LIG    1       -1.266   2.601   7.652  0.00  0.00    +0.020 A 
ATOM     27 BR   LIG    1       -1.719   4.989   9.133  0.00  0.00    -0.030 Br
ATOM     28  C   LIG    1       -0.497   1.673   6.971  0.00  0.00    +0.130 A 
ATOM     29  F   LIG    1       -1.077   0.578   6.434  0.00  0.00    -0.120 F 
ENDBRANCH  21  22
ENDBRANCH  20  21
ENDBRANCH   4  20
TORSDOF 6
