REMARK  Name = ZINCrD00000hQ4cg.0
REMARK                            x       y       z     vdW  Elec       q    Type
REMARK                         _______ _______ _______ _____ _____    ______ ____
ROOT
ATOM      1  C   LIG    1        2.424   4.233   0.002  0.00  0.00    -0.070 A 
ATOM      2  C   LIG    1        3.531   3.406  -0.013  0.00  0.00    +0.060 A 
ATOM      3  C   LIG    1        4.801   3.951  -0.023  0.00  0.00    +0.050 A 
ATOM      4  C   LIG    1        4.964   5.325  -0.018  0.00  0.00    -0.090 A 
ATOM      5  C   LIG    1        3.856   6.152  -0.003  0.00  0.00    +0.080 A 
ATOM      6 BR   LIG    1        6.702   6.071  -0.030  0.00  0.00    -0.040 Br
ATOM      7  C   LIG    1        2.586   5.606   0.002  0.00  0.00    -0.080 A 
ENDROOT
BRANCH   1   8
ATOM      8  C   LIG    1        1.039   3.639   0.012  0.00  0.00    +0.280 C 
BRANCH   8   9
ATOM      9  O   LIG    1        1.135   2.190   0.003  0.00  0.00    -0.350 OA
BRANCH   9  11
ATOM     10  O   LIG    1       -1.073   2.093   0.018  0.00  0.00    -0.500 OA
ATOM     11  C   LIG    1       -0.018   1.503   0.010  0.00  0.00    +0.470 C 
BRANCH  11  12
ATOM     12  C   LIG    1        0.002  -0.004   0.002  0.00  0.00    +0.030 C 
ATOM     13  C   LIG    1        0.709  -0.500  -1.263  0.00  0.00    +0.020 C 
ATOM     14  C   LIG    1        0.656  -2.030  -1.302  0.00  0.00    +0.220 C 
ATOM     15  O   LIG    1       -0.707  -2.458  -1.258  0.00  0.00    -0.380 OA
ATOM     16  C   LIG    1       -1.405  -2.064  -0.075  0.00  0.00    +0.220 C 
ATOM     17  C   LIG    1       -1.434  -0.536   0.013  0.00  0.00    +0.020 C 
ENDBRANCH  11  12
ENDBRANCH   9  11
ENDBRANCH   8   9
ENDBRANCH   1   8
BRANCH   7  18
ATOM     18  C   LIG    1        1.378   6.508   0.012  0.00  0.00    +0.290 C 
BRANCH  18  19
ATOM     19  O   LIG    1        1.809   7.894   0.010  0.00  0.00    -0.350 OA
BRANCH  19  20
ATOM     20  C   LIG    1        0.848   8.831   0.018  0.00  0.00    +0.470 C 
ATOM     21  O   LIG    1       -0.315   8.504   0.027  0.00  0.00    -0.500 OA
BRANCH  20  22
ATOM     22  C   LIG    1        1.219  10.292   0.017  0.00  0.00    +0.030 C 
ATOM     23  C   LIG    1        2.045  10.612   1.266  0.00  0.00    +0.020 C 
ATOM     24  C   LIG    1        2.350  12.112   1.296  0.00  0.00    +0.220 C 
ATOM     25  O   LIG    1        1.125  12.846   1.273  0.00  0.00    -0.380 OA
ATOM     26  C   LIG    1        0.333  12.623   0.105  0.00  0.00    +0.220 C 
ATOM     27  C   LIG    1       -0.053  11.144   0.027  0.00  0.00    +0.020 C 
ENDBRANCH  20  22
ENDBRANCH  19  20
ENDBRANCH  18  19
ENDBRANCH   7  18
TORSDOF 8
