REMARK  Name = ZINCrH000004nxsN.0
REMARK                            x       y       z     vdW  Elec       q    Type
REMARK                         _______ _______ _______ _____ _____    ______ ____
ROOT
ATOM      1  C   LIG    1        6.934  -4.350   1.411  0.00  0.00    +0.240 A 
ATOM      2  N   LIG    1        7.270  -3.180   0.919  0.00  0.00    -0.250 NA
ATOM      3  N   LIG    1        6.215  -2.484   0.684  0.00  0.00    -0.290 NA
ATOM      4  C   LIG    1        5.141  -3.166   1.011  0.00  0.00    +0.140 A 
ATOM      5  N   LIG    1        5.560  -4.375   1.490  0.00  0.00    -0.460 N 
ATOM      6  C   LIG    1        4.722  -5.471   1.983  0.00  0.00    +0.350 C 
ENDROOT
BRANCH   1  12
ATOM      7  C   LIG    1        8.945  -5.158   2.646  0.00  0.00    +0.170 A 
ATOM      8  C   LIG    1        9.805  -6.180   3.014  0.00  0.00    -0.070 A 
ATOM      9  C   LIG    1        9.587  -7.467   2.557  0.00  0.00    +0.070 A 
ATOM     10  C   LIG    1        8.512  -7.743   1.730  0.00  0.00    -0.030 A 
ATOM     11  C   LIG    1        7.644  -6.737   1.360  0.00  0.00    +0.070 A 
ATOM     12  C   LIG    1        7.856  -5.434   1.810  0.00  0.00    -0.060 A 
BRANCH   7  14
ATOM     13  C   LIG    1       10.289  -3.688   3.944  0.00  0.00    +0.240 C 
ATOM     14  O   LIG    1        9.158  -3.894   3.094  0.00  0.00    -0.300 OA
ENDBRANCH   7  14
ENDBRANCH   1  12
BRANCH   4  15
ATOM     15  S   LIG    1        3.472  -2.621   0.866  0.00  0.00    +0.080 S 
BRANCH  15  16
ATOM     16  C   LIG    1        3.740  -0.968   0.180  0.00  0.00    +0.020 C 
ATOM     17  C   LIG    1        4.362  -1.088  -1.212  0.00  0.00    +0.090 C 
BRANCH  16  18
ATOM     18  C   LIG    1        2.422  -0.245   0.081  0.00  0.00    +0.540 C 
ATOM     19  N   LIG    1        2.395   1.099  -0.010  0.00  0.00    -0.660 N 
ATOM     20  H   LIG    1        3.224   1.597  -0.094  0.00  0.00    +0.420 HD
ATOM     21  O   LIG    1        1.384  -0.873   0.083  0.00  0.00    -0.500 OA
BRANCH  19  22
ATOM     22  C   LIG    1        1.171   1.779   0.015  0.00  0.00    +0.120 A 
ATOM     23  C   LIG    1        0.067   1.201   0.626  0.00  0.00    +0.050 A 
ATOM     24  C   LIG    1       -1.141   1.871   0.646  0.00  0.00    +0.030 A 
ATOM     25  C   LIG    1       -1.249   3.122   0.067  0.00  0.00    +0.030 A 
ATOM     26  C   LIG    1       -0.152   3.703  -0.543  0.00  0.00    +0.010 A 
ATOM     27  C   LIG    1        1.058   3.035  -0.571  0.00  0.00    +0.070 A 
ATOM     28  F   LIG    1        2.130   3.602  -1.167  0.00  0.00    -0.140 F 
ENDBRANCH  19  22
ENDBRANCH  16  18
ENDBRANCH  15  16
ENDBRANCH   4  15
TORSDOF 6
