REMARK  Name = ZINCrD00000bGMMA.0
REMARK                            x       y       z     vdW  Elec       q    Type
REMARK                         _______ _______ _______ _____ _____    ______ ____
ROOT
ATOM      1  C   LIG    1       -0.140   2.091   3.785  0.00  0.00    +0.520 C 
ATOM      2  N   LIG    1        0.248   1.567   4.964  0.00  0.00    -0.610 N 
ATOM      3  C   LIG    1        0.993   0.301   5.012  0.00  0.00    +0.270 C 
ATOM      4  C   LIG    1        0.274  -0.664   5.952  0.00  0.00    +0.020 C 
ATOM      5  C   LIG    1        0.082   0.004   7.316  0.00  0.00    -0.030 C 
ATOM      6  C   LIG    1       -0.782   1.257   7.154  0.00  0.00    +0.030 C 
ATOM      7  C   LIG    1       -0.070   2.247   6.227  0.00  0.00    +0.280 C 
ATOM      8  O   LIG    1       -0.759   3.134   3.759  0.00  0.00    -0.540 OA
ENDROOT
BRANCH   1   9
ATOM      9  C   LIG    1        0.194   1.381   2.498  0.00  0.00    +0.050 C 
BRANCH   9  10
ATOM     10  C   LIG    1       -0.357   2.181   1.316  0.00  0.00    +0.130 C 
BRANCH  10  11
ATOM     11  C   LIG    1       -0.018   1.461   0.010  0.00  0.00    +0.040 C 
ATOM     12  N   LIG    1        1.118   0.536  -0.006  0.00  0.00    -0.120 NA
ATOM     13  N   LIG    1        0.002  -0.004   0.002  0.00  0.00    -0.120 NA
BRANCH  11  14
ATOM     14  C   LIG    1       -0.382   2.195  -1.282  0.00  0.00    +0.120 C 
BRANCH  14  15
ATOM     15  C   LIG    1        0.147   1.408  -2.482  0.00  0.00    +0.160 C 
BRANCH  15  17
ATOM     16  C   LIG    1       -0.483   2.678  -4.716  0.00  0.00    +0.030 C 
ATOM     17  C   LIG    1       -0.204   2.115  -3.725  0.00  0.00    -0.190 C 
ENDBRANCH  15  17
ENDBRANCH  14  15
ENDBRANCH  11  14
ENDBRANCH  10  11
ENDBRANCH   9  10
ENDBRANCH   1   9
BRANCH   5  18
ATOM     18  C   LIG    1       -0.610  -0.973   8.269  0.00  0.00    +0.260 C 
BRANCH  18  19
ATOM     19  C   LIG    1        0.240  -2.207   8.428  0.00  0.00    -0.070 A 
ATOM     20  C   LIG    1        1.264  -2.225   9.356  0.00  0.00    -0.030 A 
ATOM     21  C   LIG    1        2.043  -3.357   9.508  0.00  0.00    +0.060 A 
ATOM     22  C   LIG    1        1.806  -4.470   8.725  0.00  0.00    -0.080 A 
ATOM     23  C   LIG    1        0.782  -4.453   7.789  0.00  0.00    +0.130 A 
ATOM     24  C   LIG    1       -0.002  -3.317   7.642  0.00  0.00    -0.010 A 
BRANCH  23  25
ATOM     25  O   LIG    1        0.547  -5.546   7.017  0.00  0.00    -0.320 OA
ATOM     26  C   LIG    1        1.393  -6.679   7.222  0.00  0.00    +0.250 C 
ENDBRANCH  23  25
ENDBRANCH  18  19
BRANCH  18  27
ATOM     27  O   LIG    1       -0.789  -0.350   9.542  0.00  0.00    -0.550 OA
ATOM     28  H   LIG    1        0.036  -0.075   9.965  0.00  0.00    +0.370 HD
ENDBRANCH  18  27
ENDBRANCH   5  18
TORSDOF 10
