REMARK  Name = ZINCqH0000038118.0
REMARK                            x       y       z     vdW  Elec       q    Type
REMARK                         _______ _______ _______ _____ _____    ______ ____
ROOT
ATOM      1  C   LIG    1        3.749  -0.901   0.050  0.00  0.00    +0.200 A 
ATOM      2  C   LIG    1        4.908  -0.140   0.133  0.00  0.00    -0.030 A 
ATOM      3  C   LIG    1        6.137  -0.764   0.211  0.00  0.00    +0.140 A 
ATOM      4  C   LIG    1        6.216  -2.145   0.196  0.00  0.00    -0.690 A 
ATOM      5  C   LIG    1        5.064  -2.905   0.109  0.00  0.00    +0.140 A 
ATOM      6  C   LIG    1        3.831  -2.288   0.036  0.00  0.00    +0.010 A 
ENDROOT
BRANCH   1   8
ATOM      7  C   LIG    1        1.428  -0.832   0.568  0.00  0.00    +0.560 C 
ATOM      8  N   LIG    1        2.502  -0.273  -0.024  0.00  0.00    -0.670 N 
ATOM      9  H   LIG    1        2.409   0.566  -0.502  0.00  0.00    +0.410 HD
ATOM     10  O   LIG    1        1.525  -1.924   1.095  0.00  0.00    -0.510 OA
BRANCH   7  15
ATOM     11  C   LIG    1       -3.611   1.945   0.608  0.00  0.00    +0.100 C 
ATOM     12  C   LIG    1       -2.291   1.218   0.597  0.00  0.00    -0.050 A 
ATOM     13  C   LIG    1       -1.190   1.797  -0.008  0.00  0.00    +0.010 A 
ATOM     14  C   LIG    1        0.019   1.134  -0.026  0.00  0.00    +0.040 A 
ATOM     15  C   LIG    1        0.134  -0.119   0.578  0.00  0.00    -0.140 A 
ATOM     16  C   LIG    1       -0.980  -0.696   1.191  0.00  0.00    +0.090 A 
ATOM     17  C   LIG    1       -2.185  -0.025   1.197  0.00  0.00    -0.090 A 
ATOM     18  C   LIG    1       -3.388  -0.646   1.858  0.00  0.00    +0.100 C 
ENDBRANCH   7  15
ENDBRANCH   1   8
BRANCH   4  19
ATOM     19  S   LIG    1        7.787  -2.937   0.289  0.00  0.00    +2.690 S 
ATOM     20  O   LIG    1        7.549  -4.241   0.801  0.00  0.00    -0.950 OA
ATOM     21  O   LIG    1        8.668  -2.009   0.907  0.00  0.00    -0.950 OA
BRANCH  19  22
ATOM     22  N   LIG    1        8.329  -3.135  -1.263  0.00  0.00    -1.000 NA
ATOM     23  C   LIG    1        8.013  -4.356  -2.016  0.00  0.00    +0.290 C 
ATOM     24  C   LIG    1        7.368  -3.954  -3.351  0.00  0.00    +0.010 C 
ATOM     25  C   LIG    1        8.296  -2.984  -4.087  0.00  0.00    +0.010 C 
ATOM     26  C   LIG    1        8.487  -1.721  -3.245  0.00  0.00    +0.010 C 
ATOM     27  C   LIG    1        9.140  -2.095  -1.911  0.00  0.00    +0.290 C 
ENDBRANCH  19  22
ENDBRANCH   4  19
TORSDOF 4
