REMARK  Name = ZINCrH000004qsxa.1
REMARK                            x       y       z     vdW  Elec       q    Type
REMARK                         _______ _______ _______ _____ _____    ______ ____
ROOT
ATOM      1  S   LIG    1        2.576   0.752   6.544  0.00  0.00    +2.690 S 
ATOM      2  O   LIG    1        1.589   0.788   7.566  0.00  0.00    -0.950 OA
ATOM      3  O   LIG    1        3.498   1.810   6.318  0.00  0.00    -0.950 OA
ENDROOT
BRANCH   1  11
ATOM      4  C   LIG    1        3.515   1.807   3.869  0.00  0.00    +0.110 C 
ATOM      5  C   LIG    1        2.223   1.031   3.852  0.00  0.00    +0.040 A 
ATOM      6  C   LIG    1        1.547   0.841   2.662  0.00  0.00    -0.020 A 
ATOM      7  C   LIG    1        0.362   0.129   2.646  0.00  0.00    -0.000 A 
ATOM      8  C   LIG    1       -0.149  -0.388   3.821  0.00  0.00    -0.030 A 
ATOM      9  C   LIG    1        0.529  -0.202   5.011  0.00  0.00    +0.030 A 
ATOM     10  C   LIG    1       -0.025  -0.770   6.292  0.00  0.00    +0.100 C 
ATOM     11  C   LIG    1        1.714   0.510   5.027  0.00  0.00    -0.690 A 
BRANCH   7  12
ATOM     12  C   LIG    1       -0.375  -0.078   1.348  0.00  0.00    -0.040 C 
ATOM     13  C   LIG    1       -1.645  -0.892   1.607  0.00  0.00    +0.030 C 
ATOM     14  C   LIG    1       -0.753   1.280   0.753  0.00  0.00    +0.040 C 
ATOM     15  C   LIG    1        0.523  -0.833   0.366  0.00  0.00    +0.040 C 
ENDBRANCH   7  12
ENDBRANCH   1  11
BRANCH   1  16
ATOM     16  N   LIG    1        3.481  -0.607   6.816  0.00  0.00    -1.030 N 
ATOM     17  H   LIG    1        3.270  -1.189   7.563  0.00  0.00    +0.420 HD
BRANCH  16  18
ATOM     18  C   LIG    1        4.557  -0.919   5.964  0.00  0.00    -0.010 A 
ATOM     19  C   LIG    1        4.832  -2.139   5.436  0.00  0.00    +0.240 A 
ATOM     20  N   LIG    1        5.948  -2.013   4.671  0.00  0.00    -0.360 N 
ATOM     21  N   LIG    1        6.370  -0.679   4.742  0.00  0.00    -0.270 NA
ATOM     22  C   LIG    1        5.540  -0.025   5.514  0.00  0.00    +0.240 A 
BRANCH  20  23
ATOM     23  C   LIG    1        6.599  -3.084   3.912  0.00  0.00    +0.340 C 
BRANCH  23  24
ATOM     24  C   LIG    1        6.733  -2.662   2.447  0.00  0.00    +0.150 C 
ATOM     25  C   LIG    1        7.527  -3.727   1.666  0.00  0.00    +0.010 C 
ATOM     26  C   LIG    1        6.559  -4.175   0.544  0.00  0.00    +0.000 C 
ATOM     27  C   LIG    1        5.577  -2.978   0.466  0.00  0.00    +0.200 C 
ATOM     28  O   LIG    1        5.432  -2.571   1.844  0.00  0.00    -0.370 OA
ENDBRANCH  23  24
ENDBRANCH  20  23
ENDBRANCH  16  18
ENDBRANCH   1  16
TORSDOF 6
