REMARK  Name = ZINCpe000000WIZS.0
REMARK                            x       y       z     vdW  Elec       q    Type
REMARK                         _______ _______ _______ _____ _____    ______ ____
ROOT
ATOM      1  N   LIG    1        2.675   6.690   2.381  0.00  0.00    -0.670 N 
ATOM      2  H   LIG    1        2.656   7.476   1.813  0.00  0.00    +0.420 HD
ATOM      3  C   LIG    1        2.611   5.461   1.831  0.00  0.00    +0.500 C 
ATOM      4  O   LIG    1        2.721   4.477   2.532  0.00  0.00    -0.490 OA
ENDROOT
BRANCH   1   8
ATOM      5  C   LIG    1        2.907   7.174   6.467  0.00  0.00    -0.450 A 
ATOM      6  C   LIG    1        3.552   6.091   5.899  0.00  0.00    +0.100 A 
ATOM      7  C   LIG    1        3.487   5.909   4.527  0.00  0.00    +0.060 A 
ATOM      8  C   LIG    1        2.770   6.831   3.770  0.00  0.00    +0.150 A 
ATOM      9  C   LIG    1        2.154   7.897   4.413  0.00  0.00    +0.230 A 
ATOM     10  N   LIG    1        2.236   8.030   5.722  0.00  0.00    -0.370 NA
BRANCH   5  12
ATOM     11  C   LIG    1        4.456   8.444   8.461  0.00  0.00    -0.240 C 
ATOM     12  S   LIG    1        2.984   7.414   8.211  0.00  0.00    +2.510 S 
ATOM     13  O   LIG    1        3.193   6.110   8.735  0.00  0.00    -0.930 OA
ATOM     14  O   LIG    1        1.806   8.146   8.516  0.00  0.00    -0.910 OA
ENDBRANCH   5  12
ENDBRANCH   1   8
BRANCH   3  15
ATOM     15  C   LIG    1        2.404   5.309   0.346  0.00  0.00    +0.350 C 
BRANCH  15  16
ATOM     16  N   LIG    1        2.370   3.886   0.001  0.00  0.00    -0.540 N 
ATOM     17  C   LIG    1        3.507   3.232  -0.323  0.00  0.00    +0.500 C 
ATOM     18  C   LIG    1        3.448   1.776  -0.712  0.00  0.00    +0.310 C 
ATOM     19  O   LIG    1        2.374   1.137  -0.017  0.00  0.00    -0.300 OA
ATOM     20  C   LIG    1        1.180   1.787  -0.006  0.00  0.00    +0.080 A 
ATOM     21  C   LIG    1       -0.009   1.079  -0.004  0.00  0.00    +0.030 A 
ATOM     22  C   LIG    1       -1.215   1.758  -0.001  0.00  0.00    +0.030 A 
ATOM     23  C   LIG    1       -1.236   3.140   0.012  0.00  0.00    +0.020 A 
ATOM     24  C   LIG    1       -0.052   3.855   0.010  0.00  0.00    +0.000 A 
ATOM     25  O   LIG    1        4.572   3.813  -0.301  0.00  0.00    -0.500 OA
ATOM     26  C   LIG    1        1.158   3.181   0.002  0.00  0.00    +0.100 A 
ENDBRANCH  15  16
ENDBRANCH   3  15
TORSDOF 4
