REMARK  Name = ZINCvU00000006AU.0
REMARK                            x       y       z     vdW  Elec       q    Type
REMARK                         _______ _______ _______ _____ _____    ______ ____
ROOT
ATOM      1  C   LIG    1       -0.504   2.742  -1.849  0.00  0.00    +0.160 A 
ATOM      2  N   LIG    1       -1.355   2.783  -2.850  0.00  0.00    -0.280 NA
ATOM      3  N   LIG    1       -2.086   1.726  -2.853  0.00  0.00    -0.250 NA
ATOM      4  C   LIG    1       -1.742   0.940  -1.856  0.00  0.00    +0.260 A 
ATOM      5  N   LIG    1       -0.721   1.571  -1.179  0.00  0.00    -0.450 N 
ENDROOT
BRANCH   4   6
ATOM      6  C   LIG    1       -2.336  -0.364  -1.524  0.00  0.00    +0.040 A 
ATOM      7  C   LIG    1       -3.517  -0.850  -2.001  0.00  0.00    +0.030 A 
ATOM      8  C   LIG    1       -3.692  -2.124  -1.426  0.00  0.00    -0.050 A 
ATOM      9  C   LIG    1       -2.628  -2.349  -0.630  0.00  0.00    +0.190 A 
ATOM     10  O   LIG    1       -1.811  -1.285  -0.691  0.00  0.00    -0.180 OA
ENDBRANCH   4   6
BRANCH   1  11
ATOM     11  S   LIG    1        0.695   3.969  -1.447  0.00  0.00    +0.060 S 
BRANCH  11  12
ATOM     12  C   LIG    1        0.367   5.171  -2.761  0.00  0.00    +0.100 C 
BRANCH  12  13
ATOM     13  C   LIG    1        1.304   6.343  -2.615  0.00  0.00    +0.450 C 
ATOM     14  O   LIG    1        2.112   6.364  -1.710  0.00  0.00    -0.460 OA
BRANCH  13  18
ATOM     15  N   LIG    1        1.637   9.363  -4.603  0.00  0.00    -0.430 N 
ATOM     16  C   LIG    1        0.620   8.765  -5.290  0.00  0.00    +0.010 A 
ATOM     17  C   LIG    1        0.324   7.591  -4.707  0.00  0.00    +0.000 A 
ATOM     18  C   LIG    1        1.237   7.456  -3.564  0.00  0.00    -0.270 A 
ATOM     19  C   LIG    1       -0.062   9.331  -6.509  0.00  0.00    +0.120 C 
ATOM     20  C   LIG    1        2.015   8.598  -3.564  0.00  0.00    +0.120 A 
ATOM     21  C   LIG    1        3.101   8.928  -2.572  0.00  0.00    +0.150 C 
BRANCH  15  22
ATOM     22  C   LIG    1        2.228  10.659  -4.947  0.00  0.00    +0.320 C 
BRANCH  22  24
ATOM     23  C   LIG    1        2.135  12.601  -3.470  0.00  0.00    +0.050 C 
ATOM     24  C   LIG    1        1.484  11.756  -4.231  0.00  0.00    -0.060 C 
ENDBRANCH  22  24
ENDBRANCH  15  22
ENDBRANCH  13  18
ENDBRANCH  12  13
ENDBRANCH  11  12
ENDBRANCH   1  11
BRANCH   5  25
ATOM     25  C   LIG    1       -0.013   1.086   0.008  0.00  0.00    +0.370 C 
BRANCH  25  26
ATOM     26  C   LIG    1       -0.718   1.572   1.248  0.00  0.00    -0.120 A 
ATOM     27  C   LIG    1       -0.360   2.779   1.819  0.00  0.00    +0.040 A 
ATOM     28  C   LIG    1       -1.010   3.227   2.953  0.00  0.00    +0.010 A 
ATOM     29  C   LIG    1       -2.012   2.463   3.523  0.00  0.00    +0.030 A 
ATOM     30  C   LIG    1       -2.366   1.254   2.955  0.00  0.00    +0.010 A 
ATOM     31  C   LIG    1       -1.719   0.808   1.818  0.00  0.00    +0.030 A 
ENDBRANCH  25  26
ENDBRANCH   5  25
TORSDOF 9
