REMARK  Name = ZINCvU00000007MA.0
REMARK                            x       y       z     vdW  Elec       q    Type
REMARK                         _______ _______ _______ _____ _____    ______ ____
ROOT
ATOM      1  C   LIG    1        2.010   3.151   1.148  0.00  0.00    +0.570 C 
ATOM      2  N   LIG    1        1.644   2.301   0.168  0.00  0.00    -0.610 N 
ATOM      3  C   LIG    1        2.616   1.862  -0.843  0.00  0.00    +0.260 C 
ATOM      4  C   LIG    1        2.627   0.330  -0.883  0.00  0.00    +0.030 C 
ATOM      5  C   LIG    1        1.203  -0.180  -1.116  0.00  0.00    +0.060 C 
ATOM      6  C   LIG    1        0.304   0.266   0.039  0.00  0.00    -0.010 C 
ATOM      7  C   LIG    1        0.267   1.796   0.090  0.00  0.00    +0.300 C 
ATOM      8  O   LIG    1        1.227   3.426   2.038  0.00  0.00    -0.530 OA
ENDROOT
BRANCH   1  12
ATOM      9  C   LIG    1        5.927   4.895   1.103  0.00  0.00    +0.180 A 
ATOM     10  C   LIG    1        5.084   4.996   0.017  0.00  0.00    -0.100 A 
ATOM     11  C   LIG    1        3.821   4.430   0.024  0.00  0.00    +0.100 A 
ATOM     12  C   LIG    1        3.355   3.746   1.141  0.00  0.00    -0.170 A 
ATOM     13  C   LIG    1        4.228   3.623   2.308  0.00  0.00    +0.020 A 
ATOM     14  C   LIG    1        3.816   2.941   3.459  0.00  0.00    +0.020 A 
ATOM     15  C   LIG    1        4.660   2.848   4.526  0.00  0.00    +0.040 A 
ATOM     16  C   LIG    1        5.928   3.422   4.487  0.00  0.00    +0.000 A 
ATOM     17  C   LIG    1        6.359   4.093   3.382  0.00  0.00    +0.060 A 
ATOM     18  C   LIG    1        5.516   4.208   2.266  0.00  0.00    -0.080 A 
BRANCH   9  20
ATOM     19  C   LIG    1        7.514   6.139  -0.151  0.00  0.00    +0.250 C 
ATOM     20  O   LIG    1        7.159   5.459   1.055  0.00  0.00    -0.310 OA
ENDBRANCH   9  20
ENDBRANCH   1  12
BRANCH   6  21
ATOM     21  C   LIG    1       -1.090  -0.265  -0.175  0.00  0.00    +0.530 C 
ATOM     22  N   LIG    1       -2.059   0.007   0.721  0.00  0.00    -0.670 N 
ATOM     23  H   LIG    1       -1.846   0.489   1.536  0.00  0.00    +0.420 HD
ATOM     24  O   LIG    1       -1.340  -0.937  -1.153  0.00  0.00    -0.510 OA
BRANCH  22  25
ATOM     25  C   LIG    1       -3.374  -0.405   0.477  0.00  0.00    +0.170 A 
ATOM     26  C   LIG    1       -3.616  -1.601  -0.186  0.00  0.00    +0.060 A 
ATOM     27  C   LIG    1       -4.916  -2.006  -0.426  0.00  0.00    -0.010 A 
ATOM     28  C   LIG    1       -5.976  -1.221  -0.006  0.00  0.00    +0.040 A 
ATOM     29  C   LIG    1       -5.738  -0.030   0.655  0.00  0.00    +0.070 A 
ATOM     30 CL   LIG    1       -5.220  -3.501  -1.254  0.00  0.00    -0.050 Cl
ATOM     31  C   LIG    1       -4.441   0.378   0.902  0.00  0.00    -0.060 A 
ATOM     32 CL   LIG    1       -4.144   1.871   1.738  0.00  0.00    -0.050 Cl
ENDBRANCH  22  25
ENDBRANCH   6  21
TORSDOF 4
