REMARK  Name = ZINCrD000000CV3G.0
REMARK                            x       y       z     vdW  Elec       q    Type
REMARK                         _______ _______ _______ _____ _____    ______ ____
ROOT
ATOM      1  O   LIG    1       -2.331  10.038   2.314  0.00  0.00    -0.530 OA
ATOM      2  C   LIG    1       -2.281  10.496   1.189  0.00  0.00    +0.700 C 
ATOM      3  N   LIG    1       -2.123  11.806   0.921  0.00  0.00    -0.710 N 
ATOM      4  H   LIG    1       -2.033  12.524   1.566  0.00  0.00    +0.440 HD
ATOM      5  C   LIG    1       -2.122  11.934  -0.543  0.00  0.00    +0.170 C 
ATOM      6  C   LIG    1       -2.296  10.514  -1.034  0.00  0.00    +0.530 C 
ATOM      7  O   LIG    1       -2.352  10.137  -2.184  0.00  0.00    -0.450 OA
ATOM      8  C   LIG    1       -0.792  12.501  -1.025  0.00  0.00    +0.050 C 
ATOM      9  C   LIG    1       -0.741  13.990  -0.663  0.00  0.00    +0.030 C 
ATOM     10  C   LIG    1       -1.758  14.733  -1.526  0.00  0.00    +0.080 C 
ATOM     11  C   LIG    1       -3.111  14.076  -1.442  0.00  0.00    -0.050 A 
ATOM     12  C   LIG    1       -4.218  14.815  -1.837  0.00  0.00    +0.010 A 
ATOM     13  C   LIG    1       -5.482  14.264  -1.788  0.00  0.00    +0.030 A 
ATOM     14  C   LIG    1       -5.649  12.966  -1.343  0.00  0.00    +0.010 A 
ATOM     15  C   LIG    1       -4.551  12.231  -0.947  0.00  0.00    +0.010 A 
ATOM     16  C   LIG    1       -3.277  12.783  -0.993  0.00  0.00    -0.090 A 
ATOM     17  N   LIG    1       -2.374   9.755   0.079  0.00  0.00    -0.580 N 
ENDROOT
BRANCH  17  18
ATOM     18  C   LIG    1       -2.547   8.300   0.072  0.00  0.00    +0.320 C 
BRANCH  18  19
ATOM     19  C   LIG    1       -1.174   7.624   0.055  0.00  0.00    +0.030 C 
BRANCH  19  20
ATOM     20  C   LIG    1       -1.354   6.104   0.048  0.00  0.00    +0.200 C 
BRANCH  20  21
ATOM     21  O   LIG    1       -0.072   5.473   0.033  0.00  0.00    -0.310 OA
BRANCH  21  22
ATOM     22  C   LIG    1       -0.054   4.114   0.025  0.00  0.00    +0.120 A 
ATOM     23  C   LIG    1        1.156   3.436   0.009  0.00  0.00    +0.020 A 
ATOM     24  C   LIG    1        1.174   2.055   0.002  0.00  0.00    +0.030 A 
ATOM     25  C   LIG    1       -0.016   1.347   0.009  0.00  0.00    +0.060 A 
ATOM     26  C   LIG    1       -1.225   2.022   0.019  0.00  0.00    +0.030 A 
ATOM     27  F   LIG    1        0.002  -0.004   0.002  0.00  0.00    -0.140 F 
ATOM     28  C   LIG    1       -1.245   3.403   0.032  0.00  0.00    -0.040 A 
ENDBRANCH  21  22
ENDBRANCH  20  21
ENDBRANCH  19  20
ENDBRANCH  18  19
ENDBRANCH  17  18
TORSDOF 5
