REMARK  Name = ZINCqH00000055Kc.0
REMARK                            x       y       z     vdW  Elec       q    Type
REMARK                         _______ _______ _______ _____ _____    ______ ____
ROOT
ATOM      1  N   LIG    1       -0.083   0.871   0.396  0.00  0.00    -0.720 N 
ATOM      2  H   LIG    1       -0.118  -0.062   0.133  0.00  0.00    +0.410 HD
ATOM      3  C   LIG    1        1.108   1.486   0.534  0.00  0.00    +0.700 C 
ATOM      4  N   LIG    1        2.249   0.806   0.308  0.00  0.00    -0.680 N 
ATOM      5  H   LIG    1        2.213  -0.106  -0.020  0.00  0.00    +0.410 HD
ATOM      6  O   LIG    1        1.153   2.656   0.864  0.00  0.00    -0.570 OA
ENDROOT
BRANCH   4   7
ATOM      7  C   LIG    1        3.488   1.416   0.546  0.00  0.00    +0.160 A 
ATOM      8  C   LIG    1        4.548   0.661   1.042  0.00  0.00    +0.030 A 
ATOM      9  C   LIG    1        5.772   1.250   1.281  0.00  0.00    +0.070 A 
ATOM     10  C   LIG    1        5.952   2.601   1.027  0.00  0.00    -0.010 A 
ATOM     11  O   LIG    1        6.999   3.447   1.154  0.00  0.00    -0.210 OA
ATOM     12  C   LIG    1        6.603   4.666   0.755  0.00  0.00    +0.280 A 
ATOM     13  N   LIG    1        5.359   4.636   0.382  0.00  0.00    -0.470 NA
ATOM     14  C   LIG    1        4.888   3.368   0.528  0.00  0.00    +0.040 A 
ATOM     15  C   LIG    1        3.654   2.764   0.283  0.00  0.00    +0.090 A 
BRANCH  12  16
ATOM     16  C   LIG    1        7.477   5.893   0.742  0.00  0.00    +0.070 C 
ATOM     17  C   LIG    1        8.969   5.702   1.023  0.00  0.00    +0.060 C 
ATOM     18  C   LIG    1        8.070   6.354   2.075  0.00  0.00    +0.060 C 
ENDBRANCH  12  16
ENDBRANCH   4   7
BRANCH   1  19
ATOM     19  C   LIG    1       -1.323   1.612   0.636  0.00  0.00    +0.310 C 
BRANCH  19  20
ATOM     20  C   LIG    1       -2.522   0.720   0.308  0.00  0.00    +0.240 C 
BRANCH  20  21
ATOM     21  C   LIG    1       -2.571  -0.433   1.277  0.00  0.00    -0.010 A 
ATOM     22  C   LIG    1       -3.362  -0.516   2.362  0.00  0.00    -0.050 A 
ATOM     23  C   LIG    1       -3.084  -1.758   2.977  0.00  0.00    -0.060 A 
ATOM     24  C   LIG    1       -2.135  -2.357   2.236  0.00  0.00    +0.160 A 
ATOM     25  O   LIG    1       -1.827  -1.549   1.208  0.00  0.00    -0.160 OA
ENDBRANCH  20  21
BRANCH  20  27
ATOM     26  C   LIG    1       -3.512  -0.678  -1.403  0.00  0.00    +0.190 C 
ATOM     27  N   LIG    1       -2.388   0.204  -1.061  0.00  0.00    -0.540 NA
ATOM     28  C   LIG    1       -2.268   1.303  -2.028  0.00  0.00    +0.190 C 
ENDBRANCH  20  27
ENDBRANCH  19  20
ENDBRANCH   1  19
TORSDOF 6
