REMARK  Name = ZINCpk00000e9m0h.0
REMARK                            x       y       z     vdW  Elec       q    Type
REMARK                         _______ _______ _______ _____ _____    ______ ____
ROOT
ATOM      1  C   LIG    1        7.649   4.030  -3.754  0.00  0.00    -0.280 C 
ATOM      2  C   LIG    1        6.538   4.662  -3.319  0.00  0.00    +0.260 C 
ATOM      3  N   LIG    1        6.609   5.903  -2.752  0.00  0.00    -0.640 N 
ATOM      4  H   LIG    1        5.785   6.316  -2.450  0.00  0.00    +0.440 HD
ATOM      5  C   LIG    1        7.752   6.581  -2.591  0.00  0.00    +0.710 C 
ATOM      6  N   LIG    1        8.942   6.084  -2.981  0.00  0.00    -0.710 N 
ATOM      7  H   LIG    1        9.758   6.593  -2.854  0.00  0.00    +0.430 HD
ATOM      8  O   LIG    1        7.715   7.681  -2.075  0.00  0.00    -0.560 OA
ATOM      9  C   LIG    1        8.974   4.750  -3.604  0.00  0.00    +0.280 C 
ATOM     10  C   LIG    1        9.896   3.860  -2.767  0.00  0.00    +0.040 C 
ENDROOT
BRANCH   1  11
ATOM     11  C   LIG    1        7.578   2.743  -4.336  0.00  0.00    +0.530 C 
ATOM     12  O   LIG    1        6.521   2.141  -4.354  0.00  0.00    -0.520 OA
BRANCH  11  13
ATOM     13  O   LIG    1        8.683   2.182  -4.870  0.00  0.00    -0.350 OA
BRANCH  13  15
ATOM     14  C   LIG    1        9.886   0.412  -5.993  0.00  0.00    +0.070 C 
ATOM     15  C   LIG    1        8.538   0.880  -5.441  0.00  0.00    +0.200 C 
ENDBRANCH  13  15
ENDBRANCH  11  13
ENDBRANCH   1  11
BRANCH   2  16
ATOM     16  C   LIG    1        5.199   3.984  -3.454  0.00  0.00    +0.340 C 
BRANCH  16  17
ATOM     17  O   LIG    1        4.152   4.887  -3.008  0.00  0.00    -0.370 OA
BRANCH  17  18
ATOM     18  C   LIG    1        2.891   4.432  -3.065  0.00  0.00    +0.470 C 
ATOM     19  O   LIG    1        2.668   3.317  -3.474  0.00  0.00    -0.480 OA
BRANCH  18  20
ATOM     20  C   LIG    1        1.752   5.312  -2.619  0.00  0.00    +0.170 C 
BRANCH  20  21
ATOM     21  C   LIG    1        0.450   4.571  -2.782  0.00  0.00    -0.120 A 
ATOM     22  C   LIG    1       -0.147   3.974  -1.689  0.00  0.00    +0.050 A 
ATOM     23  C   LIG    1       -1.342   3.295  -1.838  0.00  0.00    +0.000 A 
ATOM     24  C   LIG    1       -1.940   3.211  -3.082  0.00  0.00    +0.060 A 
ATOM     25  C   LIG    1       -1.344   3.807  -4.177  0.00  0.00    -0.010 A 
ATOM     26  C   LIG    1       -0.148   4.488  -4.029  0.00  0.00    +0.120 A 
ATOM     27  F   LIG    1        0.436   5.071  -5.099  0.00  0.00    -0.140 F 
ENDBRANCH  20  21
ENDBRANCH  18  20
ENDBRANCH  17  18
ENDBRANCH  16  17
ENDBRANCH   2  16
TORSDOF 8
