REMARK  Name = ZINCqH0000005s1o.0
REMARK                            x       y       z     vdW  Elec       q    Type
REMARK                         _______ _______ _______ _____ _____    ______ ____
ROOT
ATOM      1  N   LIG    1       -0.819   1.545   1.318  0.00  0.00    -0.600 N 
ATOM      2  C   LIG    1       -1.737   0.688   1.808  0.00  0.00    +0.610 C 
ATOM      3  O   LIG    1       -2.023  -0.318   1.187  0.00  0.00    -0.500 OA
ENDROOT
BRANCH   2   4
ATOM      4  C   LIG    1       -2.391   0.969   3.089  0.00  0.00    -0.070 A 
ATOM      5  C   LIG    1       -3.271   0.150   3.737  0.00  0.00    +0.070 A 
ATOM      6  C   LIG    1       -3.644   0.810   4.917  0.00  0.00    -0.010 A 
ATOM      7  C   LIG    1       -2.983   1.992   4.938  0.00  0.00    +0.040 A 
ATOM      8 CL   LIG    1       -3.095   3.191   6.189  0.00  0.00    +0.040 Cl
ATOM      9  O   LIG    1       -2.225   2.081   3.837  0.00  0.00    -0.150 OA
ENDBRANCH   2   4
BRANCH   1  10
ATOM     10  C   LIG    1       -0.078   1.207   0.100  0.00  0.00    +0.350 C 
BRANCH  10  14
ATOM     11  C   LIG    1       -2.208   2.660  -3.312  0.00  0.00    -0.130 A 
ATOM     12  C   LIG    1       -1.261   3.468  -2.679  0.00  0.00    +0.070 A 
ATOM     13  C   LIG    1       -0.578   2.994  -1.579  0.00  0.00    +0.040 A 
ATOM     14  C   LIG    1       -0.829   1.719  -1.102  0.00  0.00    -0.090 A 
ATOM     15  C   LIG    1       -1.761   0.911  -1.728  0.00  0.00    +0.040 A 
ATOM     16  C   LIG    1       -2.456   1.376  -2.825  0.00  0.00    +0.030 A 
BRANCH  11  20
ATOM     17  C   LIG    1       -4.586   2.877  -6.269  0.00  0.00    +0.290 C 
ATOM     18  N   LIG    1       -3.857   2.380  -5.099  0.00  0.00    -0.730 N 
ATOM     19  H   LIG    1       -4.031   1.487  -4.763  0.00  0.00    +0.400 HD
ATOM     20  C   LIG    1       -2.944   3.162  -4.491  0.00  0.00    +0.560 C 
ATOM     21  O   LIG    1       -2.725   4.281  -4.913  0.00  0.00    -0.540 OA
ENDBRANCH  11  20
ENDBRANCH  10  14
ENDBRANCH   1  10
BRANCH   1  22
ATOM     22  C   LIG    1       -0.561   2.814   2.004  0.00  0.00    +0.420 C 
BRANCH  22  23
ATOM     23  C   LIG    1       -1.540   3.853   1.522  0.00  0.00    -0.040 A 
ATOM     24  C   LIG    1       -2.745   4.109   2.061  0.00  0.00    -0.040 A 
ATOM     25  C   LIG    1       -3.321   5.152   1.300  0.00  0.00    -0.070 A 
ATOM     26  C   LIG    1       -2.434   5.471   0.341  0.00  0.00    +0.170 A 
ATOM     27  O   LIG    1       -1.354   4.685   0.484  0.00  0.00    -0.160 OA
ENDBRANCH  22  23
ENDBRANCH   1  22
TORSDOF 6
