REMARK  Name = ZINCrH000004pSB7.0
REMARK                            x       y       z     vdW  Elec       q    Type
REMARK                         _______ _______ _______ _____ _____    ______ ____
ROOT
ATOM      1  C   LIG    1       -4.674  -0.398   0.291  0.00  0.00    -0.690 A 
ATOM      2  C   LIG    1       -4.753   0.980   0.204  0.00  0.00    +0.140 A 
ATOM      3  C   LIG    1       -3.600   1.735   0.113  0.00  0.00    +0.010 A 
ATOM      4  C   LIG    1       -2.360   1.108   0.110  0.00  0.00    +0.200 A 
ATOM      5  C   LIG    1       -2.285  -0.276   0.192  0.00  0.00    -0.020 A 
ATOM      6  C   LIG    1       -3.442  -1.024   0.289  0.00  0.00    +0.140 A 
ENDROOT
BRANCH   4   7
ATOM      7  N   LIG    1       -1.191   1.869   0.018  0.00  0.00    -0.670 N 
ATOM      8  H   LIG    1       -0.426   1.527  -0.471  0.00  0.00    +0.410 HD
ATOM      9  C   LIG    1       -1.125   3.079   0.609  0.00  0.00    +0.560 C 
ATOM     10  O   LIG    1       -2.110   3.545   1.150  0.00  0.00    -0.510 OA
BRANCH   9  11
ATOM     11  C   LIG    1        0.143   3.835   0.606  0.00  0.00    -0.150 A 
ATOM     12  C   LIG    1        1.276   3.300  -0.010  0.00  0.00    +0.090 A 
ATOM     13  C   LIG    1        2.456   4.013  -0.015  0.00  0.00    -0.010 A 
ATOM     14  C   LIG    1        2.522   5.254   0.599  0.00  0.00    +0.130 A 
ATOM     15  C   LIG    1        1.401   5.788   1.216  0.00  0.00    -0.010 A 
ATOM     16  F   LIG    1        3.683   5.946   0.596  0.00  0.00    -0.130 F 
ATOM     17  C   LIG    1        0.215   5.086   1.223  0.00  0.00    +0.130 A 
ENDBRANCH   9  11
ENDBRANCH   4   7
BRANCH   1  18
ATOM     18  S   LIG    1       -6.148  -1.356   0.408  0.00  0.00    +2.690 S 
ATOM     19  O   LIG    1       -7.148  -0.494   0.933  0.00  0.00    -0.950 OA
ATOM     20  O   LIG    1       -5.780  -2.584   1.021  0.00  0.00    -0.950 OA
BRANCH  18  26
ATOM     21  C   LIG    1       -5.601   0.334  -2.980  0.00  0.00    +0.020 C 
ATOM     22  C   LIG    1       -6.870  -0.487  -3.224  0.00  0.00    -0.030 C 
ATOM     23  C   LIG    1       -6.509  -1.777  -3.963  0.00  0.00    +0.030 C 
ATOM     24  C   LIG    1       -5.502  -2.578  -3.135  0.00  0.00    -0.030 C 
ATOM     25  C   LIG    1       -6.134  -2.952  -1.791  0.00  0.00    +0.290 C 
ATOM     26  N   LIG    1       -6.615  -1.727  -1.137  0.00  0.00    -0.990 NA
ATOM     27  C   LIG    1       -5.117  -3.851  -3.891  0.00  0.00    +0.030 C 
ATOM     28  C   LIG    1       -7.522  -0.840  -1.878  0.00  0.00    +0.290 C 
ENDBRANCH  18  26
ENDBRANCH   1  18
TORSDOF 4
