REMARK  Name = ZINCpe000000XZdC.0
REMARK                            x       y       z     vdW  Elec       q    Type
REMARK                         _______ _______ _______ _____ _____    ______ ____
ROOT
ATOM      1  C   LIG    1        3.550   2.259  -0.019  0.00  0.00    +0.150 C 
ATOM      2  C   LIG    1        2.286   1.438  -0.012  0.00  0.00    +0.190 A 
ATOM      3  N   LIG    1        1.103   2.032   0.002  0.00  0.00    -0.510 NA
ATOM      4  C   LIG    1       -0.016   1.321   0.009  0.00  0.00    +0.370 A 
ATOM      5  N   LIG    1        0.002  -0.004   0.002  0.00  0.00    -0.540 NA
ATOM      6  C   LIG    1        1.154  -0.665  -0.013  0.00  0.00    +0.320 A 
ATOM      7  C   LIG    1        2.350   0.058  -0.020  0.00  0.00    -0.180 A 
ATOM      8  C   LIG    1        3.679  -0.652  -0.036  0.00  0.00    +0.120 C 
ENDROOT
BRANCH   6   9
ATOM      9  N   LIG    1        1.170  -2.050  -0.020  0.00  0.00    -0.400 N 
ATOM     10  C   LIG    1        1.335  -2.584   1.346  0.00  0.00    +0.210 C 
ATOM     11  C   LIG    1        0.285  -3.642   0.998  0.00  0.00    +0.100 C 
ATOM     12  C   LIG    1       -0.714  -3.911   2.126  0.00  0.00    +0.050 C 
ATOM     13  C   LIG    1        0.070  -4.161   3.400  0.00  0.00    +0.520 C 
ATOM     14  N   LIG    1        0.804  -5.274   3.514  0.00  0.00    -0.730 N 
ATOM     15  H   LIG    1        1.306  -5.439   4.328  0.00  0.00    +0.400 HD
ATOM     16  C   LIG    1        0.855  -6.247   2.413  0.00  0.00    +0.250 C 
ATOM     17  C   LIG    1        1.673  -5.655   1.264  0.00  0.00    +0.230 C 
ATOM     18  O   LIG    1        0.033  -3.358   4.308  0.00  0.00    -0.540 OA
ATOM     19  N   LIG    1        0.824  -4.851   0.390  0.00  0.00    -0.660 NA
ATOM     20  H   LIG    1        0.089  -5.411  -0.015  0.00  0.00    +0.350 HD
ATOM     21  C   LIG    1       -0.201  -2.595  -0.009  0.00  0.00    +0.240 C 
ENDBRANCH   6   9
BRANCH   4  22
ATOM     22  C   LIG    1       -1.321   2.027   0.019  0.00  0.00    +0.000 A 
ATOM     23  C   LIG    1       -2.523   1.313   0.015  0.00  0.00    +0.010 A 
ATOM     24  C   LIG    1       -3.715   2.010   0.030  0.00  0.00    +0.250 A 
ATOM     25  N   LIG    1       -3.729   3.328   0.037  0.00  0.00    -0.470 NA
ATOM     26  C   LIG    1       -2.618   4.039   0.036  0.00  0.00    +0.250 A 
ATOM     27  C   LIG    1       -1.383   3.423   0.027  0.00  0.00    +0.020 A 
ENDBRANCH   4  22
TORSDOF 2
