REMARK  Name = ZINCvU0000000I3V.0
REMARK                            x       y       z     vdW  Elec       q    Type
REMARK                         _______ _______ _______ _____ _____    ______ ____
ROOT
ATOM      1  N   LIG    1       -1.950   5.511   1.847  0.00  0.00    -0.740 N 
ATOM      2  H   LIG    1       -1.544   5.826   1.025  0.00  0.00    +0.400 HD
ATOM      3  C   LIG    1       -2.706   6.346   2.589  0.00  0.00    +0.710 C 
ATOM      4  N   LIG    1       -2.896   7.618   2.187  0.00  0.00    -0.690 N 
ATOM      5  H   LIG    1       -2.558   7.911   1.326  0.00  0.00    +0.410 HD
ATOM      6  O   LIG    1       -3.216   5.951   3.619  0.00  0.00    -0.570 OA
ENDROOT
BRANCH   4   7
ATOM      7  C   LIG    1       -3.581   8.518   3.013  0.00  0.00    +0.160 A 
ATOM      8  C   LIG    1       -4.378   9.507   2.452  0.00  0.00    +0.020 A 
ATOM      9  C   LIG    1       -5.057  10.391   3.266  0.00  0.00    +0.010 A 
ATOM     10  C   LIG    1       -4.935  10.298   4.646  0.00  0.00    +0.150 A 
ATOM     11  C   LIG    1       -4.133   9.312   5.208  0.00  0.00    +0.050 A 
ATOM     12  C   LIG    1       -3.459   8.425   4.394  0.00  0.00    +0.040 A 
BRANCH  10  13
ATOM     13  N   LIG    1       -5.620  11.199   5.473  0.00  0.00    -0.360 N 
ATOM     14  N   LIG    1       -6.176  10.895   6.720  0.00  0.00    -0.250 NA
ATOM     15  C   LIG    1       -6.738  11.954   7.230  0.00  0.00    +0.280 A 
ATOM     16  C   LIG    1       -6.572  13.050   6.279  0.00  0.00    -0.180 A 
ATOM     17  C   LIG    1       -6.960  14.393   6.270  0.00  0.00    +0.090 A 
ATOM     18  C   LIG    1       -6.644  15.182   5.202  0.00  0.00    -0.030 A 
ATOM     19  C   LIG    1       -5.941  14.663   4.122  0.00  0.00    +0.060 A 
ATOM     20  C   LIG    1       -5.548  13.344   4.108  0.00  0.00    -0.010 A 
ATOM     21  C   LIG    1       -5.859  12.520   5.186  0.00  0.00    +0.130 A 
ENDBRANCH  10  13
ENDBRANCH   4   7
BRANCH   1  22
ATOM     22  C   LIG    1       -1.744   4.128   2.284  0.00  0.00    +0.310 C 
BRANCH  22  23
ATOM     23  C   LIG    1       -0.856   3.401   1.272  0.00  0.00    +0.160 C 
BRANCH  23  25
ATOM     24  C   LIG    1        0.042   1.174   0.583  0.00  0.00    +0.020 C 
ATOM     25  C   LIG    1       -0.742   1.926   1.660  0.00  0.00    +0.020 C 
ENDBRANCH  23  25
BRANCH  23  26
ATOM     26  O   LIG    1        0.444   3.994   1.266  0.00  0.00    -0.300 OA
BRANCH  26  27
ATOM     27  C   LIG    1        1.095   4.043   0.074  0.00  0.00    +0.130 A 
ATOM     28  C   LIG    1        0.485   3.553  -1.071  0.00  0.00    -0.080 A 
ATOM     29  C   LIG    1        1.149   3.604  -2.281  0.00  0.00    +0.030 A 
ATOM     30  C   LIG    1        2.420   4.143  -2.352  0.00  0.00    -0.030 A 
ATOM     31  C   LIG    1        3.031   4.632  -1.211  0.00  0.00    +0.050 A 
ATOM     32  C   LIG    1        2.369   4.589   0.000  0.00  0.00    -0.120 A 
ATOM     33  C   LIG    1        3.032   5.128   1.241  0.00  0.00    +0.090 C 
ENDBRANCH  26  27
ENDBRANCH  23  26
ENDBRANCH  22  23
ENDBRANCH   1  22
TORSDOF 7
