REMARK  Name = ZINCrD0000074sqd.0
REMARK                            x       y       z     vdW  Elec       q    Type
REMARK                         _______ _______ _______ _____ _____    ______ ____
ROOT
ATOM      1  C   LIG    1       -0.001  -0.002   0.068  0.00  0.00    +0.520 C 
ATOM      2  O   LIG    1        1.058  -0.596   0.056  0.00  0.00    -0.500 OA
ENDROOT
BRANCH   1   6
ATOM      3  C   LIG    1       -3.651  -2.171   0.140  0.00  0.00    +0.200 A 
ATOM      4  C   LIG    1       -2.439  -2.853   0.126  0.00  0.00    +0.020 A 
ATOM      5  C   LIG    1       -1.254  -2.153   0.103  0.00  0.00    +0.120 A 
ATOM      6  C   LIG    1       -1.270  -0.756   0.093  0.00  0.00    -0.140 A 
ATOM      7  C   LIG    1       -2.489  -0.074   0.113  0.00  0.00    +0.120 A 
ATOM      8  C   LIG    1       -3.671  -0.781   0.131  0.00  0.00    -0.010 A 
BRANCH   3  15
ATOM      9  C   LIG    1       -6.184  -1.266   1.627  0.00  0.00    +0.160 C 
ATOM     10  C   LIG    1       -5.990  -2.517   0.809  0.00  0.00    +0.090 A 
ATOM     11  C   LIG    1       -6.918  -3.476   0.584  0.00  0.00    -0.100 A 
ATOM     12  C   LIG    1       -6.334  -4.461  -0.221  0.00  0.00    +0.090 A 
ATOM     13  N   LIG    1       -5.101  -4.106  -0.477  0.00  0.00    -0.290 NA
ATOM     14  C   LIG    1       -7.012  -5.713  -0.715  0.00  0.00    +0.160 C 
ATOM     15  N   LIG    1       -4.853  -2.886   0.164  0.00  0.00    -0.340 N 
ENDBRANCH   3  15
ENDBRANCH   1   6
BRANCH   1  16
ATOM     16  O   LIG    1       -0.019   1.345   0.059  0.00  0.00    -0.330 OA
BRANCH  16  17
ATOM     17  C   LIG    1        1.266   2.021   0.035  0.00  0.00    +0.270 C 
BRANCH  17  18
ATOM     18  C   LIG    1        1.050   3.512   0.028  0.00  0.00    +0.520 C 
ATOM     19  N   LIG    1        2.108   4.347   0.005  0.00  0.00    -0.660 N 
ATOM     20  H   LIG    1        3.009   3.989   0.056  0.00  0.00    +0.420 HD
ATOM     21  O   LIG    1       -0.076   3.962   0.042  0.00  0.00    -0.490 OA
BRANCH  19  22
ATOM     22  C   LIG    1        1.908   5.729  -0.091  0.00  0.00    +0.110 A 
ATOM     23  C   LIG    1        0.805   6.326   0.512  0.00  0.00    +0.090 A 
ATOM     24  C   LIG    1        0.652   7.699   0.393  0.00  0.00    +0.000 A 
ATOM     25  C   LIG    1        1.586   8.423  -0.323  0.00  0.00    +0.280 A 
ATOM     26  N   LIG    1        2.619   7.827  -0.888  0.00  0.00    -0.460 NA
ATOM     27  C   LIG    1        2.805   6.524  -0.795  0.00  0.00    +0.150 A 
ATOM     28 CL   LIG    1        4.183   5.796  -1.560  0.00  0.00    -0.020 Cl
ENDBRANCH  19  22
ENDBRANCH  17  18
ENDBRANCH  16  17
ENDBRANCH   1  16
TORSDOF 6
