REMARK  Name = ZINCrD00000hQ5TQ.0
REMARK                            x       y       z     vdW  Elec       q    Type
REMARK                         _______ _______ _______ _____ _____    ______ ____
ROOT
ATOM      1  C   LIG    1        7.230  -0.526  -0.067  0.00  0.00    +0.610 C 
ATOM      2  N   LIG    1        6.752   0.734  -0.056  0.00  0.00    -0.580 N 
ATOM      3  H   LIG    1        7.365   1.485  -0.058  0.00  0.00    +0.380 HD
ATOM      4  O   LIG    1        6.461  -1.469  -0.064  0.00  0.00    -0.480 OA
ENDROOT
BRANCH   1   9
ATOM      5  C   LIG    1       10.697  -1.688  -0.104  0.00  0.00    +0.080 A 
ATOM      6  N   LIG    1       10.819  -0.378  -0.099  0.00  0.00    -0.250 NA
ATOM      7  N   LIG    1        9.666   0.188  -0.091  0.00  0.00    -0.380 N 
ATOM      8  H   LIG    1        9.515   1.146  -0.090  0.00  0.00    +0.440 HD
ATOM      9  C   LIG    1        8.683  -0.762  -0.081  0.00  0.00    -0.040 A 
ATOM     10  C   LIG    1        9.322  -1.987  -0.092  0.00  0.00    +0.040 A 
BRANCH   5  14
ATOM     11  C   LIG    1       13.882  -4.508  -0.148  0.00  0.00    +0.140 A 
ATOM     12  C   LIG    1       14.161  -3.149  -0.144  0.00  0.00    -0.020 A 
ATOM     13  C   LIG    1       13.130  -2.232  -0.130  0.00  0.00    +0.090 A 
ATOM     14  C   LIG    1       11.808  -2.672  -0.120  0.00  0.00    -0.050 A 
ATOM     15  C   LIG    1       11.531  -4.038  -0.118  0.00  0.00    +0.070 A 
ATOM     16  C   LIG    1       12.566  -4.950  -0.138  0.00  0.00    -0.080 A 
BRANCH  11  18
ATOM     17  C   LIG    1       14.541  -6.793  -0.164  0.00  0.00    +0.250 C 
ATOM     18  O   LIG    1       14.899  -5.409  -0.161  0.00  0.00    -0.320 OA
ENDBRANCH  11  18
ENDBRANCH   5  14
ENDBRANCH   1   9
BRANCH   2  19
ATOM     19  N   LIG    1        5.369   0.958  -0.043  0.00  0.00    -0.240 NA
ATOM     20  C   LIG    1        4.908   2.173  -0.033  0.00  0.00    +0.280 C 
BRANCH  20  21
ATOM     21  C   LIG    1        3.456   2.408  -0.018  0.00  0.00    -0.150 A 
ATOM     22  C   LIG    1        2.828   3.615  -0.006  0.00  0.00    +0.290 A 
ATOM     23  N   LIG    1        1.477   3.430   0.005  0.00  0.00    -0.580 N 
ATOM     24  H   LIG    1        0.820   4.144   0.015  0.00  0.00    +0.420 HD
ATOM     25  C   LIG    1        1.179   2.084   0.002  0.00  0.00    +0.090 A 
ATOM     26  C   LIG    1       -0.017   1.374   0.010  0.00  0.00    -0.010 A 
ATOM     27  C   LIG    1        0.002  -0.004   0.002  0.00  0.00    +0.030 A 
ATOM     28  C   LIG    1        1.205  -0.695  -0.013  0.00  0.00    -0.010 A 
ATOM     29  C   LIG    1        2.400  -0.010  -0.020  0.00  0.00    +0.080 A 
ATOM     30  C   LIG    1        2.397   1.383  -0.013  0.00  0.00    -0.080 A 
ENDBRANCH  20  21
ENDBRANCH   2  19
TORSDOF 5
