REMARK  Name = ZINCpe000000XM8s.0
REMARK                            x       y       z     vdW  Elec       q    Type
REMARK                         _______ _______ _______ _____ _____    ______ ____
ROOT
ATOM      1  C   LIG    1       -2.007   5.921  -1.810  0.00  0.00    +0.270 C 
ENDROOT
BRANCH   1   2
ATOM      2  N   LIG    1       -0.602   6.120  -1.445  0.00  0.00    -1.110 NA
ATOM      3  H   LIG    1        0.025   6.464  -2.100  0.00  0.00    +0.420 HD
BRANCH   2   4
ATOM      4  S   LIG    1       -0.085   5.756   0.085  0.00  0.00    +2.700 S 
ATOM      5  O   LIG    1        1.317   5.987   0.100  0.00  0.00    -0.950 OA
ATOM      6  O   LIG    1       -0.988   6.396   0.977  0.00  0.00    -0.950 OA
BRANCH   4  12
ATOM      7  C   LIG    1       -2.361   1.691   2.456  0.00  0.00    +0.090 C 
ATOM      8  C   LIG    1       -1.379   2.198   1.431  0.00  0.00    -0.110 A 
ATOM      9  C   LIG    1       -0.654   1.303   0.667  0.00  0.00    +0.070 A 
ATOM     10  C   LIG    1        0.250   1.767  -0.270  0.00  0.00    -0.010 A 
ATOM     11  C   LIG    1        0.421   3.127  -0.450  0.00  0.00    +0.010 A 
ATOM     12  C   LIG    1       -0.306   4.022   0.312  0.00  0.00    -0.680 A 
ATOM     13  C   LIG    1        1.403   3.634  -1.476  0.00  0.00    +0.100 C 
ATOM     14  C   LIG    1       -1.206   3.558   1.253  0.00  0.00    +0.120 A 
ENDBRANCH   4  12
ENDBRANCH   2   4
ENDBRANCH   1   2
BRANCH   1  15
ATOM     15  C   LIG    1       -2.312   6.687  -3.099  0.00  0.00    +0.290 C 
BRANCH  15  16
ATOM     16  N   LIG    1       -3.717   6.488  -3.464  0.00  0.00    -0.750 N 
ATOM     17  H   LIG    1       -4.289   5.936  -2.908  0.00  0.00    +0.400 HD
ATOM     18  C   LIG    1       -4.215   7.072  -4.572  0.00  0.00    +0.710 C 
ATOM     19  N   LIG    1       -5.507   6.889  -4.908  0.00  0.00    -0.740 N 
ATOM     20  H   LIG    1       -6.079   6.338  -4.352  0.00  0.00    +0.400 HD
ATOM     21  O   LIG    1       -3.497   7.764  -5.269  0.00  0.00    -0.590 OA
BRANCH  19  22
ATOM     22  C   LIG    1       -6.048   7.524  -6.112  0.00  0.00    +0.370 C 
BRANCH  22  23
ATOM     23  C   LIG    1       -7.504   7.164  -6.260  0.00  0.00    -0.260 A 
ATOM     24  C   LIG    1       -7.996   6.097  -6.930  0.00  0.00    +0.260 A 
ATOM     25  N   LIG    1       -9.341   6.129  -6.824  0.00  0.00    -0.370 N 
ATOM     26  N   LIG    1       -9.687   7.258  -6.070  0.00  0.00    -0.290 NA
ATOM     27  C   LIG    1      -10.274   5.157  -7.399  0.00  0.00    +0.360 C 
ATOM     28  C   LIG    1       -8.585   7.878  -5.732  0.00  0.00    +0.260 A 
ENDBRANCH  22  23
ENDBRANCH  19  22
ENDBRANCH  15  16
ENDBRANCH   1  15
TORSDOF 7
