REMARK  Name = ZINCpk00000KfLjV.0
REMARK                            x       y       z     vdW  Elec       q    Type
REMARK                         _______ _______ _______ _____ _____    ______ ____
ROOT
ATOM      1  C   LIG    1        2.089  -3.804   1.395  0.00  0.00    +0.150 C 
ATOM      2  C   LIG    1        2.246  -4.261   2.848  0.00  0.00    +0.030 C 
ATOM      3  C   LIG    1        2.404  -5.784   2.881  0.00  0.00    +0.040 C 
ATOM      4  C   LIG    1        1.189  -6.432   2.215  0.00  0.00    +0.200 C 
ATOM      5  N   LIG    1        1.082  -5.964   0.827  0.00  0.00    -0.470 N 
ATOM      6  C   LIG    1        0.882  -4.510   0.771  0.00  0.00    +0.220 C 
ENDROOT
BRANCH   5   7
ATOM      7  C   LIG    1        0.067  -6.633   0.152  0.00  0.00    +0.250 A 
ATOM      8  C   LIG    1        0.068  -8.025   0.086  0.00  0.00    +0.020 A 
ATOM      9  C   LIG    1       -0.966  -8.644  -0.599  0.00  0.00    +0.050 A 
ATOM     10  C   LIG    1       -1.939  -7.840  -1.176  0.00  0.00    +0.050 A 
ATOM     11  N   LIG    1       -1.862  -6.528  -1.064  0.00  0.00    -0.220 NA
ATOM     12  C   LIG    1       -3.083  -8.466  -1.930  0.00  0.00    +0.140 C 
ATOM     13  N   LIG    1       -0.910  -5.949  -0.427  0.00  0.00    -0.280 NA
ENDBRANCH   5   7
BRANCH   1  14
ATOM     14  N   LIG    1        1.879  -2.351   1.358  0.00  0.00    -0.530 NA
ATOM     15  C   LIG    1        2.976  -1.643   2.033  0.00  0.00    +0.210 C 
BRANCH  14  16
ATOM     16  C   LIG    1        1.719  -1.877  -0.024  0.00  0.00    +0.350 C 
BRANCH  16  20
ATOM     17  C   LIG    1        1.198   1.675  -0.000  0.00  0.00    +0.170 A 
ATOM     18  N   LIG    1       -0.014   1.209   0.009  0.00  0.00    -0.370 NA
ATOM     19  O   LIG    1        0.002  -0.004   0.002  0.00  0.00    +0.090 OA
ATOM     20  C   LIG    1        1.265  -0.440  -0.012  0.00  0.00    +0.190 A 
ATOM     21  N   LIG    1        2.035   0.622  -0.014  0.00  0.00    -0.470 NA
BRANCH  17  22
ATOM     22  C   LIG    1        1.595   3.129   0.003  0.00  0.00    +0.180 C 
BRANCH  22  23
ATOM     23  C   LIG    1        1.744   3.614   1.447  0.00  0.00    +0.180 C 
BRANCH  23  25
ATOM     24  C   LIG    1        2.285   5.546   2.757  0.00  0.00    +0.200 C 
ATOM     25  O   LIG    1        2.120   4.992   1.450  0.00  0.00    -0.390 OA
ENDBRANCH  23  25
ENDBRANCH  22  23
ENDBRANCH  17  22
ENDBRANCH  16  20
ENDBRANCH  14  16
ENDBRANCH   1  14
TORSDOF 7
