REMARK  Name = ZINCpe00000zsuwS.0
REMARK                            x       y       z     vdW  Elec       q    Type
REMARK                         _______ _______ _______ _____ _____    ______ ____
ROOT
ATOM      1  C   LIG    1        5.720   2.168   2.526  0.00  0.00    +0.200 C 
ATOM      2  C   LIG    1        5.979   1.818   4.014  0.00  0.00    +0.060 C 
ATOM      3  C   LIG    1        5.412   0.376   4.097  0.00  0.00    +0.050 C 
ATOM      4  C   LIG    1        4.198   0.428   3.144  0.00  0.00    +0.250 C 
ATOM      5  N   LIG    1        4.419   1.546   2.216  0.00  0.00    -0.610 N 
ATOM      6  C   LIG    1        3.576   1.935   1.239  0.00  0.00    +0.550 C 
ATOM      7  O   LIG    1        3.904   2.811   0.467  0.00  0.00    -0.510 OA
ENDROOT
BRANCH   6   8
ATOM      8  C   LIG    1        2.224   1.281   1.107  0.00  0.00    -0.010 C 
ATOM      9  C   LIG    1        1.205   2.310   0.607  0.00  0.00    +0.090 C 
ATOM     10  C   LIG    1       -0.205   1.716   0.688  0.00  0.00    +0.340 C 
ATOM     11  N   LIG    1       -0.203   0.402   0.041  0.00  0.00    -0.300 N 
ATOM     12  N   LIG    1       -1.207  -0.283  -0.373  0.00  0.00    -0.090 NA
ATOM     13  N   LIG    1       -0.772  -1.385  -0.885  0.00  0.00    -0.080 NA
ATOM     14  N   LIG    1        0.517  -1.418  -0.803  0.00  0.00    -0.290 NA
ATOM     15  C   LIG    1        0.907  -0.316  -0.228  0.00  0.00    +0.180 A 
ATOM     16  C   LIG    1        2.309   0.126   0.101  0.00  0.00    +0.190 C 
ENDBRANCH   6   8
BRANCH   1  18
ATOM     17  O   LIG    1        4.566   4.219   2.349  0.00  0.00    -0.430 OA
ATOM     18  C   LIG    1        5.643   3.662   2.344  0.00  0.00    +0.400 C 
BRANCH  18  19
ATOM     19  C   LIG    1        6.873   4.443   2.161  0.00  0.00    -0.170 A 
ATOM     20  C   LIG    1        8.119   3.803   2.161  0.00  0.00    +0.080 A 
ATOM     21  C   LIG    1        9.264   4.536   1.983  0.00  0.00    -0.020 A 
ATOM     22  C   LIG    1        9.191   5.915   1.816  0.00  0.00    +0.140 A 
ATOM     23  C   LIG    1        7.957   6.556   1.822  0.00  0.00    -0.020 A 
ATOM     24  C   LIG    1        6.805   5.832   1.992  0.00  0.00    +0.100 A 
BRANCH  22  25
ATOM     25  O   LIG    1       10.327   6.637   1.647  0.00  0.00    -0.500 OA
ATOM     26  H   LIG    1       10.717   6.955   2.473  0.00  0.00    +0.400 HD
ENDBRANCH  22  25
ENDBRANCH  18  19
ENDBRANCH   1  18
TORSDOF 4
