REMARK  Name = ZINCqH0000033Llq.0
REMARK                            x       y       z     vdW  Elec       q    Type
REMARK                         _______ _______ _______ _____ _____    ______ ____
ROOT
ATOM      1  N   LIG    1        2.396   5.285   0.006  0.00  0.00    -0.620 N 
ATOM      2  H   LIG    1        1.547   5.755   0.017  0.00  0.00    +0.430 HD
ATOM      3  C   LIG    1        2.419   3.937  -0.001  0.00  0.00    +0.530 C 
ATOM      4  O   LIG    1        3.482   3.348  -0.014  0.00  0.00    -0.430 OA
ENDROOT
BRANCH   1  10
ATOM      5  C   LIG    1        7.773   8.300  -0.030  0.00  0.00    +0.150 A 
ATOM      6  C   LIG    1        8.145   6.960  -0.040  0.00  0.00    -0.040 A 
ATOM      7  C   LIG    1        7.194   5.972  -0.036  0.00  0.00    +0.120 A 
ATOM      8  C   LIG    1        5.821   6.299  -0.021  0.00  0.00    +0.070 A 
ATOM      9  N   LIG    1        4.757   5.471  -0.010  0.00  0.00    -0.450 NA
ATOM     10  C   LIG    1        3.583   5.998  -0.002  0.00  0.00    +0.320 A 
ATOM     11  S   LIG    1        3.699   7.752   0.006  0.00  0.00    +0.080 S 
ATOM     12  C   LIG    1        5.458   7.649  -0.011  0.00  0.00    -0.140 A 
ATOM     13  C   LIG    1        6.434   8.643  -0.015  0.00  0.00    +0.030 A 
BRANCH   5  14
ATOM     14  O   LIG    1        8.724   9.272  -0.035  0.00  0.00    -0.310 OA
BRANCH  14  16
ATOM     15  C   LIG    1       11.006  10.068  -0.054  0.00  0.00    +0.070 C 
ATOM     16  C   LIG    1       10.088   8.844  -0.050  0.00  0.00    +0.190 C 
ENDBRANCH  14  16
ENDBRANCH   5  14
ENDBRANCH   1  10
BRANCH   3  17
ATOM     17  C   LIG    1        1.153   3.176   0.008  0.00  0.00    -0.050 A 
ATOM     18  C   LIG    1       -0.070   3.850   0.022  0.00  0.00    +0.040 A 
ATOM     19  C   LIG    1       -1.249   3.133   0.030  0.00  0.00    +0.070 A 
ATOM     20  C   LIG    1       -1.221   1.750   0.017  0.00  0.00    +0.030 A 
ATOM     21  C   LIG    1       -0.013   1.076   0.008  0.00  0.00    +0.130 A 
ATOM     22  C   LIG    1        1.173   1.780   0.000  0.00  0.00    -0.610 A 
BRANCH  22  23
ATOM     23  S   LIG    1        2.711   0.920  -0.018  0.00  0.00    +2.500 S 
ATOM     24  O   LIG    1        2.345  -0.453   0.005  0.00  0.00    -0.950 OA
ATOM     25  O   LIG    1        3.449   1.499   1.050  0.00  0.00    -0.900 OA
BRANCH  23  26
ATOM     26  C   LIG    1        3.454   1.355  -1.615  0.00  0.00    -0.330 C 
ATOM     27  C   LIG    1        4.811   0.660  -1.752  0.00  0.00    +0.090 C 
ENDBRANCH  23  26
ENDBRANCH  22  23
ENDBRANCH   3  17
TORSDOF 6
