REMARK  Name = ZINCpe000000TLgg.0
REMARK                            x       y       z     vdW  Elec       q    Type
REMARK                         _______ _______ _______ _____ _____    ______ ____
ROOT
ATOM      1  C   LIG    1        1.225   2.587  -1.029  0.00  0.00    +0.030 C 
ATOM      2  C   LIG    1        1.976   2.232   0.256  0.00  0.00    +0.050 C 
ATOM      3  C   LIG    1        2.042   0.710   0.406  0.00  0.00    +0.030 C 
ATOM      4  C   LIG    1        0.620   0.149   0.506  0.00  0.00    +0.270 C 
ATOM      5  N   LIG    1       -0.152   0.608  -0.656  0.00  0.00    -0.600 N 
ATOM      6  C   LIG    1       -0.800  -0.275  -1.442  0.00  0.00    +0.510 C 
ATOM      7  O   LIG    1       -1.435   0.116  -2.399  0.00  0.00    -0.520 OA
ATOM      8  C   LIG    1       -0.206   2.047  -0.945  0.00  0.00    +0.310 C 
ENDROOT
BRANCH   1   9
ATOM      9  C   LIG    1        1.188   4.085  -1.193  0.00  0.00    +0.470 C 
ATOM     10  O   LIG    1        1.712   4.796  -0.368  0.00  0.00    -0.500 OA
BRANCH   9  11
ATOM     11  O   LIG    1        0.573   4.630  -2.254  0.00  0.00    -0.360 OA
BRANCH  11  13
ATOM     12  C   LIG    1       -0.165   6.511  -3.613  0.00  0.00    +0.070 C 
ATOM     13  C   LIG    1        0.578   6.079  -2.347  0.00  0.00    +0.200 C 
ENDBRANCH  11  13
ENDBRANCH   9  11
ENDBRANCH   1   9
BRANCH   6  14
ATOM     14  C   LIG    1       -0.735  -1.749  -1.133  0.00  0.00    +0.330 C 
BRANCH  14  15
ATOM     15  N   LIG    1       -1.514  -2.491  -2.127  0.00  0.00    -0.470 N 
ATOM     16  C   LIG    1       -2.819  -2.734  -1.903  0.00  0.00    +0.530 A 
ATOM     17  C   LIG    1       -3.576  -3.441  -2.853  0.00  0.00    -0.050 A 
ATOM     18  C   LIG    1       -2.972  -3.883  -3.993  0.00  0.00    +0.180 A 
ATOM     19  C   LIG    1       -1.610  -3.619  -4.193  0.00  0.00    -0.150 A 
ATOM     20  O   LIG    1       -3.346  -2.337  -0.876  0.00  0.00    -0.510 OA
ATOM     21  C   LIG    1       -0.911  -2.931  -3.261  0.00  0.00    +0.280 A 
ATOM     22  C   LIG    1        0.553  -2.651  -3.483  0.00  0.00    +0.170 C 
BRANCH  19  23
ATOM     23  N   LIG    1       -0.937  -4.092  -5.424  0.00  0.00    +0.050 N 
ATOM     24  O   LIG    1       -1.589  -4.607  -6.315  0.00  0.00    -0.160 OA
ATOM     25  O   LIG    1        0.268  -3.966  -5.546  0.00  0.00    -0.170 OA
ENDBRANCH  19  23
ENDBRANCH  14  15
ENDBRANCH   6  14
TORSDOF 6
