REMARK  Name = ZINCtV000002q4V1.0
REMARK                            x       y       z     vdW  Elec       q    Type
REMARK                         _______ _______ _______ _____ _____    ______ ____
ROOT
ATOM      1  C   LIG    1        2.478   3.936   0.010  0.00  0.00    +0.270 C 
ENDROOT
BRANCH   1   2
ATOM      2  C   LIG    1        1.182   3.167   0.010  0.00  0.00    -0.120 A 
ATOM      3  C   LIG    1       -0.021   3.844   0.015  0.00  0.00    +0.090 A 
ATOM      4  C   LIG    1       -1.219   3.132   0.016  0.00  0.00    -0.070 A 
ATOM      5  C   LIG    1       -1.196   1.738   0.006  0.00  0.00    +0.070 A 
ATOM      6  C   LIG    1        0.011   1.070   0.006  0.00  0.00    +0.000 A 
ATOM      7  C   LIG    1        1.199   1.782   0.006  0.00  0.00    +0.120 A 
ATOM      8  F   LIG    1        2.379   1.123   0.001  0.00  0.00    -0.130 F 
BRANCH   4   9
ATOM      9  C   LIG    1       -2.514   3.855   0.021  0.00  0.00    -0.050 A 
ATOM     10  C   LIG    1       -3.504   3.522  -0.901  0.00  0.00    +0.050 A 
ATOM     11  C   LIG    1       -4.708   4.197  -0.893  0.00  0.00    +0.050 A 
ATOM     12  C   LIG    1       -4.936   5.203   0.029  0.00  0.00    +0.030 A 
ATOM     13  C   LIG    1       -3.957   5.540   0.949  0.00  0.00    +0.070 A 
ATOM     14  F   LIG    1       -4.184   6.524   1.846  0.00  0.00    -0.130 F 
ATOM     15  C   LIG    1       -2.747   4.867   0.953  0.00  0.00    +0.080 A 
ATOM     16  F   LIG    1       -1.794   5.191   1.853  0.00  0.00    -0.120 F 
ENDBRANCH   4   9
ENDBRANCH   1   2
BRANCH   1  17
ATOM     17  O   LIG    1        2.200   5.338   0.015  0.00  0.00    -0.310 OA
BRANCH  17  25
ATOM     18  C   LIG    1        3.071   7.558   0.015  0.00  0.00    +0.130 A 
ATOM     19  C   LIG    1        4.164   8.412   0.020  0.00  0.00    +0.080 A 
ATOM     20  C   LIG    1        5.447   7.892   0.016  0.00  0.00    -0.050 A 
ATOM     21  C   LIG    1        5.641   6.523   0.012  0.00  0.00    -0.050 A 
ATOM     22  C   LIG    1        4.555   5.667   0.012  0.00  0.00    -0.040 A 
ATOM     23  C   LIG    1        7.040   5.962   0.007  0.00  0.00    +0.110 C 
ATOM     24 CL   LIG    1        6.814   8.962   0.017  0.00  0.00    -0.060 Cl
ATOM     25  C   LIG    1        3.269   6.179   0.016  0.00  0.00    +0.110 A 
BRANCH  18  28
ATOM     26  C   LIG    1        0.171   9.930  -0.362  0.00  0.00    +0.110 C 
ATOM     27  C   LIG    1        1.544   9.318  -0.474  0.00  0.00    +0.510 C 
ATOM     28  N   LIG    1        1.772   8.082   0.013  0.00  0.00    -0.660 N 
ATOM     29  H   LIG    1        1.036   7.555   0.362  0.00  0.00    +0.420 HD
ATOM     30  O   LIG    1        2.443   9.938  -1.001  0.00  0.00    -0.520 OA
ENDBRANCH  18  28
ENDBRANCH  17  25
ENDBRANCH   1  17
TORSDOF 5
