REMARK  Name = ZINCrD00000724LB.0
REMARK                            x       y       z     vdW  Elec       q    Type
REMARK                         _______ _______ _______ _____ _____    ______ ____
ROOT
ATOM      1  N   LIG    1        4.875   4.002  -0.020  0.00  0.00    -0.560 N 
ATOM      2  C   LIG    1        4.928   5.345  -0.114  0.00  0.00    +0.520 C 
ATOM      3  O   LIG    1        3.904   5.995  -0.102  0.00  0.00    -0.490 OA
ENDROOT
BRANCH   1   7
ATOM      4  C   LIG    1        1.185   2.060   0.012  0.00  0.00    +0.140 A 
ATOM      5  C   LIG    1        1.976   2.064   1.151  0.00  0.00    -0.070 A 
ATOM      6  C   LIG    1        3.201   2.702   1.139  0.00  0.00    +0.060 A 
ATOM      7  C   LIG    1        3.635   3.349  -0.010  0.00  0.00    +0.090 A 
ATOM      8  C   LIG    1        2.840   3.349  -1.148  0.00  0.00    +0.070 A 
ATOM      9  C   LIG    1        1.619   2.706  -1.137  0.00  0.00    +0.000 A 
BRANCH   4  10
ATOM     10  O   LIG    1       -0.019   1.428   0.022  0.00  0.00    -0.310 OA
BRANCH  10  12
ATOM     11  C   LIG    1       -1.775   0.132   1.060  0.00  0.00    +0.070 C 
ATOM     12  C   LIG    1       -0.403   0.784   1.239  0.00  0.00    +0.170 C 
ENDBRANCH  10  12
ENDBRANCH   4  10
ENDBRANCH   1   7
BRANCH   2  13
ATOM     13  C   LIG    1        6.260   6.040  -0.235  0.00  0.00    +0.270 C 
BRANCH  13  14
ATOM     14  O   LIG    1        6.052   7.474  -0.321  0.00  0.00    -0.320 OA
BRANCH  14  15
ATOM     15  C   LIG    1        7.151   8.246  -0.435  0.00  0.00    +0.550 C 
ATOM     16  O   LIG    1        8.253   7.734  -0.461  0.00  0.00    -0.510 OA
BRANCH  15  17
ATOM     17  C   LIG    1        7.016   9.710  -0.526  0.00  0.00    -0.240 A 
ATOM     18  C   LIG    1        8.022  10.625  -0.639  0.00  0.00    +0.100 A 
ATOM     19  O   LIG    1        7.478  11.844  -0.696  0.00  0.00    -0.170 OA
ATOM     20  C   LIG    1        6.140  11.776  -0.617  0.00  0.00    -0.010 A 
ATOM     21  C   LIG    1        5.202  12.955  -0.644  0.00  0.00    +0.170 C 
ATOM     22  C   LIG    1        9.496  10.314  -0.693  0.00  0.00    +0.190 C 
ATOM     23  C   LIG    1        5.771  10.491  -0.510  0.00  0.00    +0.010 A 
ENDBRANCH  15  17
ENDBRANCH  14  15
ENDBRANCH  13  14
ENDBRANCH   2  13
BRANCH   1  24
ATOM     24  C   LIG    1        6.113   3.224   0.071  0.00  0.00    +0.310 C 
BRANCH  24  25
ATOM     25  C   LIG    1        6.586   2.851  -1.335  0.00  0.00    +0.180 C 
BRANCH  25  26
ATOM     26  C   LIG    1        7.830   2.070  -1.244  0.00  0.00    +0.200 C 
ATOM     27  N   LIG    1        8.790   1.466  -1.173  0.00  0.00    -0.420 NA
ENDBRANCH  25  26
ENDBRANCH  24  25
ENDBRANCH   1  24
TORSDOF 10
