REMARK  Name = ZINCpe00000bP5Lb.0
REMARK                            x       y       z     vdW  Elec       q    Type
REMARK                         _______ _______ _______ _____ _____    ______ ____
ROOT
ATOM      1  C   LIG    1       -0.854   1.380   1.331  0.00  0.00    -0.020 C 
ATOM      2  C   LIG    1       -0.098   0.711   0.152  0.00  0.00    +0.030 C 
ATOM      3  C   LIG    1       -1.003   1.015  -1.061  0.00  0.00    +0.280 C 
ATOM      4  N   LIG    1       -1.821   2.185  -0.712  0.00  0.00    -0.600 N 
ATOM      5  C   LIG    1       -2.756   2.753  -1.500  0.00  0.00    +0.580 C 
ATOM      6  O   LIG    1       -3.375   3.721  -1.107  0.00  0.00    -0.520 OA
ATOM      7  C   LIG    1       -1.451   2.635   0.642  0.00  0.00    +0.280 C 
ENDROOT
BRANCH   5   8
ATOM      8  C   LIG    1       -3.029   2.194  -2.849  0.00  0.00    +0.130 A 
ATOM      9  C   LIG    1       -3.989   2.768  -3.657  0.00  0.00    -0.040 A 
ATOM     10  C   LIG    1       -4.214   2.205  -4.937  0.00  0.00    +0.520 A 
ATOM     11  N   LIG    1       -3.488   1.129  -5.306  0.00  0.00    -0.630 N 
ATOM     12  H   LIG    1       -3.629   0.726  -6.177  0.00  0.00    +0.420 HD
ATOM     13  C   LIG    1       -2.567   0.612  -4.468  0.00  0.00    +0.590 A 
ATOM     14  O   LIG    1       -5.048   2.680  -5.688  0.00  0.00    -0.520 OA
ATOM     15  N   LIG    1       -2.347   1.123  -3.288  0.00  0.00    -0.530 NA
ENDBRANCH   5   8
BRANCH   1  17
ATOM     16  C   LIG    1       -0.669   2.413   3.598  0.00  0.00    +0.020 C 
ATOM     17  C   LIG    1        0.113   1.772   2.450  0.00  0.00    +0.250 C 
BRANCH  17  18
ATOM     18  N   LIG    1        0.805   0.577   2.938  0.00  0.00    -0.720 N 
ATOM     19  H   LIG    1        0.394  -0.296   2.838  0.00  0.00    +0.400 HD
ATOM     20  C   LIG    1        2.013   0.690   3.526  0.00  0.00    +0.600 C 
ATOM     21  O   LIG    1        2.528   1.784   3.651  0.00  0.00    -0.550 OA
BRANCH  20  22
ATOM     22  C   LIG    1        2.709  -0.512   4.016  0.00  0.00    -0.240 A 
ATOM     23  C   LIG    1        3.932  -0.562   4.625  0.00  0.00    +0.250 A 
ATOM     24  N   LIG    1        4.207  -1.846   4.923  0.00  0.00    -0.450 N 
ATOM     25  C   LIG    1        3.187  -2.655   4.512  0.00  0.00    +0.150 A 
ATOM     26  C   LIG    1        5.428  -2.310   5.586  0.00  0.00    +0.330 C 
ATOM     27  C   LIG    1        2.232  -1.897   3.945  0.00  0.00    -0.030 A 
ENDBRANCH  20  22
ENDBRANCH  17  18
ENDBRANCH   1  17
TORSDOF 4
