REMARK  Name = ZINCpe00000gLFwf.0
REMARK                            x       y       z     vdW  Elec       q    Type
REMARK                         _______ _______ _______ _____ _____    ______ ____
ROOT
ATOM      1  C   LIG    1       -5.386   2.365   1.462  0.00  0.00    +0.450 C 
ATOM      2  O   LIG    1       -4.597   2.376   2.376  0.00  0.00    -0.490 OA
ENDROOT
BRANCH   1   3
ATOM      3  C   LIG    1       -4.891   2.383   0.039  0.00  0.00    +0.410 C 
BRANCH   3  14
ATOM      4  C   LIG    1       -3.111   4.828   0.054  0.00  0.00    +0.050 C 
ATOM      5  C   LIG    1       -2.651   3.574   0.044  0.00  0.00    +0.130 C 
ATOM      6  C   LIG    1       -1.232   3.168   0.029  0.00  0.00    -0.040 A 
ATOM      7  C   LIG    1       -0.030   3.864   0.022  0.00  0.00    +0.050 A 
ATOM      8  C   LIG    1        1.164   3.170   0.008  0.00  0.00    +0.060 A 
ATOM      9  C   LIG    1        1.172   1.785   0.001  0.00  0.00    +0.020 A 
ATOM     10  C   LIG    1       -0.013   1.076   0.008  0.00  0.00    +0.100 A 
ATOM     11  C   LIG    1       -1.226   1.758   0.017  0.00  0.00    -0.160 A 
ATOM     12  C   LIG    1       -2.633   1.327   0.022  0.00  0.00    +0.570 C 
ATOM     13  O   LIG    1       -3.018   0.173   0.019  0.00  0.00    -0.490 OA
ATOM     14  N   LIG    1       -3.426   2.414   0.032  0.00  0.00    -0.550 N 
ENDBRANCH   3  14
ENDBRANCH   1   3
BRANCH   1  15
ATOM     15  O   LIG    1       -6.705   2.336   1.713  0.00  0.00    -0.320 OA
BRANCH  15  16
ATOM     16  C   LIG    1       -7.109   2.319   3.108  0.00  0.00    +0.190 C 
ATOM     17  C   LIG    1       -7.282   3.756   3.606  0.00  0.00    +0.070 C 
BRANCH  16  18
ATOM     18  C   LIG    1       -8.416   1.581   3.243  0.00  0.00    +0.520 C 
ATOM     19  N   LIG    1       -8.987   1.439   4.455  0.00  0.00    -0.690 N 
ATOM     20  H   LIG    1       -8.558   1.812   5.241  0.00  0.00    +0.410 HD
ATOM     21  C   LIG    1      -10.156   0.778   4.576  0.00  0.00    +0.690 C 
ATOM     22  N   LIG    1      -10.727   0.636   5.788  0.00  0.00    -0.740 N 
ATOM     23  H   LIG    1      -10.298   1.010   6.574  0.00  0.00    +0.400 HD
ATOM     24  O   LIG    1      -10.694   0.311   3.592  0.00  0.00    -0.530 OA
ATOM     25  O   LIG    1       -8.953   1.114   2.261  0.00  0.00    -0.440 OA
BRANCH  22  26
ATOM     26  C   LIG    1      -11.998  -0.082   5.920  0.00  0.00    +0.270 C 
ATOM     27  C   LIG    1      -12.424  -0.099   7.389  0.00  0.00    +0.030 C 
ENDBRANCH  22  26
ENDBRANCH  16  18
ENDBRANCH  15  16
ENDBRANCH   1  15
TORSDOF 6
