REMARK  Name = ZINCBI0000000hYl.0
REMARK                            x       y       z     vdW  Elec       q    Type
REMARK                         _______ _______ _______ _____ _____    ______ ____
ROOT
ATOM      1  C   LIG    1       -5.670   5.610  -1.430  0.00  0.00    +0.140 C 
ATOM      2  C   LIG    1       -5.630   6.574  -2.587  0.00  0.00    +0.040 A 
ATOM      3  C   LIG    1       -6.370   7.695  -2.708  0.00  0.00    -0.020 A 
ATOM      4  C   LIG    1       -6.029   8.297  -3.936  0.00  0.00    -0.240 A 
ATOM      5  C   LIG    1       -5.088   7.524  -4.518  0.00  0.00    +0.070 A 
ATOM      6  C   LIG    1       -4.430   7.785  -5.848  0.00  0.00    +0.140 C 
ATOM      7  N   LIG    1       -4.836   6.466  -3.693  0.00  0.00    -0.390 N 
ENDROOT
BRANCH   7   8
ATOM      8  C   LIG    1       -3.919   5.435  -3.943  0.00  0.00    +0.080 A 
ATOM      9  C   LIG    1       -4.121   4.567  -5.007  0.00  0.00    +0.090 A 
ATOM     10  C   LIG    1       -3.216   3.552  -5.250  0.00  0.00    +0.030 A 
ATOM     11  C   LIG    1       -2.106   3.405  -4.438  0.00  0.00    +0.150 A 
ATOM     12  C   LIG    1       -1.905   4.265  -3.374  0.00  0.00    -0.660 A 
ATOM     13  C   LIG    1       -2.807   5.281  -3.126  0.00  0.00    +0.150 A 
BRANCH  12  14
ATOM     14  S   LIG    1       -0.493   4.069  -2.339  0.00  0.00    +2.690 S 
ATOM     15  O   LIG    1        0.477   3.375  -3.111  0.00  0.00    -0.940 OA
ATOM     16  O   LIG    1       -0.251   5.337  -1.745  0.00  0.00    -0.940 OA
BRANCH  14  17
ATOM     17  N   LIG    1       -0.926   3.051  -1.107  0.00  0.00    -1.000 NA
ATOM     18  C   LIG    1       -0.756   1.595  -1.232  0.00  0.00    +0.270 C 
ATOM     19  C   LIG    1       -0.013   1.086   0.008  0.00  0.00    +0.220 C 
ATOM     20  O   LIG    1       -0.684   1.548   1.183  0.00  0.00    -0.370 OA
ATOM     21  C   LIG    1       -0.712   2.971   1.319  0.00  0.00    +0.220 C 
ATOM     22  C   LIG    1       -1.491   3.576   0.146  0.00  0.00    +0.260 C 
ENDBRANCH  14  17
ENDBRANCH  12  14
ENDBRANCH   7   8
BRANCH   4  23
ATOM     23  C   LIG    1       -6.608   9.570  -4.497  0.00  0.00    +0.350 C 
BRANCH  23  24
ATOM     24  N   LIG    1       -7.633   9.243  -5.497  0.00  0.00    -0.510 N 
ATOM     25  H   LIG    1       -8.366   8.703  -5.063  0.00  0.00    +0.430 HD
ATOM     26  H   LIG    1       -7.215   8.707  -6.243  0.00  0.00    +0.420 HD
BRANCH  24  27
ATOM     27  C   LIG    1       -8.197  10.485  -6.043  0.00  0.00    +0.160 C 
ATOM     28  C   LIG    1       -8.941  11.238  -4.938  0.00  0.00    +0.050 C 
ATOM     29  C   LIG    1       -9.580  12.498  -5.527  0.00  0.00    +0.200 C 
ATOM     30  N   LIG    1      -10.509  12.123  -6.600  0.00  0.00    -0.530 NA
ATOM     31  C   LIG    1       -9.807  11.441  -7.695  0.00  0.00    +0.210 C 
ATOM     32  C   LIG    1       -9.177  10.148  -7.171  0.00  0.00    +0.050 C 
BRANCH  30  33
ATOM     33  C   LIG    1      -11.242  13.296  -7.095  0.00  0.00    +0.240 C 
BRANCH  33  34
ATOM     34  C   LIG    1      -12.139  13.824  -6.006  0.00  0.00    -0.090 A 
ATOM     35  C   LIG    1      -13.435  13.357  -5.891  0.00  0.00    +0.020 A 
ATOM     36  C   LIG    1      -14.257  13.838  -4.889  0.00  0.00    +0.000 A 
ATOM     37  C   LIG    1      -13.786  14.793  -4.007  0.00  0.00    +0.010 A 
ATOM     38  C   LIG    1      -12.491  15.264  -4.125  0.00  0.00    +0.000 A 
ATOM     39  C   LIG    1      -11.668  14.779  -5.125  0.00  0.00    +0.000 A 
ENDBRANCH  33  34
ENDBRANCH  30  33
ENDBRANCH  24  27
ENDBRANCH  23  24
ENDBRANCH   4  23
TORSDOF 8
