REMARK  Name = ZINCrH000004qqsw.0
REMARK                            x       y       z     vdW  Elec       q    Type
REMARK                         _______ _______ _______ _____ _____    ______ ____
ROOT
ATOM      1  C   LIG    1       -0.878  -6.280   0.240  0.00  0.00    +0.290 C 
ATOM      2  C   LIG    1       -0.656  -6.645   1.709  0.00  0.00    +0.040 C 
ENDROOT
BRANCH   1   3
ATOM      3  C   LIG    1       -0.967  -4.782   0.102  0.00  0.00    -0.110 A 
ATOM      4  C   LIG    1       -2.203  -4.171  -0.003  0.00  0.00    +0.040 A 
ATOM      5  C   LIG    1       -2.288  -2.798  -0.129  0.00  0.00    +0.020 A 
ATOM      6  C   LIG    1       -1.130  -2.032  -0.150  0.00  0.00    +0.140 A 
ATOM      7  C   LIG    1        0.110  -2.649  -0.049  0.00  0.00    -0.010 A 
ATOM      8  C   LIG    1        0.188  -4.022   0.082  0.00  0.00    +0.040 A 
BRANCH   6   9
ATOM      9  N   LIG    1       -1.212  -0.641  -0.278  0.00  0.00    -0.670 N 
ATOM     10  H   LIG    1       -0.536  -0.159  -0.780  0.00  0.00    +0.410 HD
ATOM     11  C   LIG    1       -2.231   0.030   0.295  0.00  0.00    +0.540 C 
ATOM     12  O   LIG    1       -3.121  -0.579   0.850  0.00  0.00    -0.520 OA
BRANCH  11  13
ATOM     13  C   LIG    1       -2.264   1.536   0.247  0.00  0.00    -0.070 C 
ATOM     14  C   LIG    1       -2.061   2.289   1.563  0.00  0.00    +0.060 C 
ATOM     15  C   LIG    1       -3.447   2.238   0.916  0.00  0.00    +0.080 C 
ENDBRANCH  11  13
ENDBRANCH   6   9
ENDBRANCH   1   3
BRANCH   1  17
ATOM     16  C   LIG    1        0.236  -8.050  -1.011  0.00  0.00    +0.610 C 
ATOM     17  N   LIG    1        0.242  -6.779  -0.562  0.00  0.00    -0.710 N 
ATOM     18  H   LIG    1        0.988  -6.194  -0.770  0.00  0.00    +0.410 HD
ATOM     19  O   LIG    1       -0.698  -8.782  -0.751  0.00  0.00    -0.530 OA
BRANCH  16  23
ATOM     20  C   LIG    1        3.295 -11.008  -3.765  0.00  0.00    +0.160 C 
ATOM     21  C   LIG    1        2.686  -9.851  -3.015  0.00  0.00    +0.010 A 
ATOM     22  C   LIG    1        1.505  -9.855  -2.353  0.00  0.00    -0.020 A 
ATOM     23  C   LIG    1        1.366  -8.552  -1.819  0.00  0.00    -0.020 A 
ATOM     24  N   LIG    1        2.439  -7.874  -2.175  0.00  0.00    -0.260 NA
ATOM     25  N   LIG    1        3.219  -8.618  -2.874  0.00  0.00    -0.270 N 
BRANCH  25  26
ATOM     26  C   LIG    1        4.502  -8.191  -3.437  0.00  0.00    +0.170 C 
ATOM     27  C   LIG    1        4.406  -8.163  -4.963  0.00  0.00    +0.050 C 
ATOM     28  C   LIG    1        5.597  -9.172  -3.013  0.00  0.00    +0.060 C 
ATOM     29  C   LIG    1        4.844  -6.791  -2.921  0.00  0.00    +0.070 C 
ENDBRANCH  25  26
ENDBRANCH  16  23
ENDBRANCH   1  17
TORSDOF 6
