REMARK  Name = ZINCtV000002KVzc.0
REMARK                            x       y       z     vdW  Elec       q    Type
REMARK                         _______ _______ _______ _____ _____    ______ ____
ROOT
ATOM      1  C   LIG    1        1.409   5.084   0.091  0.00  0.00    +0.190 A 
ATOM      2  N   LIG    1        0.993   6.198   0.644  0.00  0.00    -0.470 NA
ATOM      3  C   LIG    1        0.977   7.109  -0.344  0.00  0.00    +0.190 A 
ATOM      4  N   LIG    1        1.378   6.514  -1.428  0.00  0.00    -0.380 NA
ATOM      5  O   LIG    1        1.637   5.352  -1.198  0.00  0.00    +0.080 OA
ENDROOT
BRANCH   1   6
ATOM      6  C   LIG    1        1.601   3.757   0.780  0.00  0.00    +0.200 C 
BRANCH   6  10
ATOM      7  C   LIG    1       -0.122   2.401   3.551  0.00  0.00    -0.010 C 
ATOM      8  C   LIG    1        0.970   1.685   2.753  0.00  0.00    +0.030 C 
ATOM      9  C   LIG    1        0.533   1.557   1.292  0.00  0.00    +0.050 C 
ATOM     10  C   LIG    1        0.303   2.951   0.705  0.00  0.00    +0.000 C 
ATOM     11  C   LIG    1       -0.789   3.667   1.502  0.00  0.00    +0.030 C 
ATOM     12  C   LIG    1       -0.352   3.795   2.963  0.00  0.00    +0.040 C 
BRANCH   7  14
ATOM     13  F   LIG    1        1.502   3.267   5.080  0.00  0.00    -0.180 F 
ATOM     14  C   LIG    1        0.315   2.530   5.011  0.00  0.00    +0.450 C 
ATOM     15  F   LIG    1        0.526   1.255   5.549  0.00  0.00    -0.180 F 
ATOM     16  F   LIG    1       -0.683   3.184   5.741  0.00  0.00    -0.180 F 
ENDBRANCH   7  14
ENDBRANCH   6  10
ENDBRANCH   1   6
BRANCH   3  17
ATOM     17  C   LIG    1        0.571   8.555  -0.219  0.00  0.00    +0.210 C 
BRANCH  17  18
ATOM     18  C   LIG    1       -0.597   8.829  -1.131  0.00  0.00    -0.080 A 
ATOM     19  C   LIG    1       -0.524   8.490  -2.469  0.00  0.00    +0.020 A 
ATOM     20  C   LIG    1       -1.597   8.737  -3.305  0.00  0.00    +0.000 A 
ATOM     21  C   LIG    1       -2.739   9.334  -2.805  0.00  0.00    +0.010 A 
ATOM     22  C   LIG    1       -2.810   9.678  -1.468  0.00  0.00    +0.010 A 
ATOM     23  C   LIG    1       -1.739   9.426  -0.631  0.00  0.00    +0.030 A 
ENDBRANCH  17  18
BRANCH  17  24
ATOM     24  C   LIG    1        1.729   9.438  -0.606  0.00  0.00    -0.080 A 
ATOM     25  C   LIG    1        2.365   9.251  -1.818  0.00  0.00    +0.020 A 
ATOM     26  C   LIG    1        3.425  10.064  -2.175  0.00  0.00    +0.000 A 
ATOM     27  C   LIG    1        3.854  11.058  -1.315  0.00  0.00    +0.010 A 
ATOM     28  C   LIG    1        3.221  11.241  -0.100  0.00  0.00    +0.010 A 
ATOM     29  C   LIG    1        2.158  10.431   0.255  0.00  0.00    +0.030 A 
ENDBRANCH  17  24
ENDBRANCH   3  17
TORSDOF 6
