REMARK  Name = ZINCvU00000007PF.0
REMARK                            x       y       z     vdW  Elec       q    Type
REMARK                         _______ _______ _______ _____ _____    ______ ____
ROOT
ATOM      1  O   LIG    1        2.771  -1.467  -3.151  0.00  0.00    -0.400 OA
ATOM      2  C   LIG    1        3.535  -0.682  -2.630  0.00  0.00    +0.410 C 
ENDROOT
BRANCH   2   3
ATOM      3  C   LIG    1        3.703   0.663  -3.195  0.00  0.00    -0.180 A 
ATOM      4  C   LIG    1        4.651   1.540  -2.657  0.00  0.00    +0.120 A 
ATOM      5  C   LIG    1        4.803   2.800  -3.193  0.00  0.00    -0.080 A 
ATOM      6  C   LIG    1        4.019   3.205  -4.263  0.00  0.00    +0.110 A 
ATOM      7  C   LIG    1        3.079   2.350  -4.804  0.00  0.00    -0.070 A 
ATOM      8 CL   LIG    1        5.979   3.888  -2.524  0.00  0.00    -0.060 Cl
ATOM      9  C   LIG    1        2.917   1.075  -4.284  0.00  0.00    +0.200 A 
BRANCH   9  10
ATOM     10  O   LIG    1        1.998   0.233  -4.819  0.00  0.00    -0.270 OA
BRANCH  10  11
ATOM     11  C   LIG    1        1.235   0.722  -5.924  0.00  0.00    +0.250 C 
BRANCH  11  12
ATOM     12  C   LIG    1        0.273  -0.344  -6.381  0.00  0.00    -0.100 A 
ATOM     13  C   LIG    1        0.657  -1.250  -7.352  0.00  0.00    +0.030 A 
ATOM     14  C   LIG    1       -0.224  -2.231  -7.768  0.00  0.00    +0.010 A 
ATOM     15  C   LIG    1       -1.492  -2.299  -7.221  0.00  0.00    +0.020 A 
ATOM     16  C   LIG    1       -1.877  -1.389  -6.255  0.00  0.00    +0.010 A 
ATOM     17  C   LIG    1       -0.994  -0.411  -5.835  0.00  0.00    +0.030 A 
ENDBRANCH  11  12
ENDBRANCH  10  11
ENDBRANCH   9  10
ENDBRANCH   2   3
BRANCH   2  18
ATOM     18  C   LIG    1        4.312  -1.086  -1.404  0.00  0.00    +0.110 C 
ATOM     19  O   LIG    1        3.676  -1.962  -0.469  0.00  0.00    -0.290 OA
ATOM     20  C   LIG    1        3.801  -0.603  -0.045  0.00  0.00    +0.210 C 
BRANCH  20  21
ATOM     21  C   LIG    1        2.555   0.244  -0.024  0.00  0.00    -0.120 A 
ATOM     22  C   LIG    1        2.656   1.621  -0.019  0.00  0.00    +0.110 A 
ATOM     23  C   LIG    1        1.512   2.399   0.001  0.00  0.00    -0.120 A 
ATOM     24  C   LIG    1        0.266   1.799   0.016  0.00  0.00    +0.100 A 
ATOM     25  C   LIG    1        0.160   0.421   0.012  0.00  0.00    -0.200 A 
ATOM     26  C   LIG    1       -1.203  -0.223   0.036  0.00  0.00    +0.300 C 
ATOM     27  O   LIG    1       -1.084  -1.596  -0.348  0.00  0.00    -0.380 OA
ATOM     28  C   LIG    1       -0.042  -2.286   0.353  0.00  0.00    +0.440 C 
ATOM     29  O   LIG    1        1.215  -1.717  -0.024  0.00  0.00    -0.300 OA
ATOM     30 BR   LIG    1        1.652   4.285   0.006  0.00  0.00    -0.040 Br
ATOM     31  C   LIG    1        1.305  -0.360  -0.010  0.00  0.00    +0.180 A 
ENDBRANCH  20  21
ENDBRANCH   2  18
TORSDOF 6
