REMARK  Name = ZINCrg00001JduSK.0
REMARK                            x       y       z     vdW  Elec       q    Type
REMARK                         _______ _______ _______ _____ _____    ______ ____
ROOT
ATOM      1  C   LIG    1        1.064   3.734   3.109  0.00  0.00    +0.250 C 
ATOM      2  C   LIG    1        1.463   5.179   3.433  0.00  0.00    +0.310 C 
ATOM      3  N   LIG    1        1.618   5.309   4.888  0.00  0.00    -0.600 N 
ATOM      4  C   LIG    1        2.539   4.400   5.586  0.00  0.00    +0.240 C 
ATOM      5  C   LIG    1        2.141   2.955   5.263  0.00  0.00    +0.300 C 
ATOM      6  C   LIG    1        3.971   4.660   5.115  0.00  0.00    +0.040 C 
ATOM      7  C   LIG    1        0.929   6.244   5.571  0.00  0.00    +0.570 C 
ATOM      8  O   LIG    1        1.138   6.408   6.757  0.00  0.00    -0.510 OA
ATOM      9  N   LIG    1        1.985   2.825   3.807  0.00  0.00    -0.600 N 
ATOM     10  C   LIG    1        2.674   1.890   3.124  0.00  0.00    +0.560 C 
ATOM     11  O   LIG    1        2.596   1.842   1.912  0.00  0.00    -0.490 OA
ENDROOT
BRANCH   7  12
ATOM     12  C   LIG    1       -0.084   7.073   4.876  0.00  0.00    -0.090 A 
ATOM     13  C   LIG    1       -0.943   6.511   3.928  0.00  0.00    -0.020 A 
ATOM     14  C   LIG    1       -1.876   7.319   3.307  0.00  0.00    +0.270 A 
ATOM     15  N   LIG    1       -1.954   8.604   3.592  0.00  0.00    -0.470 NA
ATOM     16  C   LIG    1       -1.159   9.175   4.475  0.00  0.00    +0.280 A 
ATOM     17  C   LIG    1       -0.202   8.439   5.147  0.00  0.00    +0.030 A 
ENDBRANCH   7  12
BRANCH  10  18
ATOM     18  C   LIG    1        3.526   0.920   3.851  0.00  0.00    -0.080 A 
ATOM     19  C   LIG    1        3.113   0.372   5.069  0.00  0.00    +0.000 A 
ATOM     20  C   LIG    1        3.937  -0.533   5.710  0.00  0.00    +0.270 A 
ATOM     21  N   LIG    1        5.101  -0.872   5.194  0.00  0.00    -0.470 NA
ATOM     22  C   LIG    1        5.531  -0.375   4.051  0.00  0.00    +0.280 A 
ATOM     23  C   LIG    1        4.769   0.532   3.340  0.00  0.00    +0.030 A 
ENDBRANCH  10  18
BRANCH   1  24
ATOM     24  C   LIG    1        1.157   3.504   1.623  0.00  0.00    +0.480 C 
ATOM     25  O   LIG    1        2.162   3.810   1.026  0.00  0.00    -0.480 OA
BRANCH  24  27
ATOM     26  C   LIG    1        0.282   2.768  -0.468  0.00  0.00    +0.270 C 
ATOM     27  O   LIG    1        0.122   2.960   0.962  0.00  0.00    -0.360 OA
ENDBRANCH  24  27
ENDBRANCH   1  24
TORSDOF 4
