REMARK  Name = ZINCpk00000KfLdR.0
REMARK                            x       y       z     vdW  Elec       q    Type
REMARK                         _______ _______ _______ _____ _____    ______ ____
ROOT
ATOM      1  C   LIG    1        5.865  -2.145  -0.065  0.00  0.00    +0.300 C 
ENDROOT
BRANCH   1   2
ATOM      2  N   LIG    1        5.897  -0.680  -0.058  0.00  0.00    -0.710 N 
ATOM      3  H   LIG    1        6.748  -0.214  -0.063  0.00  0.00    +0.410 HD
BRANCH   2   4
ATOM      4  C   LIG    1        4.724   0.032  -0.043  0.00  0.00    +0.640 A 
ATOM      5  N   LIG    1        3.594  -0.628  -0.036  0.00  0.00    -0.580 NA
ATOM      6  C   LIG    1        2.400   0.011  -0.021  0.00  0.00    +0.200 A 
ATOM      7  C   LIG    1        1.193  -0.693  -0.013  0.00  0.00    +0.010 A 
ATOM      8  C   LIG    1        0.002  -0.004   0.002  0.00  0.00    +0.070 A 
ATOM      9  C   LIG    1       -0.017   1.385   0.010  0.00  0.00    -0.030 A 
ATOM     10  C   LIG    1        1.159   2.102   0.002  0.00  0.00    +0.100 A 
ATOM     11  C   LIG    1        2.377   1.425  -0.013  0.00  0.00    -0.230 A 
ATOM     12  C   LIG    1        3.661   2.139  -0.022  0.00  0.00    +0.570 A 
ATOM     13  O   LIG    1        3.707   3.355  -0.015  0.00  0.00    -0.510 OA
ATOM     14  N   LIG    1        4.792   1.395  -0.037  0.00  0.00    -0.670 N 
ATOM     15  H   LIG    1        5.656   1.834  -0.043  0.00  0.00    +0.410 HD
ENDBRANCH   2   4
ENDBRANCH   1   2
BRANCH   1  16
ATOM     16  C   LIG    1        7.295  -2.687  -0.081  0.00  0.00    +0.010 C 
BRANCH  16  17
ATOM     17  C   LIG    1        7.262  -4.216  -0.088  0.00  0.00    +0.320 C 
BRANCH  17  22
ATOM     18  C   LIG    1       10.690  -5.516   0.507  0.00  0.00    +0.120 C 
ATOM     19  N   LIG    1       10.558  -5.465  -0.959  0.00  0.00    -0.720 N 
ATOM     20  H   LIG    1       11.230  -5.720  -1.610  0.00  0.00    +0.440 HD
ATOM     21  C   LIG    1        9.322  -5.001  -1.218  0.00  0.00    +0.700 C 
ATOM     22  N   LIG    1        8.632  -4.735  -0.104  0.00  0.00    -0.580 N 
ATOM     23  O   LIG    1        8.883  -4.839  -2.340  0.00  0.00    -0.540 OA
ATOM     24  C   LIG    1       10.928  -6.953   0.976  0.00  0.00    +0.090 C 
ATOM     25  C   LIG    1        9.350  -5.009   1.003  0.00  0.00    +0.530 C 
ATOM     26  O   LIG    1        8.998  -4.877   2.156  0.00  0.00    -0.460 OA
BRANCH  18  28
ATOM     27  C   LIG    1       13.143  -5.065   0.366  0.00  0.00    +0.050 C 
ATOM     28  C   LIG    1       11.821  -4.602   0.982  0.00  0.00    +0.040 C 
ENDBRANCH  18  28
ENDBRANCH  17  22
ENDBRANCH  16  17
ENDBRANCH   1  16
TORSDOF 6
