REMARK  Name = ZINCrH000004mRB1.0
REMARK                            x       y       z     vdW  Elec       q    Type
REMARK                         _______ _______ _______ _____ _____    ______ ____
ROOT
ATOM      1  S   LIG    1        2.055   2.412  -0.292  0.00  0.00    +2.700 S 
ATOM      2  O   LIG    1        2.861   1.491  -1.014  0.00  0.00    -0.930 OA
ATOM      3  O   LIG    1        2.299   3.812  -0.276  0.00  0.00    -0.960 OA
ENDROOT
BRANCH   1   9
ATOM      4  C   LIG    1       -0.056   0.934  -1.206  0.00  0.00    +0.210 A 
ATOM      5  C   LIG    1       -1.352   0.767  -1.669  0.00  0.00    -0.060 A 
ATOM      6  C   LIG    1       -2.183   1.862  -1.808  0.00  0.00    +0.120 A 
ATOM      7  C   LIG    1       -1.719   3.130  -1.484  0.00  0.00    +0.090 A 
ATOM      8  C   LIG    1       -0.423   3.296  -1.015  0.00  0.00    +0.140 A 
ATOM      9  C   LIG    1        0.408   2.201  -0.882  0.00  0.00    -0.690 A 
BRANCH   7  10
ATOM     10  N   LIG    1       -2.562   4.241  -1.624  0.00  0.00    -0.670 N 
ATOM     11  H   LIG    1       -2.191   5.103  -1.868  0.00  0.00    +0.410 HD
ATOM     12  C   LIG    1       -3.887   4.112  -1.419  0.00  0.00    +0.510 C 
ATOM     13  O   LIG    1       -4.340   3.057  -1.028  0.00  0.00    -0.530 OA
ATOM     14  C   LIG    1       -4.807   5.278  -1.675  0.00  0.00    +0.110 C 
ENDBRANCH   7  10
BRANCH   4  16
ATOM     15  C   LIG    1        0.259  -1.401  -1.527  0.00  0.00    +0.250 C 
ATOM     16  O   LIG    1        0.762  -0.144  -1.069  0.00  0.00    -0.300 OA
ENDBRANCH   4  16
ENDBRANCH   1   9
BRANCH   1  17
ATOM     17  N   LIG    1        2.078   1.916   1.287  0.00  0.00    -1.110 NA
ATOM     18  H   LIG    1        2.195   2.565   1.998  0.00  0.00    +0.420 HD
BRANCH  17  19
ATOM     19  C   LIG    1        1.921   0.495   1.611  0.00  0.00    +0.300 C 
BRANCH  19  20
ATOM     20  C   LIG    1        3.280  -0.150   1.711  0.00  0.00    -0.090 A 
ATOM     21  C   LIG    1        4.325   0.529   2.309  0.00  0.00    +0.010 A 
ATOM     22  C   LIG    1        5.570  -0.065   2.404  0.00  0.00    +0.000 A 
ATOM     23  C   LIG    1        5.771  -1.334   1.894  0.00  0.00    +0.000 A 
ATOM     24  C   LIG    1        4.727  -2.010   1.291  0.00  0.00    +0.000 A 
ATOM     25  C   LIG    1        3.482  -1.418   1.199  0.00  0.00    +0.020 A 
ENDBRANCH  19  20
BRANCH  19  26
ATOM     26  C   LIG    1        1.190   0.354   2.947  0.00  0.00    +0.030 C 
BRANCH  26  27
ATOM     27  C   LIG    1       -0.245   0.864   2.800  0.00  0.00    -0.020 C 
ATOM     28  C   LIG    1       -1.017   0.596   4.093  0.00  0.00    +0.010 C 
ATOM     29  C   LIG    1       -0.225   2.369   2.520  0.00  0.00    +0.010 C 
ENDBRANCH  26  27
ENDBRANCH  19  26
ENDBRANCH  17  19
ENDBRANCH   1  17
TORSDOF 8
