REMARK  Name = ZINCnE000001Lmy1.0
REMARK                            x       y       z     vdW  Elec       q    Type
REMARK                         _______ _______ _______ _____ _____    ______ ____
ROOT
ATOM      1  C   LIG    1       -3.681  -1.173   0.044  0.00  0.00    +0.310 C 
ENDROOT
BRANCH   1   5
ATOM      2  C   LIG    1       -3.146  -4.911   2.044  0.00  0.00    +0.110 A 
ATOM      3  C   LIG    1       -4.286  -4.155   2.277  0.00  0.00    -0.020 A 
ATOM      4  C   LIG    1       -4.457  -2.947   1.629  0.00  0.00    +0.060 A 
ATOM      5  C   LIG    1       -3.493  -2.491   0.749  0.00  0.00    -0.110 A 
ATOM      6  C   LIG    1       -2.359  -3.245   0.511  0.00  0.00    +0.050 A 
ATOM      7  C   LIG    1       -2.181  -4.451   1.160  0.00  0.00    -0.090 A 
BRANCH   2   9
ATOM      8  C   LIG    1       -1.779  -6.825   2.391  0.00  0.00    +0.230 C 
ATOM      9  O   LIG    1       -2.976  -6.100   2.680  0.00  0.00    -0.320 OA
ENDBRANCH   2   9
ENDBRANCH   1   5
BRANCH   1  10
ATOM     10  N   LIG    1       -2.402  -0.460  -0.009  0.00  0.00    -0.690 N 
ATOM     11  H   LIG    1       -1.863  -0.490  -0.815  0.00  0.00    +0.390 HD
ATOM     12  C   LIG    1       -1.975   0.238   1.062  0.00  0.00    +0.550 C 
ATOM     13  O   LIG    1       -2.690   0.352   2.038  0.00  0.00    -0.510 OA
BRANCH  12  14
ATOM     14  C   LIG    1       -0.637   0.865   1.049  0.00  0.00    -0.100 A 
ATOM     15  C   LIG    1        0.187   0.737  -0.071  0.00  0.00    +0.050 A 
ATOM     16  C   LIG    1        1.433   1.329  -0.079  0.00  0.00    +0.020 A 
ATOM     17  C   LIG    1        1.869   2.046   1.022  0.00  0.00    +0.030 A 
ATOM     18  C   LIG    1        1.061   2.173   2.137  0.00  0.00    +0.040 A 
ATOM     19  C   LIG    1       -0.188   1.585   2.159  0.00  0.00    -0.050 A 
ATOM     20 BR   LIG    1       -1.292   1.760   3.684  0.00  0.00    -0.010 Br
ENDBRANCH  12  14
ENDBRANCH   1  10
BRANCH   1  21
ATOM     21  C   LIG    1       -4.185  -1.423  -1.379  0.00  0.00    -0.050 C 
BRANCH  21  22
ATOM     22  C   LIG    1       -4.505  -0.105  -2.037  0.00  0.00    +0.490 C 
ATOM     23  O   LIG    1       -4.828  -0.074  -3.212  0.00  0.00    -0.700 OA
ATOM     24  O   LIG    1       -4.442   0.929  -1.394  0.00  0.00    -0.680 OA
ENDBRANCH  21  22
ENDBRANCH   1  21
TORSDOF 6
