REMARK  Name = ZINCrH00000No56D.0
REMARK                            x       y       z     vdW  Elec       q    Type
REMARK                         _______ _______ _______ _____ _____    ______ ____
ROOT
ATOM      1  C   LIG    1       -6.082  -1.066   0.913  0.00  0.00    +0.380 A 
ATOM      2  C   LIG    1       -4.904  -0.392   0.605  0.00  0.00    -0.170 A 
ATOM      3  C   LIG    1       -4.162   0.149   1.651  0.00  0.00    +0.460 A 
ATOM      4  N   LIG    1       -4.599  -0.002   2.900  0.00  0.00    -0.590 NA
ATOM      5  C   LIG    1       -5.723  -0.643   3.150  0.00  0.00    +0.420 A 
ATOM      6  N   LIG    1       -6.453  -1.169   2.188  0.00  0.00    -0.590 NA
ENDROOT
BRANCH   1  10
ATOM      7  C   LIG    1       -9.284  -1.643  -0.206  0.00  0.00    +0.000 C 
ATOM      8  C   LIG    1       -8.701  -1.053  -1.517  0.00  0.00    +0.040 C 
ATOM      9  C   LIG    1       -7.296  -0.591  -1.056  0.00  0.00    +0.200 C 
ATOM     10  N   LIG    1       -6.857  -1.623  -0.093  0.00  0.00    -0.470 N 
ATOM     11  C   LIG    1       -8.051  -2.284   0.465  0.00  0.00    +0.230 C 
BRANCH   7  13
ATOM     12  C   LIG    1      -11.522  -2.590   0.023  0.00  0.00    +0.010 C 
ATOM     13  C   LIG    1      -10.328  -2.685  -0.509  0.00  0.00    -0.030 C 
ENDBRANCH   7  13
ENDBRANCH   1  10
BRANCH   5  14
ATOM     14  C   LIG    1       -6.183  -0.784   4.578  0.00  0.00    +0.030 C 
ATOM     15  C   LIG    1       -5.426   0.009   5.645  0.00  0.00    +0.060 C 
ATOM     16  C   LIG    1       -5.251  -1.508   5.551  0.00  0.00    +0.050 C 
ENDBRANCH   5  14
BRANCH   3  17
ATOM     17  N   LIG    1       -2.982   0.830   1.397  0.00  0.00    -0.700 N 
ATOM     18  H   LIG    1       -2.470   1.204   2.131  0.00  0.00    +0.410 HD
BRANCH  17  19
ATOM     19  C   LIG    1       -2.507   0.985   0.019  0.00  0.00    +0.350 C 
BRANCH  19  20
ATOM     20  C   LIG    1       -1.213   1.757   0.017  0.00  0.00    +0.140 A 
ATOM     21  C   LIG    1       -0.013   1.076   0.008  0.00  0.00    -0.050 A 
ATOM     22  C   LIG    1        1.176   1.794   0.001  0.00  0.00    +0.110 A 
ATOM     23  C   LIG    1        1.112   3.176   0.008  0.00  0.00    -0.030 A 
ATOM     24  C   LIG    1       -0.132   3.795   0.023  0.00  0.00    +0.330 A 
ATOM     25  N   LIG    1       -1.242   3.076   0.030  0.00  0.00    -0.530 NA
BRANCH  24  26
ATOM     26  O   LIG    1       -0.208   5.149   0.030  0.00  0.00    -0.310 OA
BRANCH  26  27
ATOM     27  C   LIG    1       -1.516   5.726   0.045  0.00  0.00    +0.210 C 
ATOM     28  C   LIG    1       -1.401   7.251   0.052  0.00  0.00    +0.070 C 
ENDBRANCH  26  27
ENDBRANCH  24  26
ENDBRANCH  19  20
ENDBRANCH  17  19
ENDBRANCH   3  17
TORSDOF 8
