REMARK  Name = ZINCrD0000071Xbf.0
REMARK                            x       y       z     vdW  Elec       q    Type
REMARK                         _______ _______ _______ _____ _____    ______ ____
ROOT
ATOM      1  N   LIG    1        2.724   4.737  -0.183  0.00  0.00    -0.670 N 
ATOM      2  H   LIG    1        3.217   4.188   0.447  0.00  0.00    +0.420 HD
ATOM      3  C   LIG    1        1.392   4.580  -0.315  0.00  0.00    +0.530 C 
ATOM      4  O   LIG    1        0.763   5.322  -1.039  0.00  0.00    -0.500 OA
ENDROOT
BRANCH   1   9
ATOM      5  C   LIG    1        3.451   7.840  -2.038  0.00  0.00    -0.110 A 
ATOM      6  C   LIG    1        4.745   7.574  -2.487  0.00  0.00    +0.070 A 
ATOM      7  C   LIG    1        5.354   6.376  -2.171  0.00  0.00    +0.030 A 
ATOM      8  C   LIG    1        4.688   5.439  -1.403  0.00  0.00    +0.030 A 
ATOM      9  C   LIG    1        3.396   5.692  -0.955  0.00  0.00    +0.130 A 
ATOM     10  C   LIG    1        2.776   6.891  -1.268  0.00  0.00    +0.100 A 
BRANCH   5  11
ATOM     11  C   LIG    1        2.797   9.121  -2.375  0.00  0.00    +0.510 C 
ATOM     12  O   LIG    1        1.671   9.350  -1.982  0.00  0.00    -0.500 OA
BRANCH  11  13
ATOM     13  O   LIG    1        3.450  10.035  -3.118  0.00  0.00    -0.350 OA
BRANCH  13  15
ATOM     14  C   LIG    1        3.640  12.178  -4.259  0.00  0.00    +0.070 C 
ATOM     15  C   LIG    1        2.747  11.271  -3.411  0.00  0.00    +0.200 C 
ENDBRANCH  13  15
ENDBRANCH  11  13
ENDBRANCH   5  11
ENDBRANCH   1   9
BRANCH   3  16
ATOM     16  C   LIG    1        0.685   3.483   0.439  0.00  0.00    +0.010 C 
ATOM     17  C   LIG    1        1.214   2.093   0.018  0.00  0.00    +0.070 C 
ATOM     18  C   LIG    1       -0.014   1.209   0.029  0.00  0.00    +0.520 C 
ATOM     19  N   LIG    1       -1.126   1.964   0.030  0.00  0.00    -0.620 N 
ATOM     20  O   LIG    1        0.003  -0.004   0.032  0.00  0.00    -0.520 OA
ATOM     21  C   LIG    1       -0.800   3.395   0.020  0.00  0.00    +0.300 C 
BRANCH  19  22
ATOM     22  C   LIG    1       -2.489   1.427   0.044  0.00  0.00    +0.260 C 
ATOM     23  C   LIG    1       -2.702   0.636   1.351  0.00  0.00    +0.010 C 
ATOM     24  C   LIG    1       -4.180   0.528   1.609  0.00  0.00    +0.000 C 
ATOM     25  C   LIG    1       -4.782  -0.778   1.057  0.00  0.00    +0.000 C 
ATOM     26  C   LIG    1       -4.234  -1.147  -0.335  0.00  0.00    +0.000 C 
ATOM     27  C   LIG    1       -4.118   0.048  -1.242  0.00  0.00    +0.030 C 
ATOM     28  C   LIG    1       -2.683   0.603  -1.141  0.00  0.00    -0.000 C 
ENDBRANCH  19  22
ENDBRANCH   3  16
TORSDOF 6
