REMARK  Name = ZINCtV00000tmr6y.0
REMARK                            x       y       z     vdW  Elec       q    Type
REMARK                         _______ _______ _______ _____ _____    ______ ____
ROOT
ATOM      1  C   LIG    1       -0.013   1.086   0.008  0.00  0.00    +0.040 C 
ATOM      2  C   LIG    1       -0.753   1.593  -1.232  0.00  0.00    +0.050 C 
ATOM      3  C   LIG    1       -0.773   3.123  -1.223  0.00  0.00    +0.000 C 
ATOM      4  C   LIG    1       -1.490   3.616   0.036  0.00  0.00    +0.020 C 
ATOM      5  C   LIG    1       -0.750   3.109   1.275  0.00  0.00    +0.050 C 
ATOM      6  C   LIG    1       -0.729   1.579   1.267  0.00  0.00    +0.110 C 
ENDROOT
BRANCH   6   7
ATOM      7  C   LIG    1        0.000   1.080   2.488  0.00  0.00    +0.090 A 
ATOM      8  N   LIG    1        1.221   1.349   2.757  0.00  0.00    -0.410 NA
ATOM      9  C   LIG    1        1.744   0.837   3.888  0.00  0.00    +0.080 A 
ATOM     10  C   LIG    1        3.040   0.974   4.423  0.00  0.00    +0.070 A 
ATOM     11  C   LIG    1        3.372   0.361   5.593  0.00  0.00    +0.020 A 
ATOM     12  C   LIG    1        2.443  -0.407   6.280  0.00  0.00    +0.040 A 
ATOM     13  C   LIG    1        1.169  -0.558   5.781  0.00  0.00    +0.060 A 
ATOM     14  C   LIG    1        0.812   0.061   4.586  0.00  0.00    -0.180 A 
ATOM     15  S   LIG    1       -0.698   0.079   3.680  0.00  0.00    +0.080 S 
ENDBRANCH   6   7
BRANCH   1  17
ATOM     16  O   LIG    1        1.796   2.303   0.903  0.00  0.00    -0.440 OA
ATOM     17  C   LIG    1        1.401   1.607  -0.003  0.00  0.00    +0.450 C 
BRANCH  17  18
ATOM     18  O   LIG    1        2.222   1.300  -1.019  0.00  0.00    -0.360 OA
BRANCH  18  19
ATOM     19  C   LIG    1        3.570   1.837  -0.963  0.00  0.00    +0.280 C 
BRANCH  19  20
ATOM     20  C   LIG    1        4.340   1.390  -2.179  0.00  0.00    -0.080 A 
ATOM     21  C   LIG    1        3.744   0.601  -3.114  0.00  0.00    +0.040 A 
ATOM     22  C   LIG    1        4.439   0.179  -4.246  0.00  0.00    +0.010 A 
ATOM     23  C   LIG    1        5.735   0.541  -4.447  0.00  0.00    +0.030 A 
ATOM     24  C   LIG    1        6.385   1.354  -3.503  0.00  0.00    -0.050 A 
ATOM     25  C   LIG    1        7.723   1.748  -3.677  0.00  0.00    +0.030 A 
ATOM     26  C   LIG    1        8.320   2.535  -2.741  0.00  0.00    +0.000 A 
ATOM     27  C   LIG    1        7.624   2.958  -1.610  0.00  0.00    +0.010 A 
ATOM     28  C   LIG    1        6.328   2.596  -1.408  0.00  0.00    +0.020 A 
ATOM     29  C   LIG    1        5.676   1.789  -2.356  0.00  0.00    -0.040 A 
ENDBRANCH  19  20
ENDBRANCH  18  19
ENDBRANCH  17  18
ENDBRANCH   1  17
TORSDOF 5
