REMARK  Name = ZINCkj000005m3ni.1
REMARK                            x       y       z     vdW  Elec       q    Type
REMARK                         _______ _______ _______ _____ _____    ______ ____
ROOT
ATOM      1  O   LIG    1        2.845  -1.751  -1.855  0.00  0.00    -0.500 OA
ATOM      2  C   LIG    1        3.014  -0.559  -1.705  0.00  0.00    +0.500 C 
ATOM      3  N   LIG    1        2.003   0.212  -1.258  0.00  0.00    -0.630 N 
ATOM      4  C   LIG    1        0.661  -0.348  -1.043  0.00  0.00    +0.320 C 
ATOM      5  C   LIG    1        0.189   0.045   0.361  0.00  0.00    +0.270 C 
ATOM      6  N   LIG    1        0.268   1.503   0.512  0.00  0.00    -0.500 N 
ATOM      7  C   LIG    1        1.667   1.940   0.429  0.00  0.00    +0.220 C 
ATOM      8  H   LIG    1       -0.113   1.768   1.408  0.00  0.00    +0.440 HD
ATOM      9  H   LIG    1       -0.266   1.945  -0.221  0.00  0.00    +0.430 HD
ATOM     10  C   LIG    1        2.212   1.640  -0.971  0.00  0.00    +0.320 C 
ENDROOT
BRANCH   7  11
ATOM     11  C   LIG    1        1.748   3.421   0.694  0.00  0.00    -0.150 A 
ATOM     12  C   LIG    1        0.790   4.270   0.171  0.00  0.00    +0.000 A 
ATOM     13  C   LIG    1        0.863   5.628   0.417  0.00  0.00    +0.040 A 
ATOM     14  C   LIG    1        1.897   6.139   1.179  0.00  0.00    +0.050 A 
ATOM     15  C   LIG    1        2.857   5.290   1.698  0.00  0.00    +0.040 A 
ATOM     16  C   LIG    1        2.783   3.932   1.455  0.00  0.00    +0.060 A 
ENDBRANCH   7  11
BRANCH   2  17
ATOM     17  C   LIG    1        4.352   0.058  -2.018  0.00  0.00    +0.230 C 
BRANCH  17  18
ATOM     18  C   LIG    1        4.216   0.985  -3.227  0.00  0.00    -0.050 C 
ATOM     19  C   LIG    1        4.224   0.245  -4.575  0.00  0.00    +0.020 C 
ATOM     20  C   LIG    1        5.089   1.397  -5.113  0.00  0.00    +0.020 C 
ATOM     21  C   LIG    1        5.542   1.630  -3.662  0.00  0.00    +0.040 C 
ENDBRANCH  17  18
BRANCH  17  22
ATOM     22  O   LIG    1        5.295  -0.974  -2.313  0.00  0.00    -0.530 OA
ATOM     23  H   LIG    1        5.051  -1.525  -3.069  0.00  0.00    +0.390 HD
ENDBRANCH  17  22
ENDBRANCH   2  17
TORSDOF 4
