REMARK  Name = ZINCvU0000000JXm.0
REMARK                            x       y       z     vdW  Elec       q    Type
REMARK                         _______ _______ _______ _____ _____    ______ ____
ROOT
ATOM      1  C   LIG    1        2.436   1.030   0.104  0.00  0.00    -0.110 A 
ATOM      2  C   LIG    1        2.504  -0.359   0.203  0.00  0.00    +0.090 A 
ATOM      3  C   LIG    1        3.732  -0.994   0.290  0.00  0.00    +0.120 A 
ATOM      4  C   LIG    1        4.898  -0.245   0.289  0.00  0.00    -0.110 A 
ATOM      5  C   LIG    1        6.337  -0.581   0.370  0.00  0.00    +0.580 C 
ATOM      6  N   LIG    1        7.046   0.562   0.325  0.00  0.00    -0.520 N 
ATOM      7  C   LIG    1        6.236   1.631   0.222  0.00  0.00    +0.580 C 
ATOM      8  O   LIG    1        6.596   2.789   0.161  0.00  0.00    -0.430 OA
ATOM      9  O   LIG    1        6.801  -1.699   0.461  0.00  0.00    -0.440 OA
ATOM     10  C   LIG    1        4.835   1.161   0.195  0.00  0.00    -0.140 A 
ATOM     11  C   LIG    1        3.608   1.793   0.103  0.00  0.00    +0.180 A 
ENDROOT
BRANCH   6  12
ATOM     12  C   LIG    1        8.445   0.629   0.377  0.00  0.00    +0.140 A 
ATOM     13  C   LIG    1        9.194  -0.535   0.484  0.00  0.00    +0.050 A 
ATOM     14  C   LIG    1       10.573  -0.467   0.535  0.00  0.00    +0.090 A 
ATOM     15  C   LIG    1       11.208   0.761   0.480  0.00  0.00    -0.040 A 
ATOM     16  C   LIG    1       10.464   1.924   0.374  0.00  0.00    -0.010 A 
ATOM     17 CL   LIG    1       11.265   3.463   0.305  0.00  0.00    -0.030 Cl
ATOM     18 CL   LIG    1       12.941   0.843   0.544  0.00  0.00    -0.040 Cl
ATOM     19  C   LIG    1        9.085   1.860   0.317  0.00  0.00    +0.060 A 
ENDBRANCH   6  12
BRANCH   1  22
ATOM     20  N   LIG    1       -0.011   0.966   0.007  0.00  0.00    -0.660 N 
ATOM     21  H   LIG    1        0.039  -0.003   0.004  0.00  0.00    +0.410 HD
ATOM     22  C   LIG    1        1.119   1.699   0.006  0.00  0.00    +0.560 C 
ATOM     23  O   LIG    1        1.058   2.911  -0.075  0.00  0.00    -0.500 OA
BRANCH  20  27
ATOM     24  C   LIG    1       -3.725   2.861   0.006  0.00  0.00    +0.130 A 
ATOM     25  C   LIG    1       -2.661   3.421  -0.685  0.00  0.00    -0.040 A 
ATOM     26  C   LIG    1       -1.430   2.793  -0.685  0.00  0.00    +0.080 A 
ATOM     27  C   LIG    1       -1.258   1.602   0.007  0.00  0.00    +0.110 A 
ATOM     28  C   LIG    1       -2.326   1.038   0.695  0.00  0.00    +0.060 A 
ATOM     29  C   LIG    1       -3.554   1.670   0.699  0.00  0.00    -0.050 A 
ATOM     30 CL   LIG    1       -4.887   0.970   1.564  0.00  0.00    -0.050 Cl
BRANCH  24  32
ATOM     31  C   LIG    1       -5.040   4.702  -0.727  0.00  0.00    +0.250 C 
ATOM     32  O   LIG    1       -4.936   3.480   0.006  0.00  0.00    -0.300 OA
ENDBRANCH  24  32
ENDBRANCH  20  27
ENDBRANCH   1  22
TORSDOF 4
