REMARK  Name = ZINCpk00000xI7Ry.0
REMARK                            x       y       z     vdW  Elec       q    Type
REMARK                         _______ _______ _______ _____ _____    ______ ____
ROOT
ATOM      1  C   LIG    1       -1.926   2.078  -6.668  0.00  0.00    +0.540 C 
ATOM      2  N   LIG    1       -2.111   1.547  -7.893  0.00  0.00    -0.720 N 
ATOM      3  H   LIG    1       -2.624   0.731  -7.995  0.00  0.00    +0.410 HD
ATOM      4  O   LIG    1       -1.285   3.099  -6.540  0.00  0.00    -0.520 OA
ENDROOT
BRANCH   1   6
ATOM      5  C   LIG    1       -4.001   1.761  -5.347  0.00  0.00    +0.100 C 
ATOM      6  C   LIG    1       -2.518   1.403  -5.457  0.00  0.00    +0.010 C 
BRANCH   6   7
ATOM      7  S   LIG    1       -1.650   1.963  -3.970  0.00  0.00    +0.110 S 
BRANCH   7   8
ATOM      8  C   LIG    1       -2.417   0.934  -2.763  0.00  0.00    +0.250 A 
ATOM      9  N   LIG    1       -3.341   0.047  -2.997  0.00  0.00    -0.280 NA
ATOM     10  N   LIG    1       -3.688  -0.550  -1.778  0.00  0.00    -0.540 N 
ATOM     11  H   LIG    1       -4.354  -1.244  -1.647  0.00  0.00    +0.460 HD
ATOM     12  C   LIG    1       -2.927   0.017  -0.819  0.00  0.00    +0.650 A 
ATOM     13  O   LIG    1       -2.950  -0.249   0.370  0.00  0.00    -0.550 OA
ATOM     14  N   LIG    1       -2.136   0.931  -1.415  0.00  0.00    -0.510 N 
BRANCH  14  15
ATOM     15  C   LIG    1       -1.150   1.781  -0.743  0.00  0.00    +0.210 C 
ATOM     16  C   LIG    1       -0.013   1.086   0.008  0.00  0.00    +0.040 C 
ATOM     17  C   LIG    1       -1.136   1.773   0.788  0.00  0.00    +0.070 C 
ENDBRANCH  14  15
ENDBRANCH   7   8
ENDBRANCH   6   7
ENDBRANCH   1   6
BRANCH   2  18
ATOM     18  C   LIG    1       -1.536   2.203  -9.069  0.00  0.00    +0.340 C 
BRANCH  18  19
ATOM     19  C   LIG    1       -1.885   1.415 -10.305  0.00  0.00    -0.110 A 
ATOM     20  C   LIG    1       -1.042   0.412 -10.745  0.00  0.00    +0.050 A 
ATOM     21  C   LIG    1       -1.360  -0.318 -11.875  0.00  0.00    +0.040 A 
ATOM     22  C   LIG    1       -2.522  -0.039 -12.576  0.00  0.00    +0.040 A 
ATOM     23  O   LIG    1       -3.055  -0.595 -13.702  0.00  0.00    -0.310 OA
ATOM     24  C   LIG    1       -4.026   0.356 -14.179  0.00  0.00    +0.440 C 
ATOM     25  O   LIG    1       -4.434   1.054 -12.987  0.00  0.00    -0.310 OA
ATOM     26  C   LIG    1       -3.370   0.976 -12.136  0.00  0.00    +0.030 A 
ATOM     27  C   LIG    1       -3.047   1.699 -11.000  0.00  0.00    +0.060 A 
ENDBRANCH  18  19
ENDBRANCH   2  18
TORSDOF 6
