REMARK  Name = ZINCpk00001AZiNR.0
REMARK                            x       y       z     vdW  Elec       q    Type
REMARK                         _______ _______ _______ _____ _____    ______ ____
ROOT
ATOM      1  N   LIG    1       -2.671   0.303  -0.324  0.00  0.00    -0.510 NA
ATOM      2  C   LIG    1       -2.042   0.741  -1.578  0.00  0.00    +0.180 C 
ATOM      3  C   LIG    1       -1.032   1.858  -1.267  0.00  0.00    +0.250 C 
ATOM      4  C   LIG    1       -0.163   1.386  -0.077  0.00  0.00    +0.040 C 
ATOM      5  C   LIG    1       -0.939   1.837   1.179  0.00  0.00    +0.050 C 
ATOM      6  C   LIG    1       -2.217   2.514   0.623  0.00  0.00    +0.240 C 
ATOM      7  N   LIG    1       -1.792   3.011  -0.722  0.00  0.00    -0.620 N 
ATOM      8  C   LIG    1       -2.045   4.199  -1.306  0.00  0.00    +0.630 C 
ATOM      9  O   LIG    1       -1.627   4.428  -2.426  0.00  0.00    -0.510 OA
ATOM     10  C   LIG    1       -3.282   1.427   0.398  0.00  0.00    +0.180 C 
ENDROOT
BRANCH   8  11
ATOM     11  C   LIG    1       -2.824   5.216  -0.592  0.00  0.00    -0.120 A 
ATOM     12  C   LIG    1       -3.153   6.458  -1.048  0.00  0.00    +0.090 A 
ATOM     13  N   LIG    1       -3.868   7.060  -0.092  0.00  0.00    -0.490 NA
ATOM     14  C   LIG    1       -3.982   6.251   0.927  0.00  0.00    +0.260 A 
ATOM     15  C   LIG    1       -2.783   7.043  -2.387  0.00  0.00    +0.180 C 
ATOM     16  O   LIG    1       -3.350   5.106   0.650  0.00  0.00    -0.180 OA
BRANCH  14  17
ATOM     17  C   LIG    1       -4.712   6.559   2.209  0.00  0.00    +0.050 C 
ATOM     18  C   LIG    1       -5.545   7.841   2.258  0.00  0.00    +0.080 C 
ATOM     19  C   LIG    1       -4.225   7.755   3.029  0.00  0.00    +0.060 C 
ENDBRANCH  14  17
ENDBRANCH   8  11
BRANCH   1  20
ATOM     20  C   LIG    1       -3.654  -0.760  -0.572  0.00  0.00    +0.130 C 
BRANCH  20  21
ATOM     21  C   LIG    1       -2.940  -2.013  -1.010  0.00  0.00    +0.530 C 
ATOM     22  O   LIG    1       -1.731  -2.020  -1.106  0.00  0.00    -0.520 OA
ATOM     23  N   LIG    1       -3.644  -3.126  -1.295  0.00  0.00    -0.860 N 
ATOM     24  H   LIG    1       -3.185  -3.932  -1.576  0.00  0.00    +0.400 HD
ATOM     25  H   LIG    1       -4.611  -3.121  -1.218  0.00  0.00    +0.400 HD
ENDBRANCH  20  21
BRANCH  20  27
ATOM     26  C   LIG    1       -3.467  -1.479   1.813  0.00  0.00    +0.030 C 
ATOM     27  C   LIG    1       -4.436  -1.042   0.713  0.00  0.00    +0.030 C 
ENDBRANCH  20  27
ENDBRANCH   1  20
TORSDOF 5
