REMARK  Name = ZINCrH000004syYj.0
REMARK                            x       y       z     vdW  Elec       q    Type
REMARK                         _______ _______ _______ _____ _____    ______ ____
ROOT
ATOM      1  C   LIG    1        4.910  -2.700  -0.061  0.00  0.00    +0.560 C 
ATOM      2  N   LIG    1        4.927  -4.047  -0.069  0.00  0.00    -0.720 N 
ATOM      3  H   LIG    1        4.093  -4.543  -0.063  0.00  0.00    +0.410 HD
ATOM      4  O   LIG    1        5.955  -2.079  -0.067  0.00  0.00    -0.530 OA
ENDROOT
BRANCH   1  11
ATOM      5  C   LIG    1       -1.335   2.037   0.019  0.00  0.00    +0.160 C 
ATOM      6  C   LIG    1       -0.016   1.309   0.009  0.00  0.00    +0.120 A 
ATOM      7  N   LIG    1        0.002  -0.004   0.002  0.00  0.00    -0.430 NA
ATOM      8  C   LIG    1        1.173  -0.652  -0.013  0.00  0.00    +0.100 A 
ATOM      9  C   LIG    1        1.219  -2.058  -0.021  0.00  0.00    +0.070 A 
ATOM     10  C   LIG    1        2.415  -2.700  -0.036  0.00  0.00    +0.060 A 
ATOM     11  C   LIG    1        3.620  -1.976  -0.044  0.00  0.00    -0.120 A 
ATOM     12  C   LIG    1        3.609  -0.592  -0.036  0.00  0.00    +0.150 A 
ATOM     13  C   LIG    1        2.381   0.089  -0.020  0.00  0.00    +0.070 A 
ATOM     14  N   LIG    1        2.337   1.427  -0.013  0.00  0.00    -0.420 NA
ATOM     15  C   LIG    1        1.176   2.039   0.002  0.00  0.00    +0.110 A 
ATOM     16  C   LIG    1        1.128   3.545   0.010  0.00  0.00    +0.150 C 
ENDBRANCH   1  11
BRANCH   2  17
ATOM     17  C   LIG    1        6.205  -4.764  -0.085  0.00  0.00    +0.260 C 
ATOM     18  C   LIG    1        6.697  -4.895  -1.528  0.00  0.00    +0.040 C 
BRANCH  17  19
ATOM     19  C   LIG    1        6.016  -6.157   0.518  0.00  0.00    +0.220 C 
BRANCH  19  20
ATOM     20  O   LIG    1        5.143  -6.923  -0.314  0.00  0.00    -0.300 OA
BRANCH  20  21
ATOM     21  C   LIG    1        4.868  -8.194   0.083  0.00  0.00    +0.090 A 
ATOM     22  C   LIG    1        5.433  -8.695   1.245  0.00  0.00    +0.000 A 
ATOM     23  C   LIG    1        5.150  -9.986   1.650  0.00  0.00    +0.030 A 
ATOM     24  C   LIG    1        4.311 -10.783   0.890  0.00  0.00    +0.100 A 
ATOM     25  C   LIG    1        3.750 -10.287  -0.274  0.00  0.00    +0.010 A 
ATOM     26  F   LIG    1        4.040 -12.046   1.286  0.00  0.00    -0.130 F 
ATOM     27  C   LIG    1        4.027  -8.994  -0.680  0.00  0.00    +0.100 A 
ATOM     28  F   LIG    1        3.479  -8.510  -1.816  0.00  0.00    -0.120 F 
ENDBRANCH  20  21
ENDBRANCH  19  20
ENDBRANCH  17  19
ENDBRANCH   2  17
TORSDOF 5
