REMARK  Name = ZINCtV000002wEX7.0
REMARK                            x       y       z     vdW  Elec       q    Type
REMARK                         _______ _______ _______ _____ _____    ______ ____
ROOT
ATOM      1  C   LIG    1        2.806  -2.324   0.212  0.00  0.00    -0.260 A 
ATOM      2  C   LIG    1        1.521  -2.021  -0.016  0.00  0.00    +0.040 A 
ATOM      3  C   LIG    1        1.255  -0.670  -0.260  0.00  0.00    -0.250 A 
ATOM      4  C   LIG    1        0.021  -0.016  -0.535  0.00  0.00    +0.510 A 
ATOM      5  N   LIG    1        0.020   1.293  -0.735  0.00  0.00    -0.560 NA
ATOM      6  C   LIG    1        1.137   1.995  -0.684  0.00  0.00    +0.410 A 
ATOM      7  N   LIG    1        2.301   1.442  -0.435  0.00  0.00    -0.520 NA
ATOM      8  C   LIG    1        2.408   0.126  -0.218  0.00  0.00    +0.130 A 
ATOM      9  C   LIG    1        0.435  -3.066  -0.010  0.00  0.00    +0.140 C 
ATOM     10  S   LIG    1        3.805  -0.883   0.134  0.00  0.00    +0.250 S 
ENDROOT
BRANCH   1  11
ATOM     11  C   LIG    1        3.308  -3.673   0.490  0.00  0.00    +0.550 C 
ATOM     12  O   LIG    1        2.538  -4.614   0.525  0.00  0.00    -0.490 OA
BRANCH  11  13
ATOM     13  O   LIG    1        4.625  -3.871   0.707  0.00  0.00    -0.350 OA
BRANCH  13  15
ATOM     14  C   LIG    1        6.565  -5.260   1.194  0.00  0.00    +0.070 C 
ATOM     15  C   LIG    1        5.051  -5.233   0.976  0.00  0.00    +0.200 C 
ENDBRANCH  13  15
ENDBRANCH  11  13
ENDBRANCH   1  11
BRANCH   4  16
ATOM     16  N   LIG    1       -1.156  -0.735  -0.593  0.00  0.00    -0.690 N 
ATOM     17  H   LIG    1       -1.138  -1.702  -0.519  0.00  0.00    +0.410 HD
BRANCH  16  18
ATOM     18  C   LIG    1       -2.433  -0.038  -0.764  0.00  0.00    +0.240 C 
BRANCH  18  19
ATOM     19  C   LIG    1       -3.563  -0.896  -0.193  0.00  0.00    +0.030 C 
ATOM     20  C   LIG    1       -3.381  -1.039   1.319  0.00  0.00    +0.010 C 
ENDBRANCH  18  19
BRANCH  18  21
ATOM     21  C   LIG    1       -2.682   0.210  -2.253  0.00  0.00    +0.000 C 
ATOM     22  C   LIG    1       -1.621   1.169  -2.796  0.00  0.00    +0.020 C 
ENDBRANCH  18  21
ENDBRANCH  16  18
ENDBRANCH   4  16
BRANCH   6  23
ATOM     23  C   LIG    1        1.073   3.482  -0.921  0.00  0.00    +0.190 C 
BRANCH  23  24
ATOM     24  S   LIG    1        0.810   4.335   0.658  0.00  0.00    -0.070 S 
BRANCH  24  25
ATOM     25  C   LIG    1        0.764   6.033   0.189  0.00  0.00    -0.090 A 
ATOM     26  C   LIG    1        0.923   6.392  -1.144  0.00  0.00    -0.010 A 
ATOM     27  C   LIG    1        0.881   7.723  -1.509  0.00  0.00    +0.030 A 
ATOM     28  C   LIG    1        0.692   8.699  -0.548  0.00  0.00    +0.010 A 
ATOM     29  C   LIG    1        0.538   8.346   0.780  0.00  0.00    +0.030 A 
ATOM     30  C   LIG    1        0.574   7.017   1.152  0.00  0.00    +0.030 A 
ENDBRANCH  24  25
ENDBRANCH  23  24
ENDBRANCH   6  23
TORSDOF 10
