REMARK  Name = ZINCtV00001bB3iQ.0
REMARK                            x       y       z     vdW  Elec       q    Type
REMARK                         _______ _______ _______ _____ _____    ______ ____
ROOT
ATOM      1  C   LIG    1       -7.077   1.467  -2.580  0.00  0.00    +0.060 A 
ATOM      2  C   LIG    1       -6.418   1.767  -1.377  0.00  0.00    -0.190 A 
ATOM      3  C   LIG    1       -7.165   2.232  -0.283  0.00  0.00    +0.190 A 
ATOM      4  N   LIG    1       -8.462   2.389  -0.353  0.00  0.00    -0.470 NA
ATOM      5  C   LIG    1       -9.151   2.116  -1.468  0.00  0.00    +0.140 A 
ATOM      6  C   LIG    1      -10.544   2.295  -1.514  0.00  0.00    +0.040 A 
ATOM      7  C   LIG    1      -11.226   2.013  -2.659  0.00  0.00    +0.040 A 
ATOM      8  C   LIG    1      -10.565   1.547  -3.792  0.00  0.00    +0.010 A 
ATOM      9  C   LIG    1       -9.214   1.361  -3.785  0.00  0.00    +0.040 A 
ATOM     10  C   LIG    1       -6.455   2.558   1.006  0.00  0.00    +0.140 C 
ATOM     11  C   LIG    1       -8.482   1.642  -2.623  0.00  0.00    -0.100 A 
ENDROOT
BRANCH   1  16
ATOM     12  C   LIG    1       -4.173  -0.424  -7.175  0.00  0.00    +0.090 C 
ATOM     13  C   LIG    1       -4.934   0.071  -5.971  0.00  0.00    -0.070 A 
ATOM     14  C   LIG    1       -5.856  -0.754  -5.352  0.00  0.00    +0.010 A 
ATOM     15  C   LIG    1       -6.555  -0.307  -4.250  0.00  0.00    +0.040 A 
ATOM     16  C   LIG    1       -6.331   0.981  -3.760  0.00  0.00    -0.080 A 
ATOM     17  C   LIG    1       -5.403   1.810  -4.394  0.00  0.00    +0.040 A 
ATOM     18  C   LIG    1       -4.707   1.349  -5.491  0.00  0.00    +0.010 A 
ENDBRANCH   1  16
BRANCH   2  19
ATOM     19  C   LIG    1       -4.956   1.601  -1.266  0.00  0.00    +0.450 C 
ATOM     20  O   LIG    1       -4.220   2.553  -1.450  0.00  0.00    -0.440 OA
BRANCH  19  21
ATOM     21  C   LIG    1       -4.392   0.292  -0.935  0.00  0.00    -0.110 C 
ATOM     22  C   LIG    1       -3.054   0.113  -0.942  0.00  0.00    +0.130 C 
BRANCH  22  23
ATOM     23  C   LIG    1       -2.486  -1.203  -0.609  0.00  0.00    -0.090 A 
ATOM     24  C   LIG    1       -3.330  -2.273  -0.290  0.00  0.00    +0.040 A 
ATOM     25  C   LIG    1       -2.790  -3.501   0.026  0.00  0.00    +0.000 A 
ATOM     26  C   LIG    1       -1.417  -3.679   0.024  0.00  0.00    +0.030 A 
ATOM     27  C   LIG    1       -0.576  -2.627  -0.295  0.00  0.00    +0.000 A 
ATOM     28  C   LIG    1       -1.100  -1.393  -0.614  0.00  0.00    -0.060 A 
ATOM     29  C   LIG    1       -0.182  -0.249  -0.961  0.00  0.00    +0.090 C 
ENDBRANCH  22  23
ENDBRANCH  19  21
ENDBRANCH   2  19
TORSDOF 4
