REMARK  Name = ZINCrH000004poMF.0
REMARK                            x       y       z     vdW  Elec       q    Type
REMARK                         _______ _______ _______ _____ _____    ______ ____
ROOT
ATOM      1  C   LIG    1        0.014   1.385   0.539  0.00  0.00    +0.060 C 
ATOM      2  C   LIG    1       -0.948   1.899   1.613  0.00  0.00    +0.270 C 
ENDROOT
BRANCH   2   3
ATOM      3  C   LIG    1       -2.288   1.229   1.448  0.00  0.00    +0.510 C 
ATOM      4  N   LIG    1       -2.976   1.374   0.298  0.00  0.00    -0.610 N 
ATOM      5  C   LIG    1       -2.422   2.181  -0.791  0.00  0.00    +0.290 C 
ATOM      6  O   LIG    1       -2.747   0.561   2.350  0.00  0.00    -0.520 OA
BRANCH   4   7
ATOM      7  C   LIG    1       -4.279   0.723   0.138  0.00  0.00    +0.290 C 
ATOM      8  C   LIG    1       -4.772   0.915  -1.298  0.00  0.00    +0.060 C 
BRANCH   7   9
ATOM      9  C   LIG    1       -5.268   1.337   1.095  0.00  0.00    -0.080 A 
ATOM     10  C   LIG    1       -6.100   0.526   1.843  0.00  0.00    +0.060 A 
ATOM     11  C   LIG    1       -7.008   1.087   2.722  0.00  0.00    +0.030 A 
ATOM     12  C   LIG    1       -7.085   2.462   2.852  0.00  0.00    +0.070 A 
ATOM     13  C   LIG    1       -6.251   3.276   2.100  0.00  0.00    +0.070 A 
ATOM     14  F   LIG    1       -6.325   4.620   2.226  0.00  0.00    -0.130 F 
ATOM     15  F   LIG    1       -7.973   3.011   3.710  0.00  0.00    -0.130 F 
ATOM     16  C   LIG    1       -5.339   2.712   1.226  0.00  0.00    +0.030 A 
ENDBRANCH   7   9
ENDBRANCH   4   7
ENDBRANCH   2   3
BRANCH   2  17
ATOM     17  N   LIG    1       -0.408   1.591   2.939  0.00  0.00    -0.690 N 
ATOM     18  H   LIG    1       -0.688   0.785   3.402  0.00  0.00    +0.420 HD
ATOM     19  C   LIG    1        0.478   2.426   3.517  0.00  0.00    +0.650 C 
ATOM     20  O   LIG    1        0.829   3.435   2.937  0.00  0.00    -0.570 OA
BRANCH  19  21
ATOM     21  O   LIG    1        0.974   2.143   4.736  0.00  0.00    -0.360 OA
BRANCH  21  22
ATOM     22  C   LIG    1        1.923   3.088   5.297  0.00  0.00    +0.290 C 
BRANCH  22  23
ATOM     23  C   LIG    1        2.366   2.608   6.656  0.00  0.00    -0.100 A 
ATOM     24  C   LIG    1        1.672   2.998   7.786  0.00  0.00    +0.040 A 
ATOM     25  C   LIG    1        2.075   2.554   9.031  0.00  0.00    +0.010 A 
ATOM     26  C   LIG    1        3.178   1.730   9.148  0.00  0.00    +0.020 A 
ATOM     27  C   LIG    1        3.876   1.345   8.018  0.00  0.00    +0.010 A 
ATOM     28  C   LIG    1        3.469   1.784   6.772  0.00  0.00    +0.040 A 
ENDBRANCH  22  23
ENDBRANCH  21  22
ENDBRANCH  19  21
ENDBRANCH   2  17
TORSDOF 7
