REMARK  Name = ZINCAx0000000e4m.0
REMARK                            x       y       z     vdW  Elec       q    Type
REMARK                         _______ _______ _______ _____ _____    ______ ____
ROOT
ATOM      1  N   LIG    1       -0.358   1.262   2.543  0.00  0.00    -0.510 N 
ATOM      2  C   LIG    1       -0.482  -0.024   2.927  0.00  0.00    +0.580 C 
ATOM      3  O   LIG    1       -1.025  -0.827   2.193  0.00  0.00    -0.520 OA
ENDROOT
BRANCH   1   9
ATOM      4  N   LIG    1        0.486   4.152   4.649  0.00  0.00    -0.530 N 
ATOM      5  C   LIG    1        1.788   3.915   4.888  0.00  0.00    +0.710 A 
ATOM      6  N   LIG    1        2.405   2.834   4.379  0.00  0.00    -0.660 N 
ATOM      7  H   LIG    1        3.345   2.686   4.566  0.00  0.00    +0.430 HD
ATOM      8  C   LIG    1        1.732   1.954   3.613  0.00  0.00    +0.560 A 
ATOM      9  C   LIG    1        0.367   2.170   3.342  0.00  0.00    -0.170 A 
ATOM     10  O   LIG    1        2.301   0.976   3.156  0.00  0.00    -0.510 OA
ATOM     11  O   LIG    1        2.420   4.694   5.576  0.00  0.00    -0.530 OA
ATOM     12  C   LIG    1       -0.247   3.288   3.868  0.00  0.00    +0.490 A 
BRANCH  12  13
ATOM     13  N   LIG    1       -1.576   3.534   3.619  0.00  0.00    -0.830 N 
ATOM     14  H   LIG    1       -1.977   4.370   3.904  0.00  0.00    +0.410 HD
ATOM     15  H   LIG    1       -2.114   2.870   3.159  0.00  0.00    +0.430 HD
ENDBRANCH  12  13
BRANCH   4  16
ATOM     16  C   LIG    1       -0.155   5.340   5.218  0.00  0.00    +0.320 C 
BRANCH  16  17
ATOM     17  C   LIG    1       -0.025   6.509   4.239  0.00  0.00    +0.010 C 
BRANCH  17  19
ATOM     18  C   LIG    1       -0.563   8.918   3.855  0.00  0.00    +0.020 C 
ATOM     19  C   LIG    1       -0.694   7.750   4.834  0.00  0.00    +0.020 C 
ENDBRANCH  17  19
ENDBRANCH  16  17
ENDBRANCH   4  16
ENDBRANCH   1   9
BRANCH   2  20
ATOM     20  C   LIG    1        0.041  -0.457   4.240  0.00  0.00    -0.130 A 
ATOM     21  C   LIG    1       -0.273   0.265   5.392  0.00  0.00    +0.140 A 
ATOM     22  C   LIG    1        0.218  -0.144   6.614  0.00  0.00    -0.700 A 
ATOM     23  C   LIG    1        1.020  -1.268   6.699  0.00  0.00    +0.140 A 
ATOM     24  C   LIG    1        1.336  -1.988   5.561  0.00  0.00    +0.000 A 
ATOM     25  C   LIG    1        0.846  -1.593   4.333  0.00  0.00    +0.040 A 
ATOM     26  C   LIG    1        1.184  -2.383   3.095  0.00  0.00    +0.120 C 
BRANCH  22  27
ATOM     27  S   LIG    1       -0.177   0.766   8.070  0.00  0.00    +2.690 S 
ATOM     28  O   LIG    1       -0.614   2.047   7.637  0.00  0.00    -0.960 OA
ATOM     29  O   LIG    1        0.909   0.578   8.968  0.00  0.00    -0.950 OA
BRANCH  27  30
ATOM     30  N   LIG    1       -1.490   0.034   8.765  0.00  0.00    -1.000 NA
ATOM     31  C   LIG    1       -2.852   0.374   8.333  0.00  0.00    +0.280 C 
ATOM     32  C   LIG    1       -3.582  -0.923   7.952  0.00  0.00    +0.010 C 
ATOM     33  C   LIG    1       -3.521  -1.900   9.129  0.00  0.00    +0.020 C 
ATOM     34  C   LIG    1       -2.062  -2.241   9.436  0.00  0.00    +0.010 C 
ATOM     35  C   LIG    1       -1.314  -0.963   9.830  0.00  0.00    +0.290 C 
ENDBRANCH  27  30
ENDBRANCH  22  27
ENDBRANCH   2  20
BRANCH   1  36
ATOM     36  C   LIG    1       -0.977   1.718   1.295  0.00  0.00    +0.280 C 
BRANCH  36  37
ATOM     37  C   LIG    1       -0.045   1.407   0.121  0.00  0.00    -0.030 C 
ATOM     38  C   LIG    1       -0.755   1.735  -1.194  0.00  0.00    +0.030 C 
ATOM     39  C   LIG    1        1.224   2.254   0.240  0.00  0.00    +0.010 C 
ENDBRANCH  36  37
ENDBRANCH   1  36
TORSDOF 10
