REMARK  Name = ZINCvU0000000873.0
REMARK                            x       y       z     vdW  Elec       q    Type
REMARK                         _______ _______ _______ _____ _____    ______ ____
ROOT
ATOM      1  C   LIG    1        1.830   6.238  -3.724  0.00  0.00    +0.220 C 
ENDROOT
BRANCH   1   5
ATOM      2  C   LIG    1        0.195   6.048  -0.452  0.00  0.00    +0.110 A 
ATOM      3  C   LIG    1        0.208   7.388  -0.301  0.00  0.00    -0.060 A 
ATOM      4  S   LIG    1        0.964   8.085  -1.732  0.00  0.00    +0.220 S 
ATOM      5  C   LIG    1        1.187   6.524  -2.391  0.00  0.00    +0.020 A 
ATOM      6  N   LIG    1        0.735   5.626  -1.585  0.00  0.00    -0.440 NA
BRANCH   2  10
ATOM      7  C   LIG    1       -1.427   3.410   2.470  0.00  0.00    +0.110 A 
ATOM      8  C   LIG    1       -1.536   4.782   2.637  0.00  0.00    -0.030 A 
ATOM      9  C   LIG    1       -1.012   5.639   1.691  0.00  0.00    +0.030 A 
ATOM     10  C   LIG    1       -0.370   5.127   0.565  0.00  0.00    -0.020 A 
ATOM     11  C   LIG    1       -0.255   3.748   0.399  0.00  0.00    +0.010 A 
ATOM     12  C   LIG    1       -0.787   2.893   1.346  0.00  0.00    +0.100 A 
BRANCH   7  14
ATOM     13  C   LIG    1       -2.589   3.168   4.531  0.00  0.00    +0.240 C 
ATOM     14  O   LIG    1       -1.946   2.569   3.404  0.00  0.00    -0.300 OA
ENDBRANCH   7  14
BRANCH  12  15
ATOM     15  O   LIG    1       -0.682   1.547   1.184  0.00  0.00    -0.310 OA
ATOM     16  C   LIG    1       -0.013   1.086   0.008  0.00  0.00    +0.240 C 
ENDBRANCH  12  15
ENDBRANCH   2  10
ENDBRANCH   1   5
BRANCH   1  17
ATOM     17  C   LIG    1        3.241   6.767  -3.725  0.00  0.00    +0.410 C 
ATOM     18  O   LIG    1        3.547   7.679  -2.987  0.00  0.00    -0.410 OA
BRANCH  17  19
ATOM     19  C   LIG    1        4.247   6.177  -4.622  0.00  0.00    -0.160 A 
ATOM     20  C   LIG    1        3.899   5.121  -5.470  0.00  0.00    +0.070 A 
ATOM     21  C   LIG    1        4.846   4.576  -6.311  0.00  0.00    +0.020 A 
ATOM     22  C   LIG    1        6.141   5.065  -6.310  0.00  0.00    -0.030 A 
ATOM     23  C   LIG    1        6.495   6.106  -5.469  0.00  0.00    +0.030 A 
ATOM     24  C   LIG    1        5.558   6.665  -4.626  0.00  0.00    +0.090 A 
BRANCH  22  25
ATOM     25  C   LIG    1        7.172   4.460  -7.228  0.00  0.00    +0.030 C 
ATOM     26  C   LIG    1        6.785   3.186  -7.982  0.00  0.00    +0.090 C 
ATOM     27  C   LIG    1        6.897   4.515  -8.732  0.00  0.00    +0.210 C 
ATOM     28  F   LIG    1        7.995   4.687  -9.583  0.00  0.00    -0.160 F 
ATOM     29  F   LIG    1        5.709   5.124  -9.150  0.00  0.00    -0.150 F 
ENDBRANCH  22  25
ENDBRANCH  17  19
ENDBRANCH   1  17
BRANCH   1  30
ATOM     30  C   LIG    1        1.058   6.896  -4.791  0.00  0.00    +0.200 C 
ATOM     31  N   LIG    1        0.463   7.403  -5.615  0.00  0.00    -0.370 NA
ENDBRANCH   1  30
TORSDOF 8
