REMARK  Name = ZINCtV000002pWSa.0
REMARK                            x       y       z     vdW  Elec       q    Type
REMARK                         _______ _______ _______ _____ _____    ______ ____
ROOT
ATOM      1  C   LIG    1        8.299   1.249  -0.065  0.00  0.00    +0.130 A 
ATOM      2  N   LIG    1        7.951   2.515  -0.055  0.00  0.00    -0.280 NA
ATOM      3  N   LIG    1        6.668   2.607  -0.049  0.00  0.00    -0.230 NA
ATOM      4  C   LIG    1        6.144   1.402  -0.045  0.00  0.00    +0.220 A 
ATOM      5  O   LIG    1        7.167   0.518  -0.059  0.00  0.00    -0.200 OA
ENDROOT
BRANCH   4   6
ATOM      6  C   LIG    1        4.711   1.075  -0.034  0.00  0.00    -0.120 A 
ATOM      7  C   LIG    1        3.730   1.983  -0.021  0.00  0.00    +0.020 A 
ATOM      8  C   LIG    1        2.391   1.425  -0.013  0.00  0.00    -0.080 A 
ATOM      9  C   LIG    1        1.145   2.092   0.002  0.00  0.00    +0.080 A 
ATOM     10  C   LIG    1       -0.017   1.384   0.010  0.00  0.00    +0.030 A 
ATOM     11  C   LIG    1        0.002  -0.004   0.002  0.00  0.00    +0.060 A 
ATOM     12  C   LIG    1        1.200  -0.680  -0.013  0.00  0.00    +0.060 A 
ATOM     13  C   LIG    1        2.406   0.026  -0.020  0.00  0.00    -0.130 A 
ATOM     14 CL   LIG    1        4.033   3.692  -0.016  0.00  0.00    +0.000 Cl
ATOM     15  S   LIG    1        4.067  -0.555  -0.037  0.00  0.00    +0.190 S 
ENDBRANCH   4   6
BRANCH   1  16
ATOM     16  S   LIG    1        9.945   0.621  -0.083  0.00  0.00    +0.130 S 
BRANCH  16  17
ATOM     17  C   LIG    1       10.874   2.174  -0.083  0.00  0.00    +0.100 C 
BRANCH  17  18
ATOM     18  C   LIG    1       12.351   1.876  -0.098  0.00  0.00    +0.450 C 
ATOM     19  O   LIG    1       12.738   0.726  -0.107  0.00  0.00    -0.460 OA
BRANCH  18  23
ATOM     20  N   LIG    1       15.213   4.112  -0.112  0.00  0.00    -0.430 N 
ATOM     21  C   LIG    1       14.214   5.042  -0.098  0.00  0.00    +0.010 A 
ATOM     22  C   LIG    1       13.027   4.413  -0.090  0.00  0.00    +0.000 A 
ATOM     23  C   LIG    1       13.320   2.974  -0.101  0.00  0.00    -0.270 A 
ATOM     24  C   LIG    1       14.412   6.536  -0.092  0.00  0.00    +0.120 C 
ATOM     25  C   LIG    1       14.698   2.869  -0.108  0.00  0.00    +0.130 A 
ATOM     26  C   LIG    1       15.487   1.585  -0.115  0.00  0.00    +0.150 C 
BRANCH  20  27
ATOM     27  C   LIG    1       16.645   4.423  -0.124  0.00  0.00    +0.320 C 
BRANCH  27  29
ATOM     28  C   LIG    1       18.163   3.788   1.679  0.00  0.00    +0.050 C 
ATOM     29  C   LIG    1       17.149   4.522   1.292  0.00  0.00    -0.070 C 
ENDBRANCH  27  29
ENDBRANCH  20  27
ENDBRANCH  18  23
ENDBRANCH  17  18
ENDBRANCH  16  17
ENDBRANCH   1  16
TORSDOF 7
