REMARK  Name = ZINCnE000001D4oc.1
REMARK                            x       y       z     vdW  Elec       q    Type
REMARK                         _______ _______ _______ _____ _____    ______ ____
ROOT
ATOM      1  N   LIG    1        1.782  -2.334   1.348  0.00  0.00    -0.750 N 
ATOM      2  H   LIG    1        1.528  -1.761   2.088  0.00  0.00    +0.400 HD
ENDROOT
BRANCH   1   3
ATOM      3  C   LIG    1        2.198  -3.645   1.591  0.00  0.00    +0.210 A 
ATOM      4  C   LIG    1        2.556  -4.469   0.532  0.00  0.00    -0.100 A 
ATOM      5  C   LIG    1        2.972  -5.763   0.776  0.00  0.00    +0.030 A 
ATOM      6  C   LIG    1        3.023  -6.242   2.072  0.00  0.00    -0.070 A 
ATOM      7  C   LIG    1        2.662  -5.426   3.128  0.00  0.00    +0.030 A 
ATOM      8  C   LIG    1        2.250  -4.129   2.892  0.00  0.00    -0.030 A 
BRANCH   7   9
ATOM      9  C   LIG    1        2.718  -5.952   4.540  0.00  0.00    -0.160 C 
ATOM     10  C   LIG    1        4.100  -6.238   5.132  0.00  0.00    +0.030 C 
ATOM     11  C   LIG    1        3.183  -7.397   4.737  0.00  0.00    +0.020 C 
BRANCH   9  12
ATOM     12  C   LIG    1        1.655  -5.430   5.471  0.00  0.00    +0.530 C 
ATOM     13  O   LIG    1        1.859  -5.399   6.673  0.00  0.00    -0.690 OA
ATOM     14  O   LIG    1        0.592  -5.037   5.023  0.00  0.00    -0.680 OA
ENDBRANCH   9  12
ENDBRANCH   7   9
ENDBRANCH   1   3
BRANCH   1  15
ATOM     15  C   LIG    1        1.728  -1.825  -0.025  0.00  0.00    +0.360 C 
BRANCH  15  18
ATOM     16  C   LIG    1        1.261   1.829  -0.000  0.00  0.00    +0.100 A 
ATOM     17  C   LIG    1        2.065   0.741  -0.014  0.00  0.00    -0.100 A 
ATOM     18  C   LIG    1        1.250  -0.396  -0.012  0.00  0.00    +0.070 A 
ATOM     19  N   LIG    1        0.002  -0.004   0.002  0.00  0.00    -0.270 NA
ATOM     20  N   LIG    1       -0.017   1.397   0.010  0.00  0.00    -0.470 N 
ATOM     21  H   LIG    1       -0.809   1.957   0.017  0.00  0.00    +0.440 HD
BRANCH  16  23
ATOM     22  C   LIG    1        0.495   4.183   0.146  0.00  0.00    +0.030 C 
ATOM     23  C   LIG    1        1.712   3.267   0.003  0.00  0.00    -0.000 C 
ATOM     24  C   LIG    1        2.434   3.579  -1.310  0.00  0.00    +0.040 C 
ATOM     25  C   LIG    1        2.666   3.500   1.177  0.00  0.00    +0.050 C 
ENDBRANCH  16  23
ENDBRANCH  15  18
ENDBRANCH   1  15
TORSDOF 6
