REMARK  Name = ZINCnE000001D4oc.0
REMARK                            x       y       z     vdW  Elec       q    Type
REMARK                         _______ _______ _______ _____ _____    ______ ____
ROOT
ATOM      1  N   LIG    1       -0.011   0.966   0.007  0.00  0.00    -0.750 N 
ATOM      2  H   LIG    1        0.002  -0.004   0.002  0.00  0.00    +0.400 HD
ENDROOT
BRANCH   1   3
ATOM      3  C   LIG    1       -1.230   1.648   0.017  0.00  0.00    +0.200 A 
ATOM      4  C   LIG    1       -1.251   3.036   0.030  0.00  0.00    -0.100 A 
ATOM      5  C   LIG    1       -2.458   3.708   0.034  0.00  0.00    +0.030 A 
ATOM      6  C   LIG    1       -3.645   2.998   0.036  0.00  0.00    -0.070 A 
ATOM      7  C   LIG    1       -3.628   1.615   0.029  0.00  0.00    +0.030 A 
ATOM      8  C   LIG    1       -2.425   0.938   0.019  0.00  0.00    -0.030 A 
BRANCH   7   9
ATOM      9  C   LIG    1       -4.924   0.847   0.030  0.00  0.00    -0.160 C 
ATOM     10  C   LIG    1       -5.790   0.919  -1.229  0.00  0.00    +0.030 C 
ATOM     11  C   LIG    1       -6.224   1.654   0.042  0.00  0.00    +0.020 C 
BRANCH   9  12
ATOM     12  C   LIG    1       -4.907  -0.455   0.790  0.00  0.00    +0.530 C 
ATOM     13  O   LIG    1       -5.684  -1.345   0.490  0.00  0.00    -0.690 OA
ATOM     14  O   LIG    1       -4.116  -0.617   1.703  0.00  0.00    -0.680 OA
ENDBRANCH   9  12
ENDBRANCH   7   9
ENDBRANCH   1   3
BRANCH   1  15
ATOM     15  C   LIG    1        1.248   1.716  -0.001  0.00  0.00    +0.340 C 
BRANCH  15  20
ATOM     16  C   LIG    1        4.084  -0.567   0.613  0.00  0.00    +0.090 A 
ATOM     17  N   LIG    1        3.999  -0.647  -0.690  0.00  0.00    -0.280 NA
ATOM     18  N   LIG    1        2.947   0.176  -1.111  0.00  0.00    -0.470 N 
ATOM     19  H   LIG    1        2.658   0.309  -2.027  0.00  0.00    +0.440 HD
ATOM     20  C   LIG    1        2.406   0.752  -0.017  0.00  0.00    +0.070 A 
ATOM     21  C   LIG    1        3.094   0.313   1.063  0.00  0.00    -0.090 A 
BRANCH  16  23
ATOM     22  C   LIG    1        4.384  -2.447   2.202  0.00  0.00    +0.040 C 
ATOM     23  C   LIG    1        5.081  -1.292   1.480  0.00  0.00    +0.010 C 
ATOM     24  C   LIG    1        5.661  -0.323   2.512  0.00  0.00    +0.040 C 
ATOM     25  C   LIG    1        6.210  -1.844   0.607  0.00  0.00    +0.040 C 
ENDBRANCH  16  23
ENDBRANCH  15  20
ENDBRANCH   1  15
TORSDOF 6
