REMARK  Name = ZINCrH00000No4xG.0
REMARK                            x       y       z     vdW  Elec       q    Type
REMARK                         _______ _______ _______ _____ _____    ______ ____
ROOT
ATOM      1  N   LIG    1        2.870   4.110  -1.353  0.00  0.00    -0.520 NA
ENDROOT
BRANCH   1   2
ATOM      2  C   LIG    1        4.096   4.600  -0.710  0.00  0.00    +0.260 C 
BRANCH   2   8
ATOM      3  C   LIG    1        5.801   4.486  -2.532  0.00  0.00    -0.100 A 
ATOM      4  C   LIG    1        6.601   5.103  -3.482  0.00  0.00    +0.050 A 
ATOM      5  C   LIG    1        6.547   6.484  -3.593  0.00  0.00    -0.040 A 
ATOM      6  C   LIG    1        5.699   7.194  -2.764  0.00  0.00    +0.250 A 
ATOM      7  N   LIG    1        4.948   6.573  -1.876  0.00  0.00    -0.480 NA
ATOM      8  C   LIG    1        4.974   5.261  -1.742  0.00  0.00    +0.140 A 
BRANCH   3  10
ATOM      9  C   LIG    1        4.705   2.363  -3.195  0.00  0.00    +0.030 C 
ATOM     10  C   LIG    1        5.830   2.988  -2.368  0.00  0.00    +0.050 C 
ENDBRANCH   3  10
ENDBRANCH   2   8
ENDBRANCH   1   2
BRANCH   1  11
ATOM     11  C   LIG    1        1.920   5.207  -1.581  0.00  0.00    +0.260 C 
BRANCH  11  12
ATOM     12  C   LIG    1        2.207   5.857  -2.936  0.00  0.00    -0.050 C 
ATOM     13  C   LIG    1        1.228   6.923  -3.430  0.00  0.00    +0.080 C 
ATOM     14 CL   LIG    1        2.957   4.779  -4.172  0.00  0.00    -0.080 Cl
ATOM     15  C   LIG    1        2.620   7.330  -2.940  0.00  0.00    +0.230 C 
ATOM     16  F   LIG    1        3.550   7.738  -3.902  0.00  0.00    -0.150 F 
ATOM     17  F   LIG    1        2.705   7.979  -1.704  0.00  0.00    -0.140 F 
ENDBRANCH  11  12
ENDBRANCH   1  11
BRANCH   1  18
ATOM     18  C   LIG    1        2.254   3.036  -0.562  0.00  0.00    +0.230 C 
BRANCH  18  19
ATOM     19  C   LIG    1        1.150   2.393  -1.361  0.00  0.00    -0.090 A 
ATOM     20  C   LIG    1       -0.141   2.884  -1.273  0.00  0.00    +0.040 A 
ATOM     21  C   LIG    1       -1.161   2.300  -2.004  0.00  0.00    +0.010 A 
ATOM     22  C   LIG    1       -0.895   1.227  -2.829  0.00  0.00    +0.050 A 
ATOM     23  C   LIG    1        0.404   0.724  -2.918  0.00  0.00    -0.140 A 
ATOM     24  C   LIG    1        1.428   1.317  -2.179  0.00  0.00    +0.110 A 
BRANCH  23  25
ATOM     25  C   LIG    1        0.695  -0.429  -3.797  0.00  0.00    +0.560 C 
ATOM     26  O   LIG    1        1.828  -0.862  -3.876  0.00  0.00    -0.540 OA
ATOM     27  N   LIG    1       -0.296  -1.000  -4.510  0.00  0.00    -0.850 N 
ATOM     28  H   LIG    1       -0.105  -1.757  -5.086  0.00  0.00    +0.410 HD
ATOM     29  H   LIG    1       -1.200  -0.655  -4.446  0.00  0.00    +0.400 HD
ENDBRANCH  23  25
ENDBRANCH  18  19
ENDBRANCH   1  18
TORSDOF 8
