REMARK  Name = ZINCqH0000003sxM.0
REMARK                            x       y       z     vdW  Elec       q    Type
REMARK                         _______ _______ _______ _____ _____    ______ ____
ROOT
ATOM      1  N   LIG    1       -2.324  -0.149  -0.100  0.00  0.00    -0.470 N 
ATOM      2  C   LIG    1       -1.380  -0.560  -1.148  0.00  0.00    +0.200 C 
ATOM      3  C   LIG    1       -1.185  -2.077  -1.093  0.00  0.00    +0.070 C 
ATOM      4  C   LIG    1       -2.536  -2.768  -1.297  0.00  0.00    +0.100 C 
ATOM      5  C   LIG    1       -3.514  -2.286  -0.222  0.00  0.00    +0.060 C 
ATOM      6  C   LIG    1       -3.642  -0.763  -0.302  0.00  0.00    +0.210 C 
ENDROOT
BRANCH   4   7
ATOM      7  C   LIG    1       -2.361  -4.261  -1.186  0.00  0.00    +0.260 A 
ATOM      8  N   LIG    1       -1.906  -4.879  -0.138  0.00  0.00    -0.470 NA
ATOM      9  C   LIG    1       -1.888  -6.215  -0.391  0.00  0.00    +0.020 A 
ATOM     10  C   LIG    1       -1.508  -7.334   0.352  0.00  0.00    +0.080 A 
ATOM     11  C   LIG    1       -1.606  -8.590  -0.206  0.00  0.00    +0.020 A 
ATOM     12  C   LIG    1       -2.079  -8.748  -1.499  0.00  0.00    +0.050 A 
ATOM     13  C   LIG    1       -2.458  -7.652  -2.245  0.00  0.00    +0.050 A 
ATOM     14  C   LIG    1       -2.366  -6.380  -1.700  0.00  0.00    +0.010 A 
ATOM     15  O   LIG    1       -2.649  -5.141  -2.158  0.00  0.00    -0.210 OA
ENDBRANCH   4   7
BRANCH   1  21
ATOM     16  C   LIG    1       -1.916   1.915   1.081  0.00  0.00    -0.150 A 
ATOM     17  C   LIG    1       -2.023   3.311   1.120  0.00  0.00    +0.130 A 
ATOM     18  C   LIG    1       -2.632   3.953   0.056  0.00  0.00    -0.040 A 
ATOM     19  C   LIG    1       -3.112   3.208  -1.006  0.00  0.00    +0.300 A 
ATOM     20  N   LIG    1       -3.001   1.894  -1.024  0.00  0.00    -0.520 NA
ATOM     21  C   LIG    1       -2.423   1.229  -0.036  0.00  0.00    +0.360 A 
BRANCH  16  22
ATOM     22  C   LIG    1       -1.277   1.181   2.187  0.00  0.00    +0.500 C 
ATOM     23  O   LIG    1       -1.277  -0.034   2.189  0.00  0.00    -0.460 OA
BRANCH  22  24
ATOM     24  O   LIG    1       -0.688   1.857   3.193  0.00  0.00    -0.360 OA
BRANCH  24  26
ATOM     25  C   LIG    1        0.539   2.002   5.291  0.00  0.00    +0.070 C 
ATOM     26  C   LIG    1       -0.073   1.068   4.245  0.00  0.00    +0.210 C 
ENDBRANCH  24  26
ENDBRANCH  22  24
ENDBRANCH  16  22
ENDBRANCH   1  21
TORSDOF 5
