REMARK  Name = ZINCvU00000005Ti.0
REMARK                            x       y       z     vdW  Elec       q    Type
REMARK                         _______ _______ _______ _____ _____    ______ ____
ROOT
ATOM      1  O   LIG    1        1.355   1.573   0.006  0.00  0.00    -0.300 OA
ENDROOT
BRANCH   1   2
ATOM      2  C   LIG    1       -0.008   1.071   0.016  0.00  0.00    +0.190 C 
ATOM      3  C   LIG    1       -0.743   1.568  -1.230  0.00  0.00    +0.070 C 
BRANCH   2   6
ATOM      4  N   LIG    1       -1.967   1.145   1.524  0.00  0.00    -0.670 N 
ATOM      5  H   LIG    1       -2.440   0.585   0.888  0.00  0.00    +0.410 HD
ATOM      6  C   LIG    1       -0.717   1.567   1.250  0.00  0.00    +0.520 C 
ATOM      7  O   LIG    1       -0.163   2.346   1.996  0.00  0.00    -0.490 OA
BRANCH   4  13
ATOM      8  C   LIG    1       -3.968   1.555   2.813  0.00  0.00    -0.110 A 
ATOM      9  C   LIG    1       -4.572   1.913   4.002  0.00  0.00    +0.040 A 
ATOM     10  C   LIG    1       -3.799   2.241   5.101  0.00  0.00    -0.010 A 
ATOM     11  C   LIG    1       -2.420   2.207   5.015  0.00  0.00    +0.030 A 
ATOM     12  C   LIG    1       -1.809   1.843   3.830  0.00  0.00    +0.010 A 
ATOM     13  C   LIG    1       -2.582   1.513   2.725  0.00  0.00    +0.150 A 
BRANCH   8  14
ATOM     14  C   LIG    1       -4.811   1.204   1.615  0.00  0.00    +0.020 C 
ATOM     15  C   LIG    1       -5.793   0.092   1.990  0.00  0.00    +0.030 C 
BRANCH  14  17
ATOM     16  C   LIG    1       -6.348   2.118  -0.131  0.00  0.00    +0.010 C 
ATOM     17  C   LIG    1       -5.589   2.440   1.159  0.00  0.00    +0.020 C 
ENDBRANCH  14  17
ENDBRANCH   8  14
ENDBRANCH   4  13
ENDBRANCH   2   6
ENDBRANCH   1   2
BRANCH   1  18
ATOM     18  C   LIG    1        2.285   0.806  -0.598  0.00  0.00    +0.550 C 
ATOM     19  O   LIG    1        1.966  -0.252  -1.103  0.00  0.00    -0.500 OA
BRANCH  18  20
ATOM     20  C   LIG    1        3.686   1.251  -0.646  0.00  0.00    +0.070 A 
ATOM     21  C   LIG    1        4.659   0.521  -1.234  0.00  0.00    -0.010 A 
ATOM     22  S   LIG    1        6.178   1.400  -1.078  0.00  0.00    +0.100 S 
ATOM     23  C   LIG    1        5.350   2.689  -0.212  0.00  0.00    +0.350 A 
ATOM     24  N   LIG    1        4.091   2.405  -0.107  0.00  0.00    -0.510 NA
BRANCH  23  25
ATOM     25  N   LIG    1        5.952   3.834   0.282  0.00  0.00    -0.680 N 
ATOM     26  H   LIG    1        5.422   4.499   0.749  0.00  0.00    +0.420 HD
BRANCH  25  27
ATOM     27  C   LIG    1        7.391   4.042   0.099  0.00  0.00    +0.320 C 
BRANCH  27  28
ATOM     28  C   LIG    1        7.792   5.353   0.723  0.00  0.00    -0.120 A 
ATOM     29  C   LIG    1        7.769   6.513  -0.029  0.00  0.00    +0.030 A 
ATOM     30  C   LIG    1        8.133   7.716   0.545  0.00  0.00    +0.010 A 
ATOM     31  C   LIG    1        8.530   7.759   1.869  0.00  0.00    +0.020 A 
ATOM     32  C   LIG    1        8.558   6.598   2.619  0.00  0.00    +0.010 A 
ATOM     33  C   LIG    1        8.190   5.396   2.046  0.00  0.00    +0.030 A 
ENDBRANCH  27  28
ENDBRANCH  25  27
ENDBRANCH  23  25
ENDBRANCH  18  20
ENDBRANCH   1  18
TORSDOF 10
