REMARK  Name = ZINCqH0000001yLw.0
REMARK                            x       y       z     vdW  Elec       q    Type
REMARK                         _______ _______ _______ _____ _____    ______ ____
ROOT
ATOM      1  C   LIG    1        0.698   4.174  -5.746  0.00  0.00    +0.140 A 
ATOM      2  C   LIG    1        0.794   3.137  -4.831  0.00  0.00    +0.030 A 
ATOM      3  C   LIG    1        0.335   3.315  -3.533  0.00  0.00    +0.160 A 
ATOM      4  C   LIG    1       -0.225   4.528  -3.156  0.00  0.00    +0.040 A 
ATOM      5  C   LIG    1       -0.315   5.563  -4.067  0.00  0.00    +0.030 A 
ATOM      6  C   LIG    1        0.142   5.390  -5.361  0.00  0.00    +0.050 A 
ATOM      7  F   LIG    1        0.048   6.401  -6.252  0.00  0.00    -0.140 F 
ENDROOT
BRANCH   1   9
ATOM      8  C   LIG    1        1.327   2.756  -7.551  0.00  0.00    +0.530 C 
ATOM      9  N   LIG    1        1.161   3.998  -7.056  0.00  0.00    -0.660 N 
ATOM     10  H   LIG    1        1.362   4.771  -7.607  0.00  0.00    +0.420 HD
ATOM     11  O   LIG    1        0.983   1.792  -6.899  0.00  0.00    -0.490 OA
BRANCH   8  12
ATOM     12  C   LIG    1        1.938   2.563  -8.915  0.00  0.00    +0.110 C 
BRANCH  12  13
ATOM     13  S   LIG    1        2.026   0.791  -9.294  0.00  0.00    -0.170 S 
BRANCH  13  15
ATOM     14  C   LIG    1        3.035  -0.685 -11.363  0.00  0.00    +0.080 C 
ATOM     15  C   LIG    1        2.776   0.764 -10.945  0.00  0.00    +0.010 C 
ATOM     16  C   LIG    1        1.827   1.422 -11.948  0.00  0.00    +0.040 C 
ENDBRANCH  13  15
ENDBRANCH  12  13
ENDBRANCH   8  12
ENDBRANCH   1   9
BRANCH   3  17
ATOM     17  N   LIG    1        0.430   2.269  -2.607  0.00  0.00    -0.680 N 
ATOM     18  H   LIG    1        0.304   1.352  -2.896  0.00  0.00    +0.410 HD
ATOM     19  C   LIG    1        0.699   2.537  -1.313  0.00  0.00    +0.510 C 
ATOM     20  O   LIG    1        0.767   3.687  -0.934  0.00  0.00    -0.500 OA
BRANCH  19  21
ATOM     21  C   LIG    1        0.914   1.408  -0.339  0.00  0.00    +0.210 C 
BRANCH  21  22
ATOM     22  N   LIG    1        1.188   1.959   0.995  0.00  0.00    -0.520 NA
ATOM     23  C   LIG    1       -0.041   2.465   1.619  0.00  0.00    +0.170 C 
ATOM     24  C   LIG    1        0.303   3.159   2.938  0.00  0.00    +0.020 C 
ATOM     25  C   LIG    1        0.996   2.160   3.870  0.00  0.00    +0.010 C 
ATOM     26  C   LIG    1        2.246   1.612   3.177  0.00  0.00    +0.030 C 
ATOM     27  C   LIG    1        1.846   0.963   1.851  0.00  0.00    +0.120 C 
ATOM     28  C   LIG    1        3.096   0.431   1.146  0.00  0.00    +0.050 C 
ENDBRANCH  21  22
ENDBRANCH  19  21
ENDBRANCH   3  17
TORSDOF 7
