REMARK  Name = ZINCtV00000L6l3Z.1
REMARK                            x       y       z     vdW  Elec       q    Type
REMARK                         _______ _______ _______ _____ _____    ______ ____
ROOT
ATOM      1  C   LIG    1       -5.808  -1.428   0.478  0.00  0.00    +0.130 C 
ATOM      2  C   LIG    1       -4.736  -0.391   0.261  0.00  0.00    -0.230 A 
ATOM      3  C   LIG    1       -4.947   0.922   0.170  0.00  0.00    -0.080 A 
ATOM      4  C   LIG    1       -3.808   1.685  -0.027  0.00  0.00    -0.150 A 
ATOM      5  C   LIG    1       -2.668   0.982  -0.106  0.00  0.00    +0.060 A 
ATOM      6  C   LIG    1       -6.321   1.532   0.280  0.00  0.00    +0.100 C 
ATOM      7  S   LIG    1       -3.019  -0.731   0.087  0.00  0.00    +0.210 S 
ENDROOT
BRANCH   5   8
ATOM      8  N   LIG    1       -1.398   1.527  -0.304  0.00  0.00    -0.610 N 
ATOM      9  H   LIG    1       -1.289   2.487  -0.380  0.00  0.00    +0.430 HD
ATOM     10  C   LIG    1       -0.324   0.717  -0.389  0.00  0.00    +0.590 C 
ATOM     11  O   LIG    1       -0.470  -0.491  -0.388  0.00  0.00    -0.490 OA
BRANCH  10  12
ATOM     12  C   LIG    1        1.021   1.293  -0.490  0.00  0.00    -0.090 A 
ATOM     13  C   LIG    1        2.195   0.594  -0.489  0.00  0.00    +0.050 A 
ATOM     14  C   LIG    1        3.227   1.539  -0.605  0.00  0.00    -0.060 A 
ATOM     15  C   LIG    1        2.645   2.757  -0.670  0.00  0.00    +0.210 A 
ATOM     16  O   LIG    1        1.316   2.604  -0.606  0.00  0.00    -0.160 OA
ENDBRANCH  10  12
ENDBRANCH   5   8
BRANCH   4  17
ATOM     17  C   LIG    1       -3.847   3.187  -0.149  0.00  0.00    +0.260 C 
BRANCH  17  18
ATOM     18  C   LIG    1       -3.426   3.807   1.159  0.00  0.00    -0.070 A 
ATOM     19  C   LIG    1       -2.085   4.007   1.429  0.00  0.00    +0.040 A 
ATOM     20  C   LIG    1       -1.699   4.580   2.626  0.00  0.00    +0.020 A 
ATOM     21  C   LIG    1       -2.655   4.944   3.558  0.00  0.00    -0.030 A 
ATOM     22  C   LIG    1       -3.996   4.739   3.289  0.00  0.00    +0.020 A 
ATOM     23 CL   LIG    1       -2.170   5.657   5.065  0.00  0.00    -0.070 Cl
ATOM     24  C   LIG    1       -4.381   4.171   2.090  0.00  0.00    +0.030 A 
ENDBRANCH  17  18
BRANCH  17  25
ATOM     25  N   LIG    1       -2.929   3.616  -1.212  0.00  0.00    -0.540 NA
ATOM     26  C   LIG    1       -2.942   5.077  -1.361  0.00  0.00    +0.170 C 
ATOM     27  C   LIG    1       -1.872   5.497  -2.371  0.00  0.00    +0.020 C 
ATOM     28  C   LIG    1       -2.157   4.826  -3.717  0.00  0.00    +0.000 C 
ATOM     29  C   LIG    1       -2.186   3.308  -3.526  0.00  0.00    +0.020 C 
ATOM     30  C   LIG    1       -3.246   2.950  -2.482  0.00  0.00    +0.180 C 
ENDBRANCH  17  25
ENDBRANCH   4  17
TORSDOF 5
