REMARK  Name = ZINCqH0000050Sa1.0
REMARK                            x       y       z     vdW  Elec       q    Type
REMARK                         _______ _______ _______ _____ _____    ______ ____
ROOT
ATOM      1  C   LIG    1        3.623  -0.819  -0.037  0.00  0.00    +0.570 C 
ATOM      2  N   LIG    1        3.576  -2.166  -0.044  0.00  0.00    -0.720 N 
ATOM      3  H   LIG    1        2.719  -2.621  -0.038  0.00  0.00    +0.400 HD
ATOM      4  O   LIG    1        4.697  -0.248  -0.045  0.00  0.00    -0.520 OA
ENDROOT
BRANCH   2   5
ATOM      5  C   LIG    1        4.818  -2.942  -0.060  0.00  0.00    +0.310 C 
ATOM      6  C   LIG    1        4.563  -4.323   0.551  0.00  0.00    +0.030 C 
ATOM      7  C   LIG    1        5.779  -5.211   0.257  0.00  0.00    +0.120 C 
ATOM      8  O   LIG    1        5.867  -5.401  -1.156  0.00  0.00    -0.300 OA
ATOM      9  C   LIG    1        5.792  -4.301  -1.950  0.00  0.00    +0.180 A 
ATOM     10  C   LIG    1        6.227  -4.402  -3.266  0.00  0.00    -0.040 A 
ATOM     11  C   LIG    1        6.163  -3.307  -4.106  0.00  0.00    +0.140 A 
ATOM     12  C   LIG    1        5.662  -2.104  -3.636  0.00  0.00    -0.050 A 
ATOM     13  C   LIG    1        5.231  -2.002  -2.328  0.00  0.00    +0.100 A 
ATOM     14  F   LIG    1        6.587  -3.409  -5.385  0.00  0.00    -0.130 F 
ATOM     15  C   LIG    1        7.051  -4.530   0.766  0.00  0.00    +0.040 C 
ATOM     16  C   LIG    1        5.607  -6.565   0.949  0.00  0.00    +0.080 C 
ATOM     17  C   LIG    1        5.295  -3.096  -1.482  0.00  0.00    -0.190 A 
ENDBRANCH   2   5
BRANCH   1  25
ATOM     18  C   LIG    1        1.620   4.672   0.011  0.00  0.00    +0.190 C 
ATOM     19  C   LIG    1        0.755   3.438   0.013  0.00  0.00    +0.070 A 
ATOM     20  N   LIG    1       -0.543   3.384   0.025  0.00  0.00    -0.310 NA
ATOM     21  O   LIG    1       -0.979   2.256   0.018  0.00  0.00    +0.090 OA
ATOM     22  C   LIG    1       -0.016   1.319   0.009  0.00  0.00    +0.240 A 
ATOM     23  N   LIG    1        0.002  -0.004   0.002  0.00  0.00    -0.460 NA
ATOM     24  C   LIG    1        1.129  -0.681  -0.012  0.00  0.00    +0.380 A 
ATOM     25  C   LIG    1        2.371  -0.035  -0.021  0.00  0.00    -0.210 A 
ATOM     26  C   LIG    1        2.408   1.363  -0.014  0.00  0.00    +0.230 A 
ATOM     27  C   LIG    1        1.198   2.040   0.002  0.00  0.00    -0.230 A 
ENDBRANCH   1  25
TORSDOF 2
