REMARK  Name = ZINCqH0000031Fze.0
REMARK                            x       y       z     vdW  Elec       q    Type
REMARK                         _______ _______ _______ _____ _____    ______ ____
ROOT
ATOM      1  C   LIG    1        1.695   5.878  -0.443  0.00  0.00    +0.510 C 
ATOM      2  N   LIG    1        1.916   4.601  -0.811  0.00  0.00    -0.620 N 
ATOM      3  H   LIG    1        2.818   4.244  -0.806  0.00  0.00    +0.430 HD
ATOM      4  O   LIG    1        0.583   6.353  -0.540  0.00  0.00    -0.490 OA
ENDROOT
BRANCH   2   5
ATOM      5  C   LIG    1        0.852   3.794  -1.196  0.00  0.00    +0.280 A 
ATOM      6  N   LIG    1        0.947   2.556  -1.569  0.00  0.00    -0.500 NA
ATOM      7  C   LIG    1       -0.178   1.940  -1.903  0.00  0.00    +0.120 A 
ATOM      8  C   LIG    1       -1.292   2.689  -1.819  0.00  0.00    -0.100 A 
ATOM      9  S   LIG    1       -0.835   4.295  -1.257  0.00  0.00    +0.220 S 
BRANCH   7  10
ATOM     10  C   LIG    1       -0.206   0.525  -2.346  0.00  0.00    -0.000 A 
ATOM     11  C   LIG    1       -1.416  -0.078  -2.683  0.00  0.00    +0.060 A 
ATOM     12  C   LIG    1       -1.438  -1.394  -3.100  0.00  0.00    +0.030 A 
ATOM     13  C   LIG    1       -0.260  -2.119  -3.174  0.00  0.00    +0.070 A 
ATOM     14  C   LIG    1        0.947  -1.525  -2.835  0.00  0.00    +0.070 A 
ATOM     15  F   LIG    1        2.093  -2.236  -2.909  0.00  0.00    -0.130 F 
ATOM     16  F   LIG    1       -0.287  -3.408  -3.578  0.00  0.00    -0.130 F 
ATOM     17  C   LIG    1        0.978  -0.207  -2.422  0.00  0.00    +0.060 A 
ENDBRANCH   7  10
ENDBRANCH   2   5
BRANCH   1  18
ATOM     18  C   LIG    1        2.828   6.716   0.090  0.00  0.00    +0.270 C 
BRANCH  18  21
ATOM     19  C   LIG    1        2.702  10.541   0.017  0.00  0.00    +0.110 C 
ATOM     20  C   LIG    1        3.133   9.115  -0.211  0.00  0.00    +0.520 C 
ATOM     21  N   LIG    1        2.377   8.100   0.254  0.00  0.00    -0.710 N 
ATOM     22  H   LIG    1        1.534   8.287   0.697  0.00  0.00    +0.410 HD
ATOM     23  O   LIG    1        4.159   8.881  -0.812  0.00  0.00    -0.540 OA
ENDBRANCH  18  21
BRANCH  18  24
ATOM     24  C   LIG    1        3.280   6.163   1.443  0.00  0.00    -0.010 C 
ATOM     25  C   LIG    1        2.137   6.288   2.473  0.00  0.00    +0.020 C 
ATOM     26  C   LIG    1        2.858   6.645   3.797  0.00  0.00    +0.020 C 
ATOM     27  C   LIG    1        3.987   7.596   3.327  0.00  0.00    +0.010 C 
ATOM     28  C   LIG    1        4.455   6.994   1.986  0.00  0.00    +0.020 C 
ENDBRANCH  18  24
ENDBRANCH   1  18
TORSDOF 5
