REMARK  Name = ZINCkj000005kWpE.0
REMARK                            x       y       z     vdW  Elec       q    Type
REMARK                         _______ _______ _______ _____ _____    ______ ____
ROOT
ATOM      1  C   LIG    1       -0.290   0.843  -4.936  0.00  0.00    +0.290 C 
ENDROOT
BRANCH   1   3
ATOM      2  C   LIG    1       -0.269   1.365  -7.316  0.00  0.00    +0.600 C 
ATOM      3  N   LIG    1       -0.788   1.591  -6.093  0.00  0.00    -0.730 N 
ATOM      4  H   LIG    1       -1.491   2.249  -5.979  0.00  0.00    +0.410 HD
ATOM      5  O   LIG    1        0.671   0.603  -7.447  0.00  0.00    -0.530 OA
BRANCH   2  12
ATOM      6  C   LIG    1        0.756   1.127 -10.230  0.00  0.00    +0.330 C 
ATOM      7  N   LIG    1       -0.384   1.932  -9.785  0.00  0.00    -0.400 N 
ATOM      8  C   LIG    1       -1.171   2.697 -10.583  0.00  0.00    +0.250 A 
ATOM      9  C   LIG    1       -2.115   3.298  -9.819  0.00  0.00    -0.180 A 
ATOM     10  C   LIG    1       -1.919   2.891  -8.495  0.00  0.00    +0.040 A 
ATOM     11 BR   LIG    1       -3.459   4.477 -10.434  0.00  0.00    -0.020 Br
ATOM     12  C   LIG    1       -0.837   2.036  -8.490  0.00  0.00    -0.060 A 
ENDBRANCH   2  12
ENDBRANCH   1   3
BRANCH   1  13
ATOM     13  C   LIG    1       -1.042   1.287  -3.680  0.00  0.00    +0.040 C 
BRANCH  13  14
ATOM     14  C   LIG    1       -0.522   0.505  -2.472  0.00  0.00    +0.270 C 
BRANCH  14  15
ATOM     15  N   LIG    1       -1.243   0.932  -1.265  0.00  0.00    -0.380 N 
ATOM     16  C   LIG    1       -0.663   0.271  -0.090  0.00  0.00    +0.270 C 
ATOM     17  C   LIG    1       -1.358   0.773   1.177  0.00  0.00    +0.040 C 
ATOM     18  C   LIG    1       -2.852   0.453   1.095  0.00  0.00    +0.170 C 
ATOM     19  C   LIG    1       -3.431   1.087  -0.173  0.00  0.00    +0.080 C 
ATOM     20  C   LIG    1       -2.660   0.572  -1.391  0.00  0.00    +0.260 C 
ATOM     21  H   LIG    1       -1.159   1.933  -1.162  0.00  0.00    +0.420 HD
BRANCH  18  22
ATOM     22  O   LIG    1       -3.519   0.985   2.242  0.00  0.00    -0.550 OA
ATOM     23  H   LIG    1       -3.202   0.627   3.083  0.00  0.00    +0.390 HD
ENDBRANCH  18  22
ENDBRANCH  14  15
ENDBRANCH  13  14
ENDBRANCH   1  13
TORSDOF 6
