REMARK  Name = ZINCtV00000L6jJs.0
REMARK                            x       y       z     vdW  Elec       q    Type
REMARK                         _______ _______ _______ _____ _____    ______ ____
ROOT
ATOM      1  C   LIG    1        3.102   4.343  -1.688  0.00  0.00    -0.540 A 
ATOM      2  C   LIG    1        2.737   5.408  -2.442  0.00  0.00    +0.060 A 
ATOM      3  O   LIG    1        3.274   5.231  -3.668  0.00  0.00    -0.180 OA
ATOM      4  C   LIG    1        3.957   4.068  -3.652  0.00  0.00    +0.270 A 
ATOM      5  N   LIG    1        3.855   3.538  -2.454  0.00  0.00    -0.390 NA
ENDROOT
BRANCH   4   6
ATOM      6  C   LIG    1        4.696   3.493  -4.784  0.00  0.00    -0.150 A 
ATOM      7  C   LIG    1        4.801   4.052  -6.022  0.00  0.00    +0.060 A 
ATOM      8  C   LIG    1        5.552   3.319  -6.916  0.00  0.00    +0.010 A 
ATOM      9  C   LIG    1        6.058   2.180  -6.434  0.00  0.00    -0.030 A 
ATOM     10  S   LIG    1        5.591   1.979  -4.751  0.00  0.00    +0.220 S 
ENDBRANCH   4   6
BRANCH   1  11
ATOM     11  S   LIG    1        2.670   4.067  -0.003  0.00  0.00    +2.610 S 
ATOM     12  O   LIG    1        3.660   3.196   0.528  0.00  0.00    -0.910 OA
ATOM     13  O   LIG    1        2.381   5.343   0.551  0.00  0.00    -0.910 OA
BRANCH  11  18
ATOM     14  C   LIG    1       -2.514   0.980   0.019  0.00  0.00    +0.090 C 
ATOM     15  C   LIG    1       -1.219   1.751   0.017  0.00  0.00    -0.020 A 
ATOM     16  C   LIG    1       -0.013   1.076   0.008  0.00  0.00    +0.000 A 
ATOM     17  C   LIG    1        1.175   1.783   0.000  0.00  0.00    +0.140 A 
ATOM     18  C   LIG    1        1.156   3.165   0.008  0.00  0.00    -0.670 A 
ATOM     19  C   LIG    1       -0.050   3.840   0.022  0.00  0.00    +0.130 A 
ATOM     20  C   LIG    1       -1.238   3.133   0.030  0.00  0.00    +0.000 A 
ENDBRANCH  11  18
ENDBRANCH   1  11
BRANCH   2  21
ATOM     21  S   LIG    1        1.748   6.769  -1.921  0.00  0.00    +0.080 S 
BRANCH  21  22
ATOM     22  C   LIG    1        1.660   7.804  -3.408  0.00  0.00    +0.050 C 
ATOM     23  C   LIG    1        3.057   8.329  -3.747  0.00  0.00    +0.070 C 
BRANCH  22  24
ATOM     24  C   LIG    1        0.734   8.966  -3.158  0.00  0.00    -0.080 A 
ATOM     25  C   LIG    1        1.006   9.860  -2.139  0.00  0.00    +0.030 A 
ATOM     26  C   LIG    1        0.159  10.928  -1.912  0.00  0.00    +0.020 A 
ATOM     27  C   LIG    1       -0.966  11.098  -2.698  0.00  0.00    +0.020 A 
ATOM     28  C   LIG    1       -1.241  10.201  -3.714  0.00  0.00    +0.010 A 
ATOM     29  C   LIG    1       -0.391   9.135  -3.943  0.00  0.00    +0.020 A 
ENDBRANCH  22  24
ENDBRANCH  21  22
ENDBRANCH   2  21
TORSDOF 6
