REMARK  Name = ZINCvU00000005NN.0
REMARK                            x       y       z     vdW  Elec       q    Type
REMARK                         _______ _______ _______ _____ _____    ______ ____
ROOT
ATOM      1  C   LIG    1       -0.983   7.803   5.051  0.00  0.00    +0.280 A 
ATOM      2  C   LIG    1       -0.622   7.083   3.905  0.00  0.00    -0.040 A 
ATOM      3  C   LIG    1        0.723   6.938   3.590  0.00  0.00    +0.010 A 
ATOM      4  C   LIG    1        1.674   7.541   4.445  0.00  0.00    -0.190 A 
ATOM      5  C   LIG    1        3.083   7.609   4.442  0.00  0.00    +0.290 A 
ATOM      6  N   LIG    1        3.469   8.301   5.476  0.00  0.00    -0.230 NA
ATOM      7  N   LIG    1        2.351   8.721   6.207  0.00  0.00    -0.380 N 
ATOM      8  C   LIG    1        1.227   8.255   5.576  0.00  0.00    +0.330 A 
ATOM      9  N   LIG    1       -0.068   8.358   5.833  0.00  0.00    -0.480 NA
ENDROOT
BRANCH   1  14
ATOM     10  C   LIG    1       -6.408   7.824   5.497  0.00  0.00    +0.140 C 
ATOM     11  C   LIG    1       -4.912   7.965   5.600  0.00  0.00    -0.160 A 
ATOM     12  C   LIG    1       -4.266   8.627   6.567  0.00  0.00    +0.000 A 
ATOM     13  C   LIG    1       -2.892   8.624   6.459  0.00  0.00    +0.080 A 
ATOM     14  C   LIG    1       -2.411   7.954   5.391  0.00  0.00    -0.170 A 
ATOM     15  S   LIG    1       -3.751   7.292   4.463  0.00  0.00    +0.140 S 
ENDBRANCH   1  14
BRANCH   7  16
ATOM     16  C   LIG    1        2.378   9.520   7.435  0.00  0.00    +0.270 C 
ATOM     17  C   LIG    1        3.056  10.863   7.155  0.00  0.00    +0.050 C 
ATOM     18  C   LIG    1        3.160   8.769   8.515  0.00  0.00    +0.050 C 
ENDBRANCH   7  16
BRANCH   3  19
ATOM     19  C   LIG    1        1.147   6.180   2.393  0.00  0.00    +0.560 C 
ATOM     20  N   LIG    1        0.594   6.450   1.193  0.00  0.00    -0.600 N 
ATOM     21  O   LIG    1        1.994   5.314   2.490  0.00  0.00    -0.490 OA
BRANCH  20  22
ATOM     22  C   LIG    1       -0.347   7.564   1.055  0.00  0.00    +0.220 C 
ATOM     23  C   LIG    1       -1.691   7.036   0.548  0.00  0.00    +0.030 C 
ATOM     24  C   LIG    1        0.210   8.582   0.057  0.00  0.00    +0.030 C 
ENDBRANCH  20  22
BRANCH  20  25
ATOM     25  C   LIG    1        0.935   5.630   0.029  0.00  0.00    +0.370 C 
BRANCH  25  26
ATOM     26  C   LIG    1        0.068   4.397   0.012  0.00  0.00    +0.110 A 
ATOM     27  C   LIG    1       -1.098   4.392  -0.731  0.00  0.00    -0.020 A 
ATOM     28  C   LIG    1       -1.885   3.250  -0.744  0.00  0.00    +0.050 A 
ATOM     29  C   LIG    1       -1.474   2.156   0.002  0.00  0.00    -0.040 A 
ATOM     30  C   LIG    1       -0.296   2.235   0.720  0.00  0.00    +0.260 A 
ATOM     31  N   LIG    1        0.431   3.336   0.706  0.00  0.00    -0.460 NA
ENDBRANCH  25  26
ENDBRANCH  20  25
ENDBRANCH   3  19
TORSDOF 6
