REMARK  Name = ZINCrg00000SjSEt.0
REMARK                            x       y       z     vdW  Elec       q    Type
REMARK                         _______ _______ _______ _____ _____    ______ ____
ROOT
ATOM      1  S   LIG    1        0.082   0.984  -2.725  0.00  0.00    +2.450 S 
ATOM      2  O   LIG    1       -0.018  -0.432  -2.789  0.00  0.00    -0.910 OA
ATOM      3  O   LIG    1        1.366   1.592  -2.771  0.00  0.00    -0.910 OA
ENDROOT
BRANCH   1   4
ATOM      4  C   LIG    1       -0.774   1.557  -1.232  0.00  0.00    -0.340 C 
BRANCH   4   5
ATOM      5  C   LIG    1       -0.038   1.043   0.007  0.00  0.00    +0.050 C 
BRANCH   5   6
ATOM      6  C   LIG    1       -0.761   1.526   1.266  0.00  0.00    +0.330 C 
BRANCH   6  12
ATOM      7  C   LIG    1        2.821   0.401   4.090  0.00  0.00    +0.090 C 
ATOM      8  C   LIG    1        1.357   0.821   4.235  0.00  0.00    +0.120 C 
ATOM      9  N   LIG    1        0.468  -0.348   4.123  0.00  0.00    -0.720 N 
ATOM     10  H   LIG    1        0.453  -1.123   4.706  0.00  0.00    +0.440 HD
ATOM     11  C   LIG    1       -0.323  -0.129   3.057  0.00  0.00    +0.700 C 
ATOM     12  N   LIG    1       -0.056   1.034   2.453  0.00  0.00    -0.580 N 
ATOM     13  O   LIG    1       -1.182  -0.904   2.683  0.00  0.00    -0.540 OA
ATOM     14  C   LIG    1        1.135   1.545   5.565  0.00  0.00    +0.090 C 
ATOM     15  C   LIG    1        0.937   1.701   3.074  0.00  0.00    +0.530 C 
ATOM     16  O   LIG    1        1.399   2.779   2.767  0.00  0.00    -0.460 OA
ENDBRANCH   6  12
ENDBRANCH   5   6
ENDBRANCH   4   5
ENDBRANCH   1   4
BRANCH   1  17
ATOM     17  C   LIG    1       -0.943   1.696  -4.041  0.00  0.00    -0.330 C 
BRANCH  17  18
ATOM     18  C   LIG    1       -0.371   1.317  -5.383  0.00  0.00    +0.550 C 
ATOM     19  N   LIG    1       -0.972   1.737  -6.514  0.00  0.00    -0.660 N 
ATOM     20  H   LIG    1       -1.807   2.228  -6.466  0.00  0.00    +0.420 HD
ATOM     21  O   LIG    1        0.629   0.634  -5.445  0.00  0.00    -0.500 OA
BRANCH  19  22
ATOM     22  C   LIG    1       -0.390   1.464  -7.760  0.00  0.00    +0.100 A 
ATOM     23  C   LIG    1        0.297   0.275  -7.960  0.00  0.00    +0.100 A 
ATOM     24  C   LIG    1        0.866   0.005  -9.190  0.00  0.00    +0.010 A 
ATOM     25  C   LIG    1        0.761   0.924 -10.220  0.00  0.00    +0.120 A 
ATOM     26  C   LIG    1        0.081   2.115 -10.022  0.00  0.00    -0.010 A 
ATOM     27  F   LIG    1        1.322   0.660 -11.420  0.00  0.00    -0.130 F 
ATOM     28  C   LIG    1       -0.495   2.387  -8.795  0.00  0.00    +0.110 A 
ATOM     29  F   LIG    1       -1.158   3.548  -8.601  0.00  0.00    -0.130 F 
ENDBRANCH  19  22
ENDBRANCH  17  18
ENDBRANCH   1  17
TORSDOF 7
