REMARK  Name = ZINCpe00000yed6k.0
REMARK                            x       y       z     vdW  Elec       q    Type
REMARK                         _______ _______ _______ _____ _____    ______ ____
ROOT
ATOM      1  C   LIG    1       -1.864  -1.582   3.669  0.00  0.00    +0.620 C 
ATOM      2  N   LIG    1       -2.646  -1.395   2.588  0.00  0.00    -0.610 N 
ATOM      3  C   LIG    1       -4.028  -1.893   2.424  0.00  0.00    +0.250 C 
ATOM      4  C   LIG    1       -4.238  -1.981   0.891  0.00  0.00    +0.170 C 
ATOM      5  C   LIG    1       -3.461  -0.733   0.397  0.00  0.00    +0.080 C 
ATOM      6  C   LIG    1       -2.266  -0.661   1.372  0.00  0.00    +0.340 C 
ATOM      7  O   LIG    1       -0.704  -1.218   3.650  0.00  0.00    -0.530 OA
ENDROOT
BRANCH   6   8
ATOM      8  C   LIG    1       -1.968   0.776   1.713  0.00  0.00    +0.270 A 
ATOM      9  N   LIG    1       -2.552   1.467   2.638  0.00  0.00    -0.260 NA
ATOM     10  N   LIG    1       -1.996   2.753   2.639  0.00  0.00    -0.550 N 
ATOM     11  H   LIG    1       -2.240   3.485   3.227  0.00  0.00    +0.460 HD
ATOM     12  C   LIG    1       -1.053   2.784   1.673  0.00  0.00    +0.650 A 
ATOM     13  O   LIG    1       -0.352   3.735   1.380  0.00  0.00    -0.550 OA
ATOM     14  N   LIG    1       -1.033   1.567   1.092  0.00  0.00    -0.540 N 
BRANCH  14  15
ATOM     15  C   LIG    1       -0.158   1.158  -0.009  0.00  0.00    +0.310 C 
ATOM     16  C   LIG    1       -0.848   1.446  -1.344  0.00  0.00    +0.030 C 
ENDBRANCH  14  15
ENDBRANCH   6   8
BRANCH   1  19
ATOM     17  N   LIG    1       -3.809  -3.133   6.307  0.00  0.00    -0.350 N 
ATOM     18  C   LIG    1       -3.734  -2.570   5.090  0.00  0.00    +0.280 A 
ATOM     19  C   LIG    1       -2.414  -2.228   4.875  0.00  0.00    -0.290 A 
ATOM     20  C   LIG    1       -1.689  -2.618   6.023  0.00  0.00    +0.300 A 
ATOM     21  N   LIG    1       -2.528  -3.149   6.869  0.00  0.00    -0.290 NA
BRANCH  17  22
ATOM     22  C   LIG    1       -5.027  -3.645   6.940  0.00  0.00    +0.320 C 
BRANCH  22  24
ATOM     23  C   LIG    1       -6.088  -5.639   8.008  0.00  0.00    +0.030 C 
ATOM     24  C   LIG    1       -4.816  -5.104   7.347  0.00  0.00    +0.010 C 
ENDBRANCH  22  24
ENDBRANCH  17  22
ENDBRANCH   1  19
BRANCH   4  25
ATOM     25  O   LIG    1       -5.625  -1.887   0.559  0.00  0.00    -0.370 OA
ATOM     26  C   LIG    1       -6.258  -3.149   0.341  0.00  0.00    +0.210 C 
ENDBRANCH   4  25
TORSDOF 6
