REMARK  Name = ZINCfA000000bbh6.0
REMARK                            x       y       z     vdW  Elec       q    Type
REMARK                         _______ _______ _______ _____ _____    ______ ____
ROOT
ATOM      1  N   LIG    1       -0.706   2.000   1.219  0.00  0.00    -0.510 N 
ATOM      2  H   LIG    1       -1.625   1.584   1.268  0.00  0.00    +0.430 HD
ATOM      3  H   LIG    1       -0.793   3.004   1.185  0.00  0.00    +0.430 HD
ENDROOT
BRANCH   1   4
ATOM      4  C   LIG    1       -0.019   1.526   0.010  0.00  0.00    +0.250 C 
ATOM      5  C   LIG    1        0.002  -0.004   0.002  0.00  0.00    +0.100 C 
BRANCH   4   6
ATOM      6  C   LIG    1       -0.748   2.025  -1.210  0.00  0.00    -0.150 A 
ATOM      7  C   LIG    1       -2.079   2.057  -1.288  0.00  0.00    -0.060 A 
ATOM      8  S   LIG    1       -2.563   2.700  -2.852  0.00  0.00    +0.190 S 
ATOM      9  C   LIG    1       -0.880   2.885  -3.330  0.00  0.00    -0.020 A 
ATOM     10  C   LIG    1       -0.086   2.479  -2.338  0.00  0.00    +0.020 A 
ENDBRANCH   4   6
ENDBRANCH   1   4
BRANCH   1  11
ATOM     11  C   LIG    1        0.069   1.615   2.406  0.00  0.00    +0.290 C 
BRANCH  11  12
ATOM     12  C   LIG    1       -0.647   2.108   3.665  0.00  0.00    +0.200 C 
BRANCH  12  13
ATOM     13  O   LIG    1       -1.900   1.433   3.796  0.00  0.00    -0.400 OA
BRANCH  13  14
ATOM     14  C   LIG    1       -2.652   1.823   4.946  0.00  0.00    +0.190 C 
BRANCH  14  16
ATOM     15  C   LIG    1       -4.716   1.365   6.279  0.00  0.00    +0.040 C 
ATOM     16  C   LIG    1       -3.967   1.040   4.985  0.00  0.00    -0.020 C 
ATOM     17  C   LIG    1       -4.830   1.433   3.784  0.00  0.00    +0.020 C 
ENDBRANCH  14  16
ENDBRANCH  13  14
ENDBRANCH  12  13
ENDBRANCH  11  12
ENDBRANCH   1  11
TORSDOF 7
