REMARK  Name = ZINCpe000000W1MU.0
REMARK                            x       y       z     vdW  Elec       q    Type
REMARK                         _______ _______ _______ _____ _____    ______ ____
ROOT
ATOM      1  N   LIG    1        0.911   5.706  -1.622  0.00  0.00    -0.730 N 
ATOM      2  H   LIG    1        0.639   6.549  -2.017  0.00  0.00    +0.400 HD
ATOM      3  C   LIG    1        0.637   5.449  -0.328  0.00  0.00    +0.710 C 
ATOM      4  N   LIG    1        0.078   6.402   0.445  0.00  0.00    -0.630 N 
ATOM      5  C   LIG    1       -0.135   6.178   1.883  0.00  0.00    +0.330 C 
ATOM      6  C   LIG    1        0.464   7.369   2.649  0.00  0.00    +0.210 C 
ATOM      7  N   LIG    1       -0.104   8.618   2.124  0.00  0.00    -0.470 N 
ATOM      8  C   LIG    1        0.259   8.818   0.715  0.00  0.00    +0.210 C 
ATOM      9  C   LIG    1       -0.343   7.689  -0.130  0.00  0.00    +0.280 C 
ATOM     10  O   LIG    1        0.895   4.358   0.143  0.00  0.00    -0.580 OA
ENDROOT
BRANCH   7  11
ATOM     11  C   LIG    1        0.283   9.702   2.895  0.00  0.00    +0.360 A 
ATOM     12  C   LIG    1        0.033   9.720   4.269  0.00  0.00    -0.100 A 
ATOM     13  C   LIG    1        0.439  10.824   4.994  0.00  0.00    +0.340 A 
ATOM     14  N   LIG    1        1.047  11.821   4.367  0.00  0.00    -0.540 NA
ATOM     15  C   LIG    1        1.268  11.774   3.069  0.00  0.00    +0.340 A 
ATOM     16  C   LIG    1        1.963  12.932   2.401  0.00  0.00    +0.180 C 
ATOM     17  N   LIG    1        0.903  10.739   2.339  0.00  0.00    -0.560 NA
ENDBRANCH   7  11
BRANCH   1  18
ATOM     18  C   LIG    1        1.619   4.713  -2.433  0.00  0.00    +0.290 C 
BRANCH  18  19
ATOM     19  C   LIG    1        2.341   5.415  -3.585  0.00  0.00    +0.160 C 
ATOM     20  C   LIG    1        3.365   6.443  -3.042  0.00  0.00    +0.010 C 
ATOM     21  C   LIG    1        4.373   6.545  -4.213  0.00  0.00    +0.000 C 
ATOM     22  C   LIG    1        4.156   5.246  -5.013  0.00  0.00    +0.200 C 
ATOM     23  O   LIG    1        3.159   4.478  -4.319  0.00  0.00    -0.370 OA
ENDBRANCH  18  19
BRANCH  18  24
ATOM     24  C   LIG    1        0.616   3.705  -2.997  0.00  0.00    +0.180 C 
BRANCH  24  26
ATOM     25  C   LIG    1       -1.251   3.514  -4.488  0.00  0.00    +0.200 C 
ATOM     26  O   LIG    1       -0.268   4.370  -3.902  0.00  0.00    -0.390 OA
ENDBRANCH  24  26
ENDBRANCH  18  24
ENDBRANCH   1  18
TORSDOF 5
