REMARK  Name = ZINCrH000004qWiM.0
REMARK                            x       y       z     vdW  Elec       q    Type
REMARK                         _______ _______ _______ _____ _____    ______ ____
ROOT
ATOM      1  C   LIG    1        6.607   0.034  -2.458  0.00  0.00    +0.010 C 
ENDROOT
BRANCH   1   2
ATOM      2  C   LIG    1        5.667  -0.596  -1.462  0.00  0.00    +0.530 C 
ATOM      3  N   LIG    1        4.695   0.143  -0.892  0.00  0.00    -0.710 N 
ATOM      4  H   LIG    1        4.601   1.081  -1.123  0.00  0.00    +0.400 HD
ATOM      5  O   LIG    1        5.786  -1.768  -1.174  0.00  0.00    -0.520 OA
BRANCH   3   6
ATOM      6  C   LIG    1        3.782  -0.469   0.076  0.00  0.00    +0.290 C 
ATOM      7  C   LIG    1        4.418  -0.439   1.467  0.00  0.00    +0.040 C 
BRANCH   6   8
ATOM      8  C   LIG    1        2.486   0.300   0.100  0.00  0.00    -0.090 A 
ATOM      9  C   LIG    1        1.284  -0.375   0.196  0.00  0.00    +0.010 A 
ATOM     10  C   LIG    1        0.095   0.331   0.218  0.00  0.00    +0.010 A 
ATOM     11  C   LIG    1        0.109   1.711   0.146  0.00  0.00    +0.000 A 
ATOM     12  C   LIG    1        1.312   2.386   0.051  0.00  0.00    +0.010 A 
ATOM     13  C   LIG    1        2.500   1.681   0.026  0.00  0.00    +0.000 A 
ENDBRANCH   6   8
ENDBRANCH   3   6
ENDBRANCH   1   2
BRANCH   1  14
ATOM     14  C   LIG    1        5.921   0.117  -3.824  0.00  0.00    +0.020 C 
ATOM     15  C   LIG    1        6.870   0.769  -4.832  0.00  0.00    +0.050 C 
ATOM     16  C   LIG    1        4.648   0.957  -3.705  0.00  0.00    +0.040 C 
ENDBRANCH   1  14
BRANCH   1  17
ATOM     17  S   LIG    1        8.108  -0.976  -2.595  0.00  0.00    +0.080 S 
BRANCH  17  24
ATOM     18  C   LIG    1       13.649  -2.354   1.337  0.00  0.00    +0.150 C 
ATOM     19  C   LIG    1       12.368  -1.948   0.656  0.00  0.00    +0.120 A 
ATOM     20  C   LIG    1       11.450  -1.210   1.333  0.00  0.00    +0.040 A 
ATOM     21  C   LIG    1       10.259  -0.845   0.669  0.00  0.00    +0.220 A 
ATOM     22  N   LIG    1        9.188  -0.158   1.002  0.00  0.00    -0.270 NA
ATOM     23  N   LIG    1        8.375  -0.111   0.004  0.00  0.00    -0.240 NA
ATOM     24  C   LIG    1        8.870  -0.769  -1.020  0.00  0.00    +0.130 A 
ATOM     25  N   LIG    1       10.085  -1.256  -0.641  0.00  0.00    -0.420 N 
ATOM     26  C   LIG    1       11.054  -1.994  -1.247  0.00  0.00    +0.370 A 
ATOM     27  C   LIG    1       10.864  -2.442  -2.673  0.00  0.00    +0.200 C 
ATOM     28  N   LIG    1       12.145  -2.318  -0.612  0.00  0.00    -0.480 NA
ENDBRANCH  17  24
ENDBRANCH   1  17
TORSDOF 6
