REMARK  Name = ZINCpk00000FSixI.0
REMARK                            x       y       z     vdW  Elec       q    Type
REMARK                         _______ _______ _______ _____ _____    ______ ____
ROOT
ATOM      1  C   LIG    1       -2.111   1.161  -1.757  0.00  0.00    +0.230 A 
ATOM      2  C   LIG    1       -2.772   1.372  -2.959  0.00  0.00    -0.070 A 
ATOM      3  C   LIG    1       -2.203   2.169  -3.931  0.00  0.00    +0.130 A 
ATOM      4  C   LIG    1       -0.963   2.763  -3.704  0.00  0.00    -0.100 A 
ATOM      5  C   LIG    1       -0.304   2.554  -2.493  0.00  0.00    +0.190 A 
ATOM      6  C   LIG    1       -0.876   1.752  -1.528  0.00  0.00    -0.700 A 
ENDROOT
BRANCH   4   7
ATOM      7  C   LIG    1       -0.348   3.621  -4.746  0.00  0.00    -0.110 A 
ATOM      8  C   LIG    1        0.893   4.225  -4.523  0.00  0.00    +0.360 A 
ATOM      9  N   LIG    1        1.457   4.983  -5.437  0.00  0.00    -0.500 NA
ATOM     10  C   LIG    1        0.876   5.223  -6.606  0.00  0.00    +0.340 A 
ATOM     11  N   LIG    1        1.501   6.029  -7.532  0.00  0.00    -0.610 N 
ATOM     12  H   LIG    1        2.365   6.424  -7.336  0.00  0.00    +0.430 HD
ATOM     13  C   LIG    1        0.895   6.263  -8.715  0.00  0.00    +0.500 A 
ATOM     14  C   LIG    1       -0.411   5.653  -8.986  0.00  0.00    +0.310 A 
ATOM     15  N   LIG    1       -0.976   4.895  -8.090  0.00  0.00    -0.400 NA
ATOM     16  O   LIG    1        1.428   6.973  -9.550  0.00  0.00    -0.500 OA
ATOM     17  C   LIG    1       -0.379   4.657  -6.908  0.00  0.00    -0.010 A 
ATOM     18  C   LIG    1       -1.002   3.838  -5.955  0.00  0.00    +0.170 A 
ENDBRANCH   4   7
BRANCH   6  19
ATOM     19  S   LIG    1       -0.041   1.482   0.000  0.00  0.00    +2.710 S 
ATOM     20  O   LIG    1        1.161   2.239  -0.060  0.00  0.00    -0.970 OA
ATOM     21  O   LIG    1       -0.066   0.080   0.229  0.00  0.00    -0.950 OA
BRANCH  19  22
ATOM     22  N   LIG    1       -0.965   2.168   1.191  0.00  0.00    -1.250 NA
ATOM     23  H   LIG    1       -1.798   2.611   0.964  0.00  0.00    +0.420 HD
ATOM     24  H   LIG    1       -0.674   2.126   2.115  0.00  0.00    +0.420 HD
ENDBRANCH  19  22
ENDBRANCH   6  19
BRANCH   1  25
ATOM     25  O   LIG    1       -2.674   0.375  -0.802  0.00  0.00    -0.300 OA
BRANCH  25  27
ATOM     26  C   LIG    1       -3.926  -1.378  -1.897  0.00  0.00    +0.030 C 
ATOM     27  C   LIG    1       -3.997  -0.104  -1.054  0.00  0.00    +0.160 C 
ATOM     28  C   LIG    1       -4.689  -0.410   0.276  0.00  0.00    +0.070 C 
ENDBRANCH  25  27
ENDBRANCH   1  25
TORSDOF 5
