REMARK  Name = ZINCrH000004r76r.0
REMARK                            x       y       z     vdW  Elec       q    Type
REMARK                         _______ _______ _______ _____ _____    ______ ____
ROOT
ATOM      1  S   LIG    1        1.644  -1.330  -0.490  0.00  0.00    +0.100 S 
ENDROOT
BRANCH   1   6
ATOM      2  N   LIG    1        2.483   1.331  -0.405  0.00  0.00    -0.310 N 
ATOM      3  N   LIG    1        3.712   2.002  -0.526  0.00  0.00    -0.060 NA
ATOM      4  N   LIG    1        4.614   1.100  -0.708  0.00  0.00    -0.020 NA
ATOM      5  N   LIG    1        4.083  -0.068  -0.723  0.00  0.00    -0.330 NA
ATOM      6  C   LIG    1        2.782   0.015  -0.543  0.00  0.00    +0.210 A 
BRANCH   2  12
ATOM      7  C   LIG    1       -2.269   1.664  -1.631  0.00  0.00    +0.100 C 
ATOM      8  C   LIG    1       -1.101   2.079  -0.774  0.00  0.00    -0.070 A 
ATOM      9  C   LIG    1       -1.276   3.021   0.223  0.00  0.00    +0.050 A 
ATOM     10  C   LIG    1       -0.206   3.408   1.008  0.00  0.00    +0.040 A 
ATOM     11  C   LIG    1        1.041   2.850   0.803  0.00  0.00    -0.060 A 
ATOM     12  C   LIG    1        1.218   1.899  -0.194  0.00  0.00    +0.110 A 
ATOM     13  C   LIG    1        2.207   3.271   1.659  0.00  0.00    +0.110 C 
ATOM     14  C   LIG    1        0.142   1.513  -0.981  0.00  0.00    +0.040 A 
ENDBRANCH   2  12
ENDBRANCH   1   6
BRANCH   1  15
ATOM     15  C   LIG    1        2.781  -2.715  -0.745  0.00  0.00    +0.260 C 
BRANCH  15  16
ATOM     16  C   LIG    1        2.007  -4.008  -0.738  0.00  0.00    +0.190 A 
ATOM     17  N   LIG    1        1.469  -4.598  -1.775  0.00  0.00    -0.450 NA
ATOM     18  C   LIG    1        0.884  -5.718  -1.293  0.00  0.00    +0.220 A 
ATOM     19  N   LIG    1        1.099  -5.741  -0.003  0.00  0.00    -0.360 NA
ATOM     20  O   LIG    1        1.747  -4.771   0.329  0.00  0.00    +0.100 OA
BRANCH  18  21
ATOM     21  C   LIG    1        0.137  -6.730  -2.080  0.00  0.00    -0.040 A 
ATOM     22  C   LIG    1       -0.019  -6.570  -3.455  0.00  0.00    +0.110 A 
ATOM     23  C   LIG    1       -0.709  -7.517  -4.184  0.00  0.00    -0.010 A 
ATOM     24  C   LIG    1       -1.257  -8.620  -3.548  0.00  0.00    +0.120 A 
ATOM     25  C   LIG    1       -1.109  -8.780  -2.180  0.00  0.00    +0.000 A 
ATOM     26  F   LIG    1       -1.937  -9.541  -4.265  0.00  0.00    -0.130 F 
ATOM     27  C   LIG    1       -0.415  -7.841  -1.445  0.00  0.00    +0.090 A 
ENDBRANCH  18  21
ENDBRANCH  15  16
ENDBRANCH   1  15
TORSDOF 5
