REMARK  Name = ZINCkj00000GeTbT.0
REMARK                            x       y       z     vdW  Elec       q    Type
REMARK                         _______ _______ _______ _____ _____    ______ ____
ROOT
ATOM      1  C   LIG    1        4.512  -0.004   1.426  0.00  0.00    +0.170 C 
ATOM      2  C   LIG    1        4.858   0.369  -0.017  0.00  0.00    +0.120 C 
ENDROOT
BRANCH   1   9
ATOM      3  C   LIG    1       -1.509   0.745   0.472  0.00  0.00    +0.040 C 
ATOM      4  C   LIG    1       -0.001   1.000   0.428  0.00  0.00    -0.030 C 
ATOM      5  C   LIG    1        0.270   2.494   0.625  0.00  0.00    +0.030 C 
ATOM      6  C   LIG    1        1.776   2.755   0.548  0.00  0.00    -0.030 C 
ATOM      7  C   LIG    1        2.482   1.984   1.668  0.00  0.00    +0.270 C 
ATOM      8  N   LIG    1        2.110   0.566   1.573  0.00  0.00    -0.580 N 
ATOM      9  C   LIG    1        3.058  -0.390   1.510  0.00  0.00    +0.500 C 
ATOM     10  O   LIG    1        2.741  -1.560   1.522  0.00  0.00    -0.530 OA
ATOM     11  C   LIG    1        2.043   4.253   0.713  0.00  0.00    +0.040 C 
ATOM     12  C   LIG    1        0.685   0.209   1.547  0.00  0.00    +0.290 C 
ENDBRANCH   1   9
BRANCH   1  13
ATOM     13  N   LIG    1        5.345  -1.137   1.851  0.00  0.00    -0.490 N 
ATOM     14  H   LIG    1        5.233  -1.900   1.200  0.00  0.00    +0.440 HD
ATOM     15  H   LIG    1        5.061  -1.436   2.772  0.00  0.00    +0.430 HD
BRANCH  13  16
ATOM     16  C   LIG    1        6.755  -0.724   1.883  0.00  0.00    +0.260 C 
BRANCH  16  17
ATOM     17  C   LIG    1        7.622  -1.904   2.326  0.00  0.00    +0.350 C 
BRANCH  17  18
ATOM     18  N   LIG    1        9.027  -1.492   2.358  0.00  0.00    -0.390 N 
ATOM     19  C   LIG    1        9.858  -1.587   3.417  0.00  0.00    +0.240 A 
ATOM     20  C   LIG    1       11.065  -1.105   3.039  0.00  0.00    -0.090 A 
ATOM     21  C   LIG    1       10.965  -0.694   1.706  0.00  0.00    +0.260 A 
ATOM     22  N   LIG    1        9.744  -0.925   1.297  0.00  0.00    -0.300 NA
ENDBRANCH  17  18
ENDBRANCH  16  17
ENDBRANCH  13  16
ENDBRANCH   1  13
TORSDOF 5
