REMARK  Name = ZINCvU0000000FGN.0
REMARK                            x       y       z     vdW  Elec       q    Type
REMARK                         _______ _______ _______ _____ _____    ______ ____
ROOT
ATOM      1  C   LIG    1        2.285   1.451  -0.023  0.00  0.00    +0.420 A 
ATOM      2  C   LIG    1        2.361   0.049  -0.042  0.00  0.00    -0.280 A 
ATOM      3  S   LIG    1        3.738  -1.042  -0.073  0.00  0.00    +0.180 S 
ATOM      4  C   LIG    1        2.685  -2.447  -0.076  0.00  0.00    -0.090 A 
ATOM      5  C   LIG    1        1.401  -2.072  -0.055  0.00  0.00    +0.040 A 
ATOM      6  C   LIG    1        1.175  -0.691  -0.035  0.00  0.00    +0.190 A 
ATOM      7  N   LIG    1        0.006  -0.008  -0.010  0.00  0.00    -0.510 NA
ATOM      8  C   LIG    1       -0.013   1.301   0.007  0.00  0.00    +0.530 A 
ATOM      9  N   LIG    1        1.089   2.029   0.001  0.00  0.00    -0.550 NA
ENDROOT
BRANCH   4  10
ATOM     10  C   LIG    1        3.152  -3.849  -0.100  0.00  0.00    -0.040 A 
ATOM     11  C   LIG    1        2.228  -4.896  -0.094  0.00  0.00    +0.080 A 
ATOM     12  C   LIG    1        2.669  -6.202  -0.122  0.00  0.00    -0.010 A 
ATOM     13  C   LIG    1        4.027  -6.477  -0.144  0.00  0.00    +0.110 A 
ATOM     14  C   LIG    1        4.949  -5.442  -0.144  0.00  0.00    -0.010 A 
ATOM     15  F   LIG    1        4.455  -7.759  -0.165  0.00  0.00    -0.130 F 
ATOM     16  C   LIG    1        4.519  -4.132  -0.122  0.00  0.00    +0.060 A 
ENDBRANCH   4  10
BRANCH   1  20
ATOM     17  N   LIG    1        5.287   4.108   1.028  0.00  0.00    -0.490 N 
ATOM     18  C   LIG    1        4.410   4.466  -0.095  0.00  0.00    +0.210 C 
ATOM     19  C   LIG    1        3.116   3.653  -0.007  0.00  0.00    +0.240 C 
ATOM     20  N   LIG    1        3.438   2.220  -0.029  0.00  0.00    -0.480 N 
ATOM     21  C   LIG    1        4.315   1.862   1.094  0.00  0.00    +0.220 C 
ATOM     22  C   LIG    1        5.609   2.675   1.006  0.00  0.00    +0.220 C 
BRANCH  17  26
ATOM     23  C   LIG    1        8.743   6.409   1.008  0.00  0.00    -0.200 A 
ATOM     24  C   LIG    1        8.546   5.446   2.007  0.00  0.00    +0.110 A 
ATOM     25  C   LIG    1        7.408   4.692   2.010  0.00  0.00    -0.020 A 
ATOM     26  C   LIG    1        6.443   4.878   1.022  0.00  0.00    +0.150 A 
ATOM     27  C   LIG    1        6.637   5.831   0.024  0.00  0.00    -0.050 A 
ATOM     28  C   LIG    1        7.770   6.593   0.017  0.00  0.00    +0.100 A 
BRANCH  23  30
ATOM     29  C   LIG    1       10.233   8.169  -0.141  0.00  0.00    +0.070 C 
ATOM     30  C   LIG    1        9.964   7.222   1.001  0.00  0.00    +0.400 C 
ATOM     31  O   LIG    1       10.758   7.132   1.914  0.00  0.00    -0.460 OA
ENDBRANCH  23  30
ENDBRANCH  17  26
ENDBRANCH   1  20
TORSDOF 4
