REMARK  Name = ZINCpk00000eaJZM.0
REMARK                            x       y       z     vdW  Elec       q    Type
REMARK                         _______ _______ _______ _____ _____    ______ ____
ROOT
ATOM      1  C   LIG    1       -0.907   3.211  -3.666  0.00  0.00    +0.100 C 
ATOM      2  C   LIG    1       -0.887   1.682  -3.629  0.00  0.00    +0.300 C 
ENDROOT
BRANCH   2   3
ATOM      3  N   LIG    1       -0.150   1.174  -4.789  0.00  0.00    -0.570 N 
ATOM      4  C   LIG    1        1.137   1.459  -5.057  0.00  0.00    +0.580 C 
ATOM      5  C   LIG    1        1.523   0.765  -6.303  0.00  0.00    -0.130 A 
ATOM      6  C   LIG    1        2.691   0.686  -7.045  0.00  0.00    +0.100 A 
ATOM      7  C   LIG    1        2.717  -0.071  -8.206  0.00  0.00    +0.050 A 
ATOM      8  C   LIG    1        1.589  -0.749  -8.627  0.00  0.00    +0.040 A 
ATOM      9  C   LIG    1        0.413  -0.680  -7.894  0.00  0.00    +0.100 A 
ATOM     10  C   LIG    1        0.372   0.073  -6.732  0.00  0.00    -0.140 A 
ATOM     11  O   LIG    1        1.862   2.166  -4.385  0.00  0.00    -0.450 OA
ATOM     12  C   LIG    1       -0.673   0.367  -5.729  0.00  0.00    +0.580 C 
ATOM     13  O   LIG    1       -1.814  -0.050  -5.750  0.00  0.00    -0.460 OA
ENDBRANCH   2   3
BRANCH   2  14
ATOM     14  C   LIG    1       -0.211   1.220  -2.363  0.00  0.00    +0.460 C 
ATOM     15  O   LIG    1        0.783   0.536  -2.424  0.00  0.00    -0.490 OA
BRANCH  14  16
ATOM     16  O   LIG    1       -0.715   1.567  -1.168  0.00  0.00    -0.330 OA
BRANCH  16  17
ATOM     17  C   LIG    1       -0.013   1.086   0.008  0.00  0.00    +0.250 C 
BRANCH  17  18
ATOM     18  C   LIG    1       -0.718   1.572   1.248  0.00  0.00    +0.420 C 
ATOM     19  O   LIG    1       -1.716   2.257   1.150  0.00  0.00    -0.450 OA
BRANCH  18  20
ATOM     20  C   LIG    1       -0.218   1.230   2.525  0.00  0.00    -0.100 A 
ATOM     21  C   LIG    1        0.902   0.461   2.788  0.00  0.00    +0.040 A 
ATOM     22  C   LIG    1        1.023   0.380   4.176  0.00  0.00    -0.060 A 
ATOM     23  C   LIG    1        0.001   1.082   4.726  0.00  0.00    +0.210 A 
ATOM     24  N   LIG    1       -0.754   1.606   3.739  0.00  0.00    -0.410 N 
ATOM     25  C   LIG    1       -1.947   2.435   3.925  0.00  0.00    +0.330 C 
ENDBRANCH  18  20
ENDBRANCH  17  18
ENDBRANCH  16  17
ENDBRANCH  14  16
ENDBRANCH   2  14
TORSDOF 6
