REMARK  Name = ZINCrH000004tFXN.0
REMARK                            x       y       z     vdW  Elec       q    Type
REMARK                         _______ _______ _______ _____ _____    ______ ____
ROOT
ATOM      1  O   LIG    1       -0.125  -2.659  -0.113  0.00  0.00    -0.520 OA
ATOM      2  C   LIG    1       -1.183  -2.065  -0.099  0.00  0.00    +0.510 C 
ATOM      3  N   LIG    1       -1.199  -0.722   0.010  0.00  0.00    -0.670 N 
ATOM      4  H   LIG    1       -2.044  -0.252   0.087  0.00  0.00    +0.420 HD
ENDROOT
BRANCH   3   5
ATOM      5  C   LIG    1        0.003  -0.005   0.013  0.00  0.00    +0.180 A 
ATOM      6  C   LIG    1        1.135  -0.549   0.604  0.00  0.00    +0.010 A 
ATOM      7  C   LIG    1        2.320   0.162   0.606  0.00  0.00    +0.040 A 
ATOM      8  C   LIG    1        2.379   1.413   0.020  0.00  0.00    -0.010 A 
ATOM      9  C   LIG    1        1.252   1.957  -0.570  0.00  0.00    +0.050 A 
ATOM     10  C   LIG    1        0.065   1.252  -0.575  0.00  0.00    -0.150 A 
BRANCH  10  11
ATOM     11  C   LIG    1       -1.161   1.843  -1.223  0.00  0.00    +0.380 C 
BRANCH  11  12
ATOM     12  N   LIG    1       -1.975   2.514  -0.207  0.00  0.00    -0.380 N 
ATOM     13  C   LIG    1       -2.391   3.792  -0.222  0.00  0.00    +0.480 A 
ATOM     14  N   LIG    1       -3.094   4.003   0.861  0.00  0.00    -0.540 NA
ATOM     15  C   LIG    1       -3.142   2.891   1.593  0.00  0.00    +0.430 A 
ATOM     16  N   LIG    1       -2.471   1.951   0.980  0.00  0.00    -0.330 NA
ENDBRANCH  11  12
ENDBRANCH  10  11
ENDBRANCH   3   5
BRANCH   2  17
ATOM     17  C   LIG    1       -2.478  -2.828  -0.204  0.00  0.00    +0.060 C 
BRANCH  17  18
ATOM     18  C   LIG    1       -2.180  -4.325  -0.316  0.00  0.00    +0.040 C 
BRANCH  18  19
ATOM     19  C   LIG    1       -3.494  -5.100  -0.423  0.00  0.00    +0.100 C 
BRANCH  19  20
ATOM     20  C   LIG    1       -3.201  -6.574  -0.533  0.00  0.00    -0.170 A 
ATOM     21  C   LIG    1       -3.108  -7.287  -1.667  0.00  0.00    +0.220 A 
ATOM     22  N   LIG    1       -2.826  -8.594  -1.375  0.00  0.00    -0.600 N 
ATOM     23  H   LIG    1       -2.710  -9.299  -2.031  0.00  0.00    +0.420 HD
ATOM     24  C   LIG    1       -2.738  -8.760  -0.011  0.00  0.00    +0.090 A 
ATOM     25  C   LIG    1       -2.484  -9.857   0.806  0.00  0.00    -0.010 A 
ATOM     26  C   LIG    1       -2.461  -9.700   2.175  0.00  0.00    +0.020 A 
ATOM     27  C   LIG    1       -2.689  -8.457   2.749  0.00  0.00    -0.030 A 
ATOM     28  C   LIG    1       -2.941  -7.366   1.965  0.00  0.00    +0.050 A 
ATOM     29  C   LIG    1       -2.969  -7.502   0.576  0.00  0.00    -0.100 A 
ENDBRANCH  19  20
ENDBRANCH  18  19
ENDBRANCH  17  18
ENDBRANCH   2  17
TORSDOF 7
