REMARK  Name = ZINCrD0000073np8.0
REMARK                            x       y       z     vdW  Elec       q    Type
REMARK                         _______ _______ _______ _____ _____    ______ ____
ROOT
ATOM      1  C   LIG    1        7.585  -1.540  -1.625  0.00  0.00    +0.520 C 
ATOM      2  O   LIG    1        8.243  -1.902  -0.670  0.00  0.00    -0.480 OA
ENDROOT
BRANCH   1   6
ATOM      3  C   LIG    1        8.964  -2.300  -5.572  0.00  0.00    +0.160 A 
ATOM      4  C   LIG    1        7.759  -1.636  -5.370  0.00  0.00    -0.070 A 
ATOM      5  C   LIG    1        7.309  -1.388  -4.094  0.00  0.00    +0.140 A 
ATOM      6  C   LIG    1        8.064  -1.804  -2.992  0.00  0.00    -0.180 A 
ATOM      7  C   LIG    1        9.283  -2.469  -3.194  0.00  0.00    +0.190 A 
ATOM      8  C   LIG    1        9.724  -2.720  -4.486  0.00  0.00    +0.030 A 
BRANCH   3  10
ATOM      9  C   LIG    1        8.572  -2.083  -7.906  0.00  0.00    +0.250 C 
ATOM     10  O   LIG    1        9.401  -2.540  -6.835  0.00  0.00    -0.300 OA
ENDBRANCH   3  10
BRANCH   7  11
ATOM     11  O   LIG    1       10.025  -2.872  -2.130  0.00  0.00    -0.310 OA
ATOM     12  C   LIG    1        9.770  -4.181  -1.620  0.00  0.00    +0.250 C 
ENDBRANCH   7  11
BRANCH   8  13
ATOM     13  O   LIG    1       10.903  -3.369  -4.689  0.00  0.00    -0.310 OA
ATOM     14  C   LIG    1       12.079  -2.563  -4.785  0.00  0.00    +0.240 C 
ENDBRANCH   8  13
ENDBRANCH   1   6
BRANCH   1  15
ATOM     15  O   LIG    1        6.417  -0.896  -1.434  0.00  0.00    -0.350 OA
BRANCH  15  16
ATOM     16  C   LIG    1        6.006  -0.669  -0.060  0.00  0.00    +0.320 C 
BRANCH  16  17
ATOM     17  C   LIG    1        4.686   0.058  -0.043  0.00  0.00    +0.100 A 
ATOM     18  N   LIG    1        3.567  -0.628  -0.036  0.00  0.00    -0.400 NA
ATOM     19  C   LIG    1        2.394   0.016  -0.021  0.00  0.00    +0.070 A 
ATOM     20  C   LIG    1        1.178  -0.689  -0.013  0.00  0.00    +0.060 A 
ATOM     21  C   LIG    1        0.002  -0.004   0.002  0.00  0.00    +0.040 A 
ATOM     22  C   LIG    1       -0.017   1.389   0.010  0.00  0.00    +0.050 A 
ATOM     23  C   LIG    1        1.141   2.106   0.003  0.00  0.00    +0.050 A 
ATOM     24  C   LIG    1        2.375   1.434  -0.013  0.00  0.00    +0.090 A 
ATOM     25  N   LIG    1        3.529   2.110  -0.021  0.00  0.00    -0.430 NA
ATOM     26  C   LIG    1        4.667   1.455  -0.035  0.00  0.00    +0.130 A 
ATOM     27  C   LIG    1        5.967   2.218  -0.045  0.00  0.00    +0.150 C 
ENDBRANCH  16  17
ENDBRANCH  15  16
ENDBRANCH   1  15
TORSDOF 7
