REMARK  Name = ZINCvU00000006L5.0
REMARK                            x       y       z     vdW  Elec       q    Type
REMARK                         _______ _______ _______ _____ _____    ______ ____
ROOT
ATOM      1  N   LIG    1       -1.191   1.867   0.018  0.00  0.00    -0.630 N 
ATOM      2  H   LIG    1       -1.204   2.836   0.023  0.00  0.00    +0.420 HD
ATOM      3  C   LIG    1       -0.014   1.209   0.009  0.00  0.00    +0.530 C 
ATOM      4  O   LIG    1        0.002  -0.004   0.002  0.00  0.00    -0.480 OA
ENDROOT
BRANCH   1   6
ATOM      5  C   LIG    1       -3.625   1.730   0.034  0.00  0.00    -0.180 A 
ATOM      6  C   LIG    1       -2.381   1.157   0.020  0.00  0.00    +0.040 A 
ATOM      7  S   LIG    1       -2.492  -0.543   0.011  0.00  0.00    +0.330 S 
ATOM      8  C   LIG    1       -4.246  -0.511   0.021  0.00  0.00    -0.090 A 
ATOM      9  C   LIG    1       -4.697   0.748   0.029  0.00  0.00    -0.000 A 
BRANCH   9  10
ATOM     10  C   LIG    1       -6.136   1.104   0.039  0.00  0.00    -0.040 A 
ATOM     11  C   LIG    1       -6.625   2.015   0.974  0.00  0.00    +0.020 A 
ATOM     12  C   LIG    1       -7.965   2.347   0.975  0.00  0.00    +0.010 A 
ATOM     13  C   LIG    1       -8.824   1.769   0.058  0.00  0.00    +0.010 A 
ATOM     14  C   LIG    1       -8.345   0.860  -0.869  0.00  0.00    +0.010 A 
ATOM     15  C   LIG    1       -7.007   0.525  -0.883  0.00  0.00    +0.030 A 
ENDBRANCH   9  10
BRANCH   5  16
ATOM     16  C   LIG    1       -3.851   3.175   0.049  0.00  0.00    +0.540 C 
ATOM     17  O   LIG    1       -3.953   3.786  -0.999  0.00  0.00    -0.490 OA
BRANCH  16  19
ATOM     18  C   LIG    1       -4.170   5.264   1.162  0.00  0.00    +0.270 C 
ATOM     19  O   LIG    1       -3.946   3.831   1.224  0.00  0.00    -0.350 OA
ENDBRANCH  16  19
ENDBRANCH   5  16
ENDBRANCH   1   6
BRANCH   3  20
ATOM     20  C   LIG    1        1.280   1.980   0.001  0.00  0.00    +0.090 C 
BRANCH  20  21
ATOM     21  S   LIG    1        2.672   0.822  -0.019  0.00  0.00    +0.080 S 
BRANCH  21  22
ATOM     22  C   LIG    1        4.017   1.961  -0.026  0.00  0.00    +0.190 A 
ATOM     23  C   LIG    1        5.357   1.494  -0.035  0.00  0.00    -0.150 A 
ATOM     24  C   LIG    1        6.375   2.451  -0.046  0.00  0.00    +0.100 A 
ATOM     25  S   LIG    1        7.938   1.650  -0.065  0.00  0.00    +0.180 S 
ATOM     26  C   LIG    1        7.199   0.060  -0.050  0.00  0.00    -0.170 A 
ATOM     27  C   LIG    1        7.969  -1.236  -0.057  0.00  0.00    +0.160 C 
ATOM     28  N   LIG    1        6.047   3.750  -0.036  0.00  0.00    -0.490 NA
ATOM     29  C   LIG    1        4.791   4.132  -0.022  0.00  0.00    +0.540 A 
ATOM     30  C   LIG    1        5.882   0.142  -0.041  0.00  0.00    -0.080 A 
ATOM     31  C   LIG    1        4.993  -1.075  -0.037  0.00  0.00    +0.140 C 
ATOM     32  N   LIG    1        3.793   3.268  -0.017  0.00  0.00    -0.530 NA
ENDBRANCH  21  22
ENDBRANCH  20  21
ENDBRANCH   3  20
TORSDOF 7
