REMARK  Name = ZINCrg00000J3xLs.0
REMARK                            x       y       z     vdW  Elec       q    Type
REMARK                         _______ _______ _______ _____ _____    ______ ____
ROOT
ATOM      1  C   LIG    1       -1.340   2.223   0.203  0.00  0.00    +0.160 C 
ATOM      2  C   LIG    1       -0.327   3.195   0.844  0.00  0.00    +0.080 C 
ATOM      3  C   LIG    1        0.966   2.342   0.935  0.00  0.00    +0.040 C 
ATOM      4  C   LIG    1        0.868   1.490  -0.356  0.00  0.00    +0.260 C 
ATOM      5  N   LIG    1       -0.568   1.188  -0.500  0.00  0.00    -0.610 N 
ATOM      6  C   LIG    1       -1.086   0.141  -1.171  0.00  0.00    +0.560 C 
ATOM      7  O   LIG    1       -2.280  -0.081  -1.123  0.00  0.00    -0.470 OA
ENDROOT
BRANCH   6   8
ATOM      8  C   LIG    1       -0.203  -0.738  -1.967  0.00  0.00    -0.080 A 
ATOM      9  C   LIG    1        1.141  -0.406  -2.142  0.00  0.00    -0.010 A 
ATOM     10  C   LIG    1        1.967  -1.233  -2.881  0.00  0.00    +0.120 A 
ATOM     11  C   LIG    1        1.461  -2.385  -3.459  0.00  0.00    -0.040 A 
ATOM     12  C   LIG    1        0.122  -2.719  -3.294  0.00  0.00    +0.140 A 
ATOM     13  F   LIG    1        3.269  -0.913  -3.045  0.00  0.00    -0.130 F 
ATOM     14  C   LIG    1       -0.712  -1.899  -2.550  0.00  0.00    +0.060 A 
BRANCH  12  15
ATOM     15  N   LIG    1       -0.384  -3.883  -3.879  0.00  0.00    -0.480 N 
ATOM     16  C   LIG    1       -0.998  -4.756  -2.868  0.00  0.00    +0.180 C 
ATOM     17  C   LIG    1       -1.591  -5.988  -3.558  0.00  0.00    +0.240 C 
ATOM     18  O   LIG    1       -0.564  -6.654  -4.298  0.00  0.00    -0.380 OA
ATOM     19  C   LIG    1        0.055  -5.833  -5.291  0.00  0.00    +0.230 C 
ATOM     20  C   LIG    1        0.665  -4.600  -4.619  0.00  0.00    +0.170 C 
ENDBRANCH  12  15
ENDBRANCH   6   8
BRANCH   1  24
ATOM     21  C   LIG    1       -2.901  -0.350   2.568  0.00  0.00    +0.280 C 
ATOM     22  N   LIG    1       -2.131   0.258   1.480  0.00  0.00    -0.720 N 
ATOM     23  H   LIG    1       -1.580  -0.298   0.907  0.00  0.00    +0.400 HD
ATOM     24  C   LIG    1       -2.187   1.589   1.276  0.00  0.00    +0.530 C 
ATOM     25  O   LIG    1       -2.920   2.276   1.956  0.00  0.00    -0.540 OA
ENDBRANCH   1  24
BRANCH   1  26
ATOM     26  C   LIG    1       -2.229   2.974  -0.790  0.00  0.00    +0.190 C 
BRANCH  26  27
ATOM     27  O   LIG    1       -3.152   2.062  -1.388  0.00  0.00    -0.360 OA
ATOM     28  C   LIG    1       -4.034   2.665  -2.337  0.00  0.00    +0.200 C 
ENDBRANCH  26  27
ENDBRANCH   1  26
TORSDOF 5
