REMARK  Name = ZINCrg000000rZaB.0
REMARK                            x       y       z     vdW  Elec       q    Type
REMARK                         _______ _______ _______ _____ _____    ______ ____
ROOT
ATOM      1  C   LIG    1       -5.877  -1.417   1.045  0.00  0.00    +0.570 C 
ATOM      2  N   LIG    1       -6.747  -1.097   0.066  0.00  0.00    -0.700 N 
ATOM      3  H   LIG    1       -6.441  -0.608  -0.714  0.00  0.00    +0.400 HD
ATOM      4  O   LIG    1       -6.237  -2.110   1.976  0.00  0.00    -0.530 OA
ENDROOT
BRANCH   2   5
ATOM      5  C   LIG    1       -8.153  -1.490   0.179  0.00  0.00    +0.150 C 
ATOM      6  C   LIG    1       -8.937  -0.960  -1.028  0.00  0.00    +0.260 C 
ATOM      7  O   LIG    1       -8.300  -1.424  -2.219  0.00  0.00    -0.310 OA
ATOM      8  C   LIG    1       -7.997  -2.746  -2.303  0.00  0.00    +0.120 A 
ATOM      9  C   LIG    1       -7.718  -3.285  -3.554  0.00  0.00    -0.020 A 
ATOM     10  C   LIG    1       -7.403  -4.623  -3.680  0.00  0.00    +0.040 A 
ATOM     11  C   LIG    1       -7.362  -5.431  -2.559  0.00  0.00    -0.020 A 
ATOM     12  C   LIG    1       -7.639  -4.899  -1.314  0.00  0.00    +0.040 A 
ATOM     13  C   LIG    1       -7.958  -3.558  -1.182  0.00  0.00    -0.150 A 
ATOM     14  C   LIG    1       -8.264  -3.017   0.191  0.00  0.00    +0.110 C 
BRANCH   5  15
ATOM     15  C   LIG    1       -8.746  -0.919   1.470  0.00  0.00    +0.200 C 
BRANCH  15  16
ATOM     16  O   LIG    1       -8.532   0.493   1.508  0.00  0.00    -0.570 OA
ATOM     17  H   LIG    1       -8.883   0.923   2.300  0.00  0.00    +0.390 HD
ENDBRANCH  15  16
ENDBRANCH   5  15
ENDBRANCH   2   5
BRANCH   1  21
ATOM     18  C   LIG    1       -1.308  -1.160   3.027  0.00  0.00    +0.120 C 
ATOM     19  C   LIG    1       -2.284  -0.799   1.938  0.00  0.00    -0.060 A 
ATOM     20  C   LIG    1       -3.583  -1.255   1.999  0.00  0.00    +0.100 A 
ATOM     21  C   LIG    1       -4.486  -0.924   0.986  0.00  0.00    -0.110 A 
ATOM     22  C   LIG    1       -4.069  -0.128  -0.083  0.00  0.00    +0.070 A 
ATOM     23  C   LIG    1       -2.771   0.329  -0.135  0.00  0.00    +0.030 A 
ATOM     24  C   LIG    1       -1.875  -0.002   0.875  0.00  0.00    +0.140 A 
BRANCH  24  25
ATOM     25  N   LIG    1       -0.556   0.465   0.819  0.00  0.00    -0.340 N 
ATOM     26  C   LIG    1        0.282   0.430  -0.240  0.00  0.00    +0.470 A 
ATOM     27  N   LIG    1        1.409   0.974   0.139  0.00  0.00    -0.330 NA
ATOM     28  N   LIG    1        1.342   1.344   1.367  0.00  0.00    -0.030 NA
ATOM     29  N   LIG    1        0.181   1.067   1.854  0.00  0.00    -0.070 NA
ENDBRANCH  24  25
ENDBRANCH   1  21
TORSDOF 5
