REMARK  Name = ZINCnE000001QkQd.1
REMARK                            x       y       z     vdW  Elec       q    Type
REMARK                         _______ _______ _______ _____ _____    ______ ____
ROOT
ATOM      1  C   LIG    1        1.329  -0.396  -0.013  0.00  0.00    +0.440 A 
ATOM      2  C   LIG    1        0.002  -0.004   0.002  0.00  0.00    -0.310 A 
ATOM      3  C   LIG    1       -0.017   1.404   0.010  0.00  0.00    +0.110 A 
ATOM      4  N   LIG    1        1.217   1.831   0.000  0.00  0.00    -0.350 NA
ATOM      5  C   LIG    1       -1.250   2.271   0.021  0.00  0.00    +0.130 C 
ATOM      6  N   LIG    1        2.079   0.728  -0.014  0.00  0.00    -0.550 N 
ATOM      7  H   LIG    1        3.049   0.765  -0.023  0.00  0.00    +0.420 HD
ENDROOT
BRANCH   2   8
ATOM      8  C   LIG    1       -1.180  -0.900   0.008  0.00  0.00    +0.070 A 
ATOM      9  C   LIG    1       -1.417  -1.739   1.095  0.00  0.00    +0.020 A 
ATOM     10  C   LIG    1       -2.521  -2.566   1.098  0.00  0.00    -0.020 A 
ATOM     11  C   LIG    1       -3.386  -2.572   0.018  0.00  0.00    -0.040 A 
ATOM     12  C   LIG    1       -3.153  -1.746  -1.066  0.00  0.00    -0.020 A 
ATOM     13  C   LIG    1       -2.055  -0.910  -1.077  0.00  0.00    -0.020 A 
ENDBRANCH   2   8
BRANCH   1  14
ATOM     14  N   LIG    1        1.802  -1.702  -0.024  0.00  0.00    -1.040 NA
BRANCH  14  15
ATOM     15  S   LIG    1        3.433  -1.992  -0.041  0.00  0.00    +2.600 S 
ATOM     16  O   LIG    1        3.935  -1.532   1.206  0.00  0.00    -1.030 OA
ATOM     17  O   LIG    1        3.911  -1.519  -1.293  0.00  0.00    -1.030 OA
BRANCH  15  24
ATOM     18  C   LIG    1        2.616  -3.821   2.226  0.00  0.00    +0.110 C 
ATOM     19  C   LIG    1        3.245  -4.494   1.033  0.00  0.00    +0.030 A 
ATOM     20  C   LIG    1        3.417  -5.865   1.025  0.00  0.00    -0.020 A 
ATOM     21  C   LIG    1        3.994  -6.483  -0.069  0.00  0.00    +0.040 A 
ATOM     22  C   LIG    1        4.400  -5.729  -1.154  0.00  0.00    -0.040 A 
ATOM     23  C   LIG    1        4.223  -4.358  -1.148  0.00  0.00    +0.110 A 
ATOM     24  C   LIG    1        3.651  -3.740  -0.052  0.00  0.00    -0.620 A 
ENDBRANCH  15  24
ENDBRANCH  14  15
ENDBRANCH   1  14
TORSDOF 4
