REMARK  Name = ZINCnE000001QkQd.0
REMARK                            x       y       z     vdW  Elec       q    Type
REMARK                         _______ _______ _______ _____ _____    ______ ____
ROOT
ATOM      1  C   LIG    1       -2.287   2.258   2.692  0.00  0.00    +0.400 A 
ATOM      2  N   LIG    1       -1.139   2.265   3.324  0.00  0.00    -0.420 NA
ATOM      3  N   LIG    1       -0.142   1.839   2.437  0.00  0.00    -0.490 N 
ATOM      4  H   LIG    1        0.801   1.751   2.643  0.00  0.00    +0.420 HD
ATOM      5  C   LIG    1       -0.718   1.572   1.248  0.00  0.00    +0.090 A 
ATOM      6  C   LIG    1       -0.013   1.086   0.008  0.00  0.00    +0.120 C 
ATOM      7  C   LIG    1       -2.053   1.826   1.366  0.00  0.00    -0.230 A 
ENDROOT
BRANCH   7   8
ATOM      8  C   LIG    1       -3.073   1.675   0.299  0.00  0.00    +0.050 A 
ATOM      9  C   LIG    1       -3.026   2.486  -0.833  0.00  0.00    -0.010 A 
ATOM     10  C   LIG    1       -3.975   2.338  -1.824  0.00  0.00    -0.020 A 
ATOM     11  C   LIG    1       -4.977   1.394  -1.690  0.00  0.00    -0.030 A 
ATOM     12  C   LIG    1       -5.032   0.590  -0.566  0.00  0.00    -0.010 A 
ATOM     13  C   LIG    1       -4.085   0.726   0.429  0.00  0.00    +0.030 A 
ENDBRANCH   7   8
BRANCH   1  14
ATOM     14  N   LIG    1       -3.525   2.619   3.233  0.00  0.00    -1.050 NA
BRANCH  14  15
ATOM     15  S   LIG    1       -3.627   3.112   4.811  0.00  0.00    +2.610 S 
ATOM     16  O   LIG    1       -2.925   4.345   4.893  0.00  0.00    -1.030 OA
ATOM     17  O   LIG    1       -3.304   1.980   5.606  0.00  0.00    -1.030 OA
BRANCH  15  24
ATOM     18  C   LIG    1       -5.159   5.360   3.488  0.00  0.00    +0.100 C 
ATOM     19  C   LIG    1       -5.936   4.530   4.478  0.00  0.00    +0.030 A 
ATOM     20  C   LIG    1       -7.265   4.816   4.728  0.00  0.00    -0.030 A 
ATOM     21  C   LIG    1       -7.975   4.059   5.640  0.00  0.00    +0.040 A 
ATOM     22  C   LIG    1       -7.358   3.012   6.299  0.00  0.00    -0.040 A 
ATOM     23  C   LIG    1       -6.030   2.723   6.046  0.00  0.00    +0.110 A 
ATOM     24  C   LIG    1       -5.320   3.480   5.133  0.00  0.00    -0.620 A 
ENDBRANCH  15  24
ENDBRANCH  14  15
ENDBRANCH   1  14
TORSDOF 4
