REMARK  Name = ZINCvU00000007bQ.0
REMARK                            x       y       z     vdW  Elec       q    Type
REMARK                         _______ _______ _______ _____ _____    ______ ____
ROOT
ATOM      1  C   LIG    1        2.781   3.550  -0.004  0.00  0.00    +0.290 A 
ATOM      2  N   LIG    1        1.489   3.398   0.007  0.00  0.00    -0.490 NA
ATOM      3  C   LIG    1        1.185   2.075   0.002  0.00  0.00    +0.050 A 
ATOM      4  C   LIG    1       -0.017   1.362   0.009  0.00  0.00    +0.070 A 
ATOM      5  C   LIG    1        0.002  -0.004   0.002  0.00  0.00    +0.000 A 
ATOM      6  C   LIG    1        1.205  -0.695  -0.014  0.00  0.00    +0.030 A 
ATOM      7  C   LIG    1        2.403  -0.013  -0.021  0.00  0.00    +0.010 A 
ATOM      8  C   LIG    1        2.404   1.375  -0.013  0.00  0.00    +0.050 A 
ATOM      9  N   LIG    1        3.395   2.336  -0.017  0.00  0.00    -0.490 N 
ENDROOT
BRANCH   1  10
ATOM     10  C   LIG    1        3.494   4.878  -0.004  0.00  0.00    +0.160 C 
BRANCH  10  11
ATOM     11  C   LIG    1        3.721   5.335  -1.446  0.00  0.00    +0.020 C 
BRANCH  11  12
ATOM     12  C   LIG    1        4.445   6.683  -1.446  0.00  0.00    +0.260 C 
BRANCH  12  15
ATOM     13  O   LIG    1        5.669   8.979  -2.151  0.00  0.00    -0.540 OA
ATOM     14  C   LIG    1        5.287   8.290  -3.073  0.00  0.00    +0.520 C 
ATOM     15  N   LIG    1        4.662   7.121  -2.827  0.00  0.00    -0.730 N 
ATOM     16  H   LIG    1        4.356   6.570  -3.564  0.00  0.00    +0.400 HD
BRANCH  14  17
ATOM     17  C   LIG    1        5.510   8.741  -4.493  0.00  0.00    -0.010 C 
ATOM     18  C   LIG    1        6.362   7.704  -5.229  0.00  0.00    +0.030 C 
ATOM     19  C   LIG    1        6.588   8.162  -6.671  0.00  0.00    +0.010 C 
ATOM     20  C   LIG    1        7.312   9.510  -6.671  0.00  0.00    +0.000 C 
ATOM     21  C   LIG    1        6.461  10.546  -5.935  0.00  0.00    +0.010 C 
ATOM     22  C   LIG    1        6.234  10.088  -4.493  0.00  0.00    +0.040 C 
ENDBRANCH  14  17
ENDBRANCH  12  15
ENDBRANCH  11  12
ENDBRANCH  10  11
ENDBRANCH   1  10
BRANCH   9  23
ATOM     23  C   LIG    1        4.840   2.093  -0.033  0.00  0.00    +0.310 C 
BRANCH  23  24
ATOM     24  C   LIG    1        5.329   2.018  -1.480  0.00  0.00    +0.020 C 
BRANCH  24  25
ATOM     25  C   LIG    1        6.838   1.765  -1.496  0.00  0.00    +0.200 C 
BRANCH  25  26
ATOM     26  O   LIG    1        7.295   1.694  -2.848  0.00  0.00    -0.310 OA
BRANCH  26  27
ATOM     27  C   LIG    1        8.621   1.472  -3.041  0.00  0.00    +0.130 A 
ATOM     28  C   LIG    1        9.467   1.331  -1.950  0.00  0.00    -0.080 A 
ATOM     29  C   LIG    1       10.815   1.100  -2.148  0.00  0.00    +0.050 A 
ATOM     30  C   LIG    1       11.323   1.020  -3.432  0.00  0.00    -0.030 A 
ATOM     31  C   LIG    1       10.483   1.167  -4.520  0.00  0.00    +0.050 A 
ATOM     32  C   LIG    1        9.133   1.393  -4.327  0.00  0.00    -0.020 A 
ENDBRANCH  26  27
ENDBRANCH  25  26
ENDBRANCH  24  25
ENDBRANCH  23  24
ENDBRANCH   9  23
TORSDOF 10
