REMARK  Name = ZINCrg000000tO9H.0
REMARK                            x       y       z     vdW  Elec       q    Type
REMARK                         _______ _______ _______ _____ _____    ______ ____
ROOT
ATOM      1  O   LIG    1        4.737  -0.076  -0.153  0.00  0.00    -0.520 OA
ATOM      2  C   LIG    1        3.696  -0.693  -0.036  0.00  0.00    +0.570 C 
ATOM      3  N   LIG    1        3.717  -2.038   0.058  0.00  0.00    -0.610 N 
ATOM      4  C   LIG    1        2.464  -2.806   0.078  0.00  0.00    +0.280 C 
ATOM      5  C   LIG    1        2.516  -3.850  -1.050  0.00  0.00    +0.290 C 
ATOM      6  N   LIG    1        3.792  -4.573  -0.959  0.00  0.00    -0.580 N 
ATOM      7  C   LIG    1        5.045  -3.805  -0.974  0.00  0.00    +0.290 C 
ATOM      8  C   LIG    1        4.993  -2.761   0.149  0.00  0.00    +0.290 C 
ENDROOT
BRANCH   6   9
ATOM      9  C   LIG    1        3.814  -5.960  -0.862  0.00  0.00    +0.410 A 
ATOM     10  N   LIG    1        2.690  -6.636  -0.954  0.00  0.00    -0.300 NA
ATOM     11  N   LIG    1        2.694  -8.028  -0.859  0.00  0.00    -0.170 N 
ATOM     12  N   LIG    1        1.702  -9.015  -0.913  0.00  0.00    -0.050 NA
ATOM     13  N   LIG    1        2.293 -10.152  -0.763  0.00  0.00    -0.030 NA
ATOM     14  N   LIG    1        3.561  -9.992  -0.618  0.00  0.00    -0.290 NA
ATOM     15  C   LIG    1        3.868  -8.704  -0.668  0.00  0.00    +0.180 A 
ATOM     16  C   LIG    1        5.070  -7.981  -0.569  0.00  0.00    +0.180 A 
ATOM     17  C   LIG    1        5.039  -6.625  -0.672  0.00  0.00    +0.020 A 
ENDBRANCH   6   9
BRANCH   2  18
ATOM     18  C   LIG    1        2.410   0.029   0.002  0.00  0.00    -0.150 A 
ATOM     19  C   LIG    1        1.521  -0.174   1.060  0.00  0.00    +0.080 A 
ATOM     20  C   LIG    1        0.321   0.503   1.089  0.00  0.00    +0.000 A 
ATOM     21  C   LIG    1       -0.008   1.385   0.074  0.00  0.00    +0.080 A 
ATOM     22  C   LIG    1        0.861   1.596  -0.978  0.00  0.00    -0.050 A 
ATOM     23  C   LIG    1        2.072   0.922  -1.024  0.00  0.00    +0.150 A 
BRANCH  23  24
ATOM     24  O   LIG    1        2.928   1.128  -2.057  0.00  0.00    -0.310 OA
BRANCH  24  25
ATOM     25  C   LIG    1        2.516   2.053  -3.066  0.00  0.00    +0.600 C 
ATOM     26  F   LIG    1        2.313   3.312  -2.489  0.00  0.00    -0.190 F 
ATOM     27  F   LIG    1        1.324   1.609  -3.647  0.00  0.00    -0.200 F 
ENDBRANCH  24  25
ENDBRANCH  23  24
ENDBRANCH   2  18
TORSDOF 4
