REMARK  Name = ZINCrg000000sktd.0
REMARK                            x       y       z     vdW  Elec       q    Type
REMARK                         _______ _______ _______ _____ _____    ______ ____
ROOT
ATOM      1  C   LIG    1       -3.226  -1.866  -1.866  0.00  0.00    +0.550 C 
ATOM      2  N   LIG    1       -3.733  -2.140  -3.084  0.00  0.00    -0.710 N 
ATOM      3  H   LIG    1       -3.253  -1.867  -3.882  0.00  0.00    +0.410 HD
ATOM      4  O   LIG    1       -3.826  -2.207  -0.869  0.00  0.00    -0.530 OA
ENDROOT
BRANCH   1   5
ATOM      5  C   LIG    1       -1.914  -1.135  -1.742  0.00  0.00    -0.310 C 
BRANCH   5   6
ATOM      6  S   LIG    1       -1.505  -0.919   0.012  0.00  0.00    +2.560 S 
ATOM      7  O   LIG    1       -2.408  -0.011   0.626  0.00  0.00    -0.880 OA
ATOM      8  O   LIG    1       -1.204  -2.171   0.612  0.00  0.00    -0.890 OA
BRANCH   6  13
ATOM      9  C   LIG    1        3.686   1.975  -0.022  0.00  0.00    +0.130 C 
ATOM     10  C   LIG    1        2.370   1.241  -0.014  0.00  0.00    -0.130 A 
ATOM     11  C   LIG    1        1.170   1.935  -0.003  0.00  0.00    +0.310 A 
ATOM     12  N   LIG    1        0.034   1.257   0.005  0.00  0.00    -0.430 NA
ATOM     13  C   LIG    1        0.034  -0.061   0.002  0.00  0.00    -0.240 A 
ATOM     14  N   LIG    1        1.155  -0.754  -0.009  0.00  0.00    -0.430 NA
ATOM     15  C   LIG    1        2.329  -0.144  -0.016  0.00  0.00    +0.310 A 
ENDBRANCH   6  13
ENDBRANCH   5   6
ENDBRANCH   1   5
BRANCH   2  16
ATOM     16  C   LIG    1       -5.008  -2.850  -3.204  0.00  0.00    +0.320 C 
BRANCH  16  17
ATOM     17  C   LIG    1       -5.348  -3.030  -4.661  0.00  0.00    -0.140 A 
ATOM     18  C   LIG    1       -6.092  -2.068  -5.320  0.00  0.00    +0.060 A 
ATOM     19  C   LIG    1       -6.401  -2.228  -6.656  0.00  0.00    +0.000 A 
ATOM     20  C   LIG    1       -5.973  -3.360  -7.336  0.00  0.00    +0.180 A 
ATOM     21  C   LIG    1       -5.231  -4.327  -6.671  0.00  0.00    -0.030 A 
ATOM     22  C   LIG    1       -4.920  -4.159  -5.335  0.00  0.00    +0.060 A 
BRANCH  20  23
ATOM     23  N   LIG    1       -6.290  -3.527  -8.689  0.00  0.00    -0.560 N 
ATOM     24  C   LIG    1       -5.787  -4.622  -9.528  0.00  0.00    +0.260 C 
ATOM     25  C   LIG    1       -6.024  -4.167 -10.985  0.00  0.00    +0.060 C 
ATOM     26  C   LIG    1       -7.205  -3.182 -10.819  0.00  0.00    +0.070 C 
ATOM     27  C   LIG    1       -7.098  -2.710  -9.386  0.00  0.00    +0.520 C 
ATOM     28  O   LIG    1       -7.657  -1.734  -8.932  0.00  0.00    -0.510 OA
ENDBRANCH  20  23
ENDBRANCH  16  17
ENDBRANCH   2  16
TORSDOF 6
