REMARK  Name = ZINCrH00000No57H.0
REMARK                            x       y       z     vdW  Elec       q    Type
REMARK                         _______ _______ _______ _____ _____    ______ ____
ROOT
ATOM      1  C   LIG    1        0.112  -4.313  -0.021  0.00  0.00    +0.220 A 
ATOM      2  N   LIG    1       -0.939  -5.120  -0.015  0.00  0.00    -0.460 NA
ATOM      3  C   LIG    1       -0.433  -6.369  -0.027  0.00  0.00    +0.210 A 
ATOM      4  N   LIG    1        0.871  -6.265  -0.039  0.00  0.00    -0.370 NA
ATOM      5  O   LIG    1        1.203  -5.098  -0.041  0.00  0.00    +0.090 OA
ENDROOT
BRANCH   3   6
ATOM      6  C   LIG    1       -1.213  -7.633  -0.026  0.00  0.00    +0.050 A 
ATOM      7  C   LIG    1       -2.611  -7.613  -0.007  0.00  0.00    -0.010 A 
ATOM      8  C   LIG    1       -3.302  -8.807  -0.013  0.00  0.00    +0.300 A 
ATOM      9  N   LIG    1       -2.662  -9.961  -0.026  0.00  0.00    -0.510 NA
ATOM     10  C   LIG    1       -1.339 -10.028  -0.039  0.00  0.00    +0.320 A 
ATOM     11  C   LIG    1       -0.571  -8.870  -0.040  0.00  0.00    -0.010 A 
BRANCH  10  12
ATOM     12  N   LIG    1       -0.713 -11.269  -0.053  0.00  0.00    -0.470 N 
ATOM     13  C   LIG    1        0.201 -11.385  -1.196  0.00  0.00    +0.190 C 
ATOM     14  C   LIG    1        0.977 -12.700  -1.099  0.00  0.00    +0.030 C 
ATOM     15  C   LIG    1       -0.010 -13.871  -1.090  0.00  0.00    +0.010 C 
ATOM     16  C   LIG    1       -0.981 -13.700   0.082  0.00  0.00    +0.020 C 
ATOM     17  C   LIG    1       -1.700 -12.356  -0.050  0.00  0.00    +0.210 C 
ENDBRANCH  10  12
ENDBRANCH   3   6
BRANCH   1  19
ATOM     18  C   LIG    1        1.246  -2.157  -0.021  0.00  0.00    +0.110 C 
ATOM     19  C   LIG    1        0.089  -2.849  -0.013  0.00  0.00    +0.060 C 
BRANCH  18  23
ATOM     20  C   LIG    1        1.173   2.088   0.002  0.00  0.00    +0.100 A 
ATOM     21  C   LIG    1       -0.017   1.374   0.010  0.00  0.00    +0.010 A 
ATOM     22  C   LIG    1        0.002  -0.004   0.002  0.00  0.00    +0.050 A 
ATOM     23  C   LIG    1        1.223  -0.686  -0.013  0.00  0.00    -0.070 A 
ATOM     24  C   LIG    1        2.422   0.034  -0.021  0.00  0.00    +0.040 A 
ATOM     25  C   LIG    1        2.395   1.415  -0.013  0.00  0.00    +0.080 A 
BRANCH  20  26
ATOM     26  O   LIG    1        1.149   3.446   0.010  0.00  0.00    -0.490 OA
ATOM     27  H   LIG    1        1.150   3.835   0.895  0.00  0.00    +0.400 HD
ENDBRANCH  20  26
BRANCH  25  28
ATOM     28  O   LIG    1        3.558   2.118  -0.021  0.00  0.00    -0.490 OA
ATOM     29  H   LIG    1        3.887   2.327  -0.906  0.00  0.00    +0.400 HD
ENDBRANCH  25  28
ENDBRANCH  18  23
ENDBRANCH   1  19
TORSDOF 6
