REMARK  Name = ZINCrg00000BsI9W.0
REMARK                            x       y       z     vdW  Elec       q    Type
REMARK                         _______ _______ _______ _____ _____    ______ ____
ROOT
ATOM      1  C   LIG    1       -4.892   1.271   0.032  0.00  0.00    +0.200 C 
ENDROOT
BRANCH   1   2
ATOM      2  O   LIG    1       -4.880   0.522   1.249  0.00  0.00    -0.550 OA
ATOM      3  H   LIG    1       -4.966   1.064   2.046  0.00  0.00    +0.380 HD
ENDBRANCH   1   2
BRANCH   1   4
ATOM      4  C   LIG    1       -6.213   2.035  -0.083  0.00  0.00    +0.260 C 
BRANCH   4   7
ATOM      5  O   LIG    1       -8.813   2.728  -0.260  0.00  0.00    -0.520 OA
ATOM      6  C   LIG    1       -8.595   1.535  -0.176  0.00  0.00    +0.560 C 
ATOM      7  N   LIG    1       -7.328   1.086  -0.083  0.00  0.00    -0.720 N 
ATOM      8  H   LIG    1       -7.155   0.134  -0.015  0.00  0.00    +0.410 HD
BRANCH   6   9
ATOM      9  C   LIG    1       -9.721   0.577  -0.176  0.00  0.00    -0.090 A 
ATOM     10  C   LIG    1      -11.034   1.039  -0.272  0.00  0.00    +0.070 A 
ATOM     11  C   LIG    1      -12.082   0.138  -0.272  0.00  0.00    +0.110 A 
ATOM     12  C   LIG    1      -11.831  -1.221  -0.176  0.00  0.00    +0.030 A 
ATOM     13  C   LIG    1      -10.530  -1.685  -0.080  0.00  0.00    -0.010 A 
ATOM     14 CL   LIG    1      -10.224  -3.389   0.041  0.00  0.00    -0.040 Cl
ATOM     15  F   LIG    1      -13.355   0.583  -0.365  0.00  0.00    -0.120 F 
ATOM     16  C   LIG    1       -9.474  -0.794  -0.085  0.00  0.00    +0.060 A 
ENDBRANCH   6   9
ENDBRANCH   4   7
ENDBRANCH   1   4
BRANCH   1  17
ATOM     17  C   LIG    1       -3.727   2.263   0.032  0.00  0.00    +0.260 C 
BRANCH  17  18
ATOM     18  N   LIG    1       -2.460   1.528   0.022  0.00  0.00    -0.710 N 
ATOM     19  H   LIG    1       -2.462   0.557   0.017  0.00  0.00    +0.420 HD
ATOM     20  C   LIG    1       -1.291   2.199   0.020  0.00  0.00    +0.570 C 
ATOM     21  O   LIG    1       -1.289   3.415   0.027  0.00  0.00    -0.530 OA
BRANCH  20  22
ATOM     22  C   LIG    1       -0.018   1.460   0.010  0.00  0.00    -0.110 A 
ATOM     23  C   LIG    1        1.198   2.133   0.002  0.00  0.00    +0.170 A 
ATOM     24  C   LIG    1        2.387   1.399  -0.014  0.00  0.00    +0.020 A 
ATOM     25  C   LIG    1        2.376   0.048  -0.021  0.00  0.00    +0.280 A 
ATOM     26  N   LIG    1        1.211  -0.656  -0.013  0.00  0.00    -0.400 N 
ATOM     27  C   LIG    1        0.913  -1.985  -0.017  0.00  0.00    +0.360 A 
ATOM     28  N   LIG    1       -0.389  -2.095  -0.005  0.00  0.00    -0.240 NA
ATOM     29  N   LIG    1       -0.935  -0.930   0.006  0.00  0.00    -0.300 NA
ATOM     30  C   LIG    1        0.002  -0.004   0.002  0.00  0.00    +0.210 A 
ENDBRANCH  20  22
ENDBRANCH  17  18
ENDBRANCH   1  17
TORSDOF 7
