REMARK  Name = ZINCvU0000000C0g.0
REMARK                            x       y       z     vdW  Elec       q    Type
REMARK                         _______ _______ _______ _____ _____    ______ ____
ROOT
ATOM      1  N   LIG    1       -0.072   6.586  -0.806  0.00  0.00    -0.980 NA
ENDROOT
BRANCH   1   2
ATOM      2  S   LIG    1        1.329   6.525  -1.687  0.00  0.00    +2.670 S 
ATOM      3  O   LIG    1        0.960   6.730  -3.043  0.00  0.00    -0.930 OA
ATOM      4  O   LIG    1        2.035   5.376  -1.239  0.00  0.00    -0.940 OA
BRANCH   2   5
ATOM      5  C   LIG    1        2.300   7.919  -1.219  0.00  0.00    -0.640 A 
ATOM      6  C   LIG    1        3.479   7.737  -0.521  0.00  0.00    +0.140 A 
ATOM      7  C   LIG    1        4.243   8.831  -0.158  0.00  0.00    +0.040 A 
ATOM      8  C   LIG    1        3.822  10.107  -0.484  0.00  0.00    +0.090 A 
ATOM      9  C   LIG    1        2.640  10.289  -1.177  0.00  0.00    +0.060 A 
ATOM     10  C   LIG    1        1.879   9.195  -1.544  0.00  0.00    -0.090 A 
BRANCH  10  11
ATOM     11  C   LIG    1        0.590   9.394  -2.300  0.00  0.00    +0.470 C 
ATOM     12  F   LIG    1       -0.457   8.778  -1.605  0.00  0.00    -0.150 F 
ATOM     13  F   LIG    1        0.703   8.826  -3.573  0.00  0.00    -0.140 F 
ATOM     14  F   LIG    1        0.327  10.762  -2.421  0.00  0.00    -0.170 F 
ENDBRANCH  10  11
ENDBRANCH   2   5
ENDBRANCH   1   2
BRANCH   1  15
ATOM     15  C   LIG    1       -0.056   7.110   0.561  0.00  0.00    +0.340 C 
BRANCH  15  19
ATOM     16  C   LIG    1        0.156   3.858   3.331  0.00  0.00    -0.020 A 
ATOM     17  C   LIG    1       -1.082   4.400   2.980  0.00  0.00    +0.070 A 
ATOM     18  C   LIG    1       -1.142   5.453   2.090  0.00  0.00    +0.040 A 
ATOM     19  C   LIG    1        0.019   5.964   1.537  0.00  0.00    -0.080 A 
ATOM     20  C   LIG    1        1.248   5.427   1.877  0.00  0.00    +0.030 A 
ATOM     21  C   LIG    1        1.324   4.378   2.769  0.00  0.00    +0.070 A 
BRANCH  16  23
ATOM     22  N   LIG    1        0.284   1.905   4.994  0.00  0.00    -0.410 NA
ATOM     23  C   LIG    1        0.227   2.769   4.258  0.00  0.00    +0.250 C 
ENDBRANCH  16  23
ENDBRANCH  15  19
ENDBRANCH   1  15
BRANCH   1  24
ATOM     24  C   LIG    1       -1.328   6.115  -1.396  0.00  0.00    +0.360 C 
BRANCH  24  25
ATOM     25  C   LIG    1       -2.147   7.298  -1.843  0.00  0.00    -0.110 A 
ATOM     26  C   LIG    1       -2.962   7.955  -0.941  0.00  0.00    +0.050 A 
ATOM     27  C   LIG    1       -3.710   9.044  -1.349  0.00  0.00    -0.030 A 
ATOM     28  C   LIG    1       -3.650   9.470  -2.665  0.00  0.00    +0.100 A 
ATOM     29  C   LIG    1       -2.838   8.807  -3.570  0.00  0.00    -0.030 A 
ATOM     30  F   LIG    1       -4.385  10.530  -3.067  0.00  0.00    -0.140 F 
ATOM     31  C   LIG    1       -2.087   7.723  -3.158  0.00  0.00    +0.070 A 
ENDBRANCH  24  25
ENDBRANCH   1  24
TORSDOF 8
