REMARK  Name = ZINCvU0000000JfX.0
REMARK                            x       y       z     vdW  Elec       q    Type
REMARK                         _______ _______ _______ _____ _____    ______ ____
ROOT
ATOM      1  C   LIG    1        3.604   5.500  -0.003  0.00  0.00    +0.280 C 
ATOM      2  C   LIG    1        5.145   5.579   0.011  0.00  0.00    +0.050 C 
ATOM      3  C   LIG    1        5.558   4.198   0.585  0.00  0.00    +0.040 C 
ATOM      4  C   LIG    1        4.475   3.272  -0.017  0.00  0.00    +0.240 C 
ATOM      5  N   LIG    1        3.240   4.076  -0.007  0.00  0.00    -0.610 N 
ATOM      6  C   LIG    1        1.984   3.586   0.002  0.00  0.00    +0.550 C 
ATOM      7  O   LIG    1        1.037   4.344   0.015  0.00  0.00    -0.510 OA
ENDROOT
BRANCH   1  12
ATOM      8  C   LIG    1        2.207   6.025  -3.475  0.00  0.00    +0.100 A 
ATOM      9  C   LIG    1        2.083   7.406  -3.518  0.00  0.00    -0.040 A 
ATOM     10  C   LIG    1        2.450   8.167  -2.425  0.00  0.00    -0.040 A 
ATOM     11  C   LIG    1        2.943   7.551  -1.285  0.00  0.00    +0.100 A 
ATOM     12  C   LIG    1        3.067   6.170  -1.242  0.00  0.00    -0.080 A 
ATOM     13  C   LIG    1        2.705   5.409  -2.336  0.00  0.00    +0.040 A 
BRANCH   8  15
ATOM     14  C   LIG    1        1.346   5.977  -5.691  0.00  0.00    +0.230 C 
ATOM     15  O   LIG    1        1.845   5.276  -4.550  0.00  0.00    -0.320 OA
ENDBRANCH   8  15
BRANCH  11  16
ATOM     16  O   LIG    1        3.305   8.300  -0.210  0.00  0.00    -0.310 OA
ATOM     17  C   LIG    1        3.150   9.716  -0.324  0.00  0.00    +0.230 C 
ENDBRANCH  11  16
ENDBRANCH   1  12
BRANCH   6  18
ATOM     18  C   LIG    1        1.756   2.096  -0.004  0.00  0.00    +0.080 C 
BRANCH  18  19
ATOM     19  S   LIG    1       -0.022   1.758   0.012  0.00  0.00    +0.080 S 
BRANCH  19  20
ATOM     20  C   LIG    1        0.002  -0.004   0.002  0.00  0.00    +0.200 A 
ATOM     21  C   LIG    1       -1.210  -0.742   0.010  0.00  0.00    -0.160 A 
ATOM     22  C   LIG    1       -1.118  -2.136   0.001  0.00  0.00    +0.100 A 
ATOM     23  S   LIG    1       -2.731  -2.834   0.013  0.00  0.00    +0.170 S 
ATOM     24  C   LIG    1       -3.488  -1.252   0.029  0.00  0.00    -0.170 A 
ATOM     25  C   LIG    1       -4.978  -1.024   0.045  0.00  0.00    +0.140 C 
ATOM     26  N   LIG    1        0.092  -2.709  -0.015  0.00  0.00    -0.500 NA
ATOM     27  C   LIG    1        1.186  -1.982  -0.022  0.00  0.00    +0.350 A 
ATOM     28  C   LIG    1        2.522  -2.678  -0.040  0.00  0.00    +0.190 C 
ATOM     29  C   LIG    1       -2.588  -0.288   0.026  0.00  0.00    -0.070 A 
ATOM     30  C   LIG    1       -2.962   1.172   0.037  0.00  0.00    +0.140 C 
ATOM     31  N   LIG    1        1.153  -0.662  -0.018  0.00  0.00    -0.530 NA
ENDBRANCH  19  20
ENDBRANCH  18  19
ENDBRANCH   6  18
TORSDOF 6
