REMARK  Name = ZINCpk000000pIy8.0
REMARK                            x       y       z     vdW  Elec       q    Type
REMARK                         _______ _______ _______ _____ _____    ______ ____
ROOT
ATOM      1  C   LIG    1       -1.456   2.057  -3.443  0.00  0.00    -0.160 A 
ATOM      2  C   LIG    1       -2.548   2.792  -2.973  0.00  0.00    +0.080 A 
ATOM      3  C   LIG    1       -2.753   2.931  -1.622  0.00  0.00    -0.010 A 
ATOM      4  C   LIG    1       -1.875   2.341  -0.706  0.00  0.00    +0.190 A 
ATOM      5  C   LIG    1       -0.791   1.610  -1.178  0.00  0.00    -0.140 A 
ATOM      6  C   LIG    1       -0.013   1.086   0.008  0.00  0.00    +0.120 C 
ATOM      7  C   LIG    1       -0.781   1.606   1.234  0.00  0.00    +0.240 C 
ATOM      8  C   LIG    1       -1.288   0.435   2.078  0.00  0.00    +0.040 C 
ATOM      9  N   LIG    1       -1.910   2.365   0.684  0.00  0.00    -0.930 N 
ATOM     10  C   LIG    1       -0.578   1.466  -2.530  0.00  0.00    +0.130 A 
ENDROOT
BRANCH   1  13
ATOM     11  N   LIG    1       -2.083   2.477  -5.770  0.00  0.00    -0.720 N 
ATOM     12  H   LIG    1       -2.841   2.988  -5.447  0.00  0.00    +0.410 HD
ATOM     13  C   LIG    1       -1.233   1.905  -4.894  0.00  0.00    +0.570 C 
ATOM     14  O   LIG    1       -0.282   1.264  -5.299  0.00  0.00    -0.530 OA
BRANCH  11  15
ATOM     15  C   LIG    1       -1.861   2.326  -7.210  0.00  0.00    +0.200 C 
ATOM     16  C   LIG    1       -1.894   0.841  -7.579  0.00  0.00    +0.070 C 
BRANCH  15  18
ATOM     17  C   LIG    1       -0.419   4.363  -7.100  0.00  0.00    +0.010 C 
ATOM     18  C   LIG    1       -0.497   2.913  -7.580  0.00  0.00    +0.060 C 
ENDBRANCH  15  18
BRANCH  15  19
ATOM     19  C   LIG    1       -2.943   3.054  -7.964  0.00  0.00    +0.460 C 
ATOM     20  O   LIG    1       -2.686   3.604  -9.009  0.00  0.00    -0.490 OA
BRANCH  19  21
ATOM     21  O   LIG    1       -4.192   3.093  -7.475  0.00  0.00    -0.360 OA
ATOM     22  C   LIG    1       -5.184   3.813  -8.254  0.00  0.00    +0.280 C 
ENDBRANCH  19  21
ENDBRANCH  15  19
ENDBRANCH  11  15
ENDBRANCH   1  13
BRANCH   9  23
ATOM     23  S   LIG    1       -3.060   3.139   1.589  0.00  0.00    +2.610 S 
ATOM     24  O   LIG    1       -3.526   4.183   0.744  0.00  0.00    -0.940 OA
ATOM     25  O   LIG    1       -2.405   3.428   2.816  0.00  0.00    -0.940 OA
ATOM     26  C   LIG    1       -4.356   1.894   1.836  0.00  0.00    -0.270 C 
ENDBRANCH   9  23
TORSDOF 6
