REMARK  Name = ZINCrH000004jnc1.0
REMARK                            x       y       z     vdW  Elec       q    Type
REMARK                         _______ _______ _______ _____ _____    ______ ____
ROOT
ATOM      1  C   LIG    1        0.129   2.112   1.807  0.00  0.00    +0.590 C 
ATOM      2  N   LIG    1       -0.515   1.099   1.194  0.00  0.00    -0.600 N 
ATOM      3  C   LIG    1        0.129   0.316   0.126  0.00  0.00    +0.270 C 
ATOM      4  C   LIG    1       -0.688   0.492  -1.155  0.00  0.00    +0.270 C 
ATOM      5  N   LIG    1       -2.110   0.323  -0.889  0.00  0.00    -0.720 N 
ATOM      6  H   LIG    1       -2.684   0.090  -1.635  0.00  0.00    +0.410 HD
ATOM      7  C   LIG    1       -2.678   0.465   0.310  0.00  0.00    +0.520 C 
ATOM      8  O   LIG    1       -3.885   0.376   0.392  0.00  0.00    -0.510 OA
ATOM      9  C   LIG    1       -1.891   0.731   1.564  0.00  0.00    +0.320 C 
ATOM     10  O   LIG    1       -0.378   2.666   2.764  0.00  0.00    -0.520 OA
ENDROOT
BRANCH   1  12
ATOM     11  N   LIG    1        2.402   3.203   2.070  0.00  0.00    -0.440 N 
ATOM     12  C   LIG    1        1.446   2.549   1.318  0.00  0.00    +0.030 A 
ATOM     13  C   LIG    1        1.912   2.379   0.053  0.00  0.00    +0.000 A 
ATOM     14  C   LIG    1        3.212   2.937  -0.005  0.00  0.00    -0.120 A 
ATOM     15  C   LIG    1        4.163   3.055  -1.026  0.00  0.00    +0.070 A 
ATOM     16  C   LIG    1        5.360   3.661  -0.773  0.00  0.00    -0.020 A 
ATOM     17  C   LIG    1        5.645   4.163   0.490  0.00  0.00    +0.040 A 
ATOM     18  C   LIG    1        4.726   4.060   1.510  0.00  0.00    -0.010 A 
ATOM     19  C   LIG    1        3.499   3.446   1.277  0.00  0.00    +0.110 A 
BRANCH  11  21
ATOM     20  C   LIG    1        2.650   2.378   4.359  0.00  0.00    +0.040 C 
ATOM     21  C   LIG    1        2.272   3.573   3.481  0.00  0.00    +0.300 C 
ENDBRANCH  11  21
ENDBRANCH   1  12
BRANCH   9  22
ATOM     22  C   LIG    1       -1.868  -0.511   2.418  0.00  0.00    -0.070 A 
ATOM     23  C   LIG    1       -0.714  -1.266   2.508  0.00  0.00    +0.030 A 
ATOM     24  C   LIG    1       -0.692  -2.402   3.296  0.00  0.00    +0.020 A 
ATOM     25  C   LIG    1       -1.826  -2.789   3.985  0.00  0.00    +0.020 A 
ATOM     26  C   LIG    1       -2.982  -2.037   3.891  0.00  0.00    +0.050 A 
ATOM     27  C   LIG    1       -3.003  -0.897   3.108  0.00  0.00    -0.070 A 
ATOM     28 BR   LIG    1       -4.584   0.133   2.979  0.00  0.00    -0.020 Br
ENDBRANCH   9  22
TORSDOF 3
