REMARK  Name = ZINCkj00000dDrkP.1
REMARK                            x       y       z     vdW  Elec       q    Type
REMARK                         _______ _______ _______ _____ _____    ______ ____
ROOT
ATOM      1  N   LIG    1       -0.394  -3.067   0.718  0.00  0.00    -0.740 N 
ATOM      2  H   LIG    1       -0.697  -3.799   1.277  0.00  0.00    +0.410 HD
ATOM      3  C   LIG    1        0.888  -2.655   0.782  0.00  0.00    +0.710 C 
ATOM      4  N   LIG    1        1.748  -3.260   1.625  0.00  0.00    -0.670 N 
ATOM      5  H   LIG    1        1.428  -3.938   2.241  0.00  0.00    +0.410 HD
ATOM      6  O   LIG    1        1.268  -1.738   0.081  0.00  0.00    -0.560 OA
ENDROOT
BRANCH   4   7
ATOM      7  C   LIG    1        3.103  -2.907   1.616  0.00  0.00    +0.100 A 
ATOM      8  C   LIG    1        3.692  -2.399   0.462  0.00  0.00    +0.070 A 
ATOM      9  C   LIG    1        5.035  -2.059   0.503  0.00  0.00    -0.010 A 
ATOM     10  C   LIG    1        5.742  -2.243   1.676  0.00  0.00    +0.250 A 
ATOM     11  N   LIG    1        5.155  -2.731   2.752  0.00  0.00    -0.460 NA
ATOM     12  C   LIG    1        3.880  -3.063   2.756  0.00  0.00    +0.240 A 
ENDBRANCH   4   7
BRANCH   1  13
ATOM     13  C   LIG    1       -1.329  -2.409  -0.198  0.00  0.00    +0.310 C 
BRANCH  13  18
ATOM     14  N   LIG    1       -3.700  -2.252  -0.833  0.00  0.00    -0.380 N 
ATOM     15  C   LIG    1       -4.311  -3.210  -1.779  0.00  0.00    +0.260 C 
ATOM     16  C   LIG    1       -4.161  -4.591  -1.095  0.00  0.00    +0.080 C 
ATOM     17  C   LIG    1       -2.770  -4.458  -0.421  0.00  0.00    +0.080 C 
ATOM     18  C   LIG    1       -2.733  -2.978   0.011  0.00  0.00    +0.160 C 
ATOM     19  H   LIG    1       -4.417  -1.843  -0.253  0.00  0.00    +0.440 HD
BRANCH  14  20
ATOM     20  C   LIG    1       -3.006  -1.196  -1.582  0.00  0.00    +0.270 C 
BRANCH  20  21
ATOM     21  C   LIG    1       -4.024  -0.395  -2.397  0.00  0.00    +0.200 C 
BRANCH  21  23
ATOM     22  C   LIG    1       -5.907   1.072  -2.173  0.00  0.00    +0.240 C 
ATOM     23  O   LIG    1       -4.911   0.290  -1.510  0.00  0.00    -0.400 OA
ENDBRANCH  21  23
ENDBRANCH  20  21
ENDBRANCH  14  20
ENDBRANCH  13  18
ENDBRANCH   1  13
TORSDOF 6
