REMARK  Name = ZINCkj00000dDrkP.0
REMARK                            x       y       z     vdW  Elec       q    Type
REMARK                         _______ _______ _______ _____ _____    ______ ____
ROOT
ATOM      1  N   LIG    1       -1.622   1.883   0.244  0.00  0.00    -0.760 N 
ATOM      2  H   LIG    1       -1.593   2.853   0.250  0.00  0.00    +0.390 HD
ATOM      3  C   LIG    1       -0.482   1.175   0.363  0.00  0.00    +0.710 C 
ATOM      4  N   LIG    1        0.699   1.813   0.485  0.00  0.00    -0.670 N 
ATOM      5  H   LIG    1        0.737   2.780   0.413  0.00  0.00    +0.410 HD
ATOM      6  O   LIG    1       -0.518  -0.041   0.356  0.00  0.00    -0.550 OA
ENDROOT
BRANCH   4   7
ATOM      7  C   LIG    1        1.870   1.081   0.714  0.00  0.00    +0.100 A 
ATOM      8  C   LIG    1        1.833  -0.095   1.458  0.00  0.00    +0.070 A 
ATOM      9  C   LIG    1        3.018  -0.787   1.654  0.00  0.00    -0.010 A 
ATOM     10  C   LIG    1        4.189  -0.285   1.119  0.00  0.00    +0.250 A 
ATOM     11  N   LIG    1        4.191   0.835   0.422  0.00  0.00    -0.460 NA
ATOM     12  C   LIG    1        3.086   1.521   0.208  0.00  0.00    +0.240 A 
ENDBRANCH   4   7
BRANCH   1  13
ATOM     13  C   LIG    1       -2.905   1.190   0.106  0.00  0.00    +0.340 C 
BRANCH  13  18
ATOM     14  N   LIG    1       -3.749   3.147  -1.120  0.00  0.00    -0.390 N 
ATOM     15  C   LIG    1       -4.828   3.023  -2.124  0.00  0.00    +0.280 C 
ATOM     16  C   LIG    1       -6.044   2.481  -1.332  0.00  0.00    +0.080 C 
ATOM     17  C   LIG    1       -5.361   1.506  -0.337  0.00  0.00    +0.100 C 
ATOM     18  C   LIG    1       -4.031   2.218  -0.011  0.00  0.00    +0.160 C 
ATOM     19  H   LIG    1       -2.865   2.911  -1.544  0.00  0.00    +0.420 HD
BRANCH  14  20
ATOM     20  C   LIG    1       -3.703   4.525  -0.612  0.00  0.00    +0.270 C 
BRANCH  20  21
ATOM     21  C   LIG    1       -3.157   5.452  -1.700  0.00  0.00    +0.200 C 
BRANCH  21  23
ATOM     22  C   LIG    1       -3.686   6.384  -3.844  0.00  0.00    +0.240 C 
ATOM     23  O   LIG    1       -4.101   5.538  -2.770  0.00  0.00    -0.400 OA
ENDBRANCH  21  23
ENDBRANCH  20  21
ENDBRANCH  14  20
ENDBRANCH  13  18
ENDBRANCH   1  13
TORSDOF 6
