REMARK  Name = ZINCrg000000tOKY.0
REMARK                            x       y       z     vdW  Elec       q    Type
REMARK                         _______ _______ _______ _____ _____    ______ ____
ROOT
ATOM      1  O   LIG    1        7.903  -1.744   0.445  0.00  0.00    -0.480 OA
ATOM      2  C   LIG    1        7.178  -0.818   0.140  0.00  0.00    +0.620 C 
ATOM      3  N   LIG    1        7.660   0.441   0.129  0.00  0.00    -0.600 N 
ENDROOT
BRANCH   3   4
ATOM      4  C   LIG    1        6.743   1.578   0.236  0.00  0.00    +0.280 C 
ATOM      5  C   LIG    1        5.769   1.361   1.407  0.00  0.00    +0.060 C 
ATOM      6  C   LIG    1        4.618   2.380   1.289  0.00  0.00    -0.300 C 
ATOM      7  S   LIG    1        4.482   2.739  -0.500  0.00  0.00    +2.380 S 
ATOM      8  O   LIG    1        3.264   2.204  -0.999  0.00  0.00    -0.900 OA
ATOM      9  O   LIG    1        4.804   4.104  -0.732  0.00  0.00    -0.920 OA
ATOM     10  C   LIG    1        5.878   1.685  -1.047  0.00  0.00    -0.350 C 
ENDBRANCH   3   4
BRANCH   2  11
ATOM     11  C   LIG    1        5.767  -1.071  -0.220  0.00  0.00    -0.060 A 
ATOM     12  N   LIG    1        5.267  -2.218  -0.643  0.00  0.00    -0.160 NA
ATOM     13  N   LIG    1        4.006  -2.080  -0.862  0.00  0.00    -0.160 N 
ATOM     14  N   LIG    1        3.638  -0.760  -0.573  0.00  0.00    -0.250 NA
ATOM     15  C   LIG    1        4.720  -0.135  -0.172  0.00  0.00    +0.210 A 
BRANCH  13  16
ATOM     16  C   LIG    1        3.144  -3.086  -1.320  0.00  0.00    +0.140 A 
ATOM     17  C   LIG    1        1.778  -2.848  -1.397  0.00  0.00    +0.040 A 
ATOM     18  C   LIG    1        0.931  -3.841  -1.850  0.00  0.00    +0.040 A 
ATOM     19  C   LIG    1        1.442  -5.069  -2.226  0.00  0.00    +0.020 A 
ATOM     20  C   LIG    1        2.802  -5.309  -2.151  0.00  0.00    +0.040 A 
ATOM     21  C   LIG    1        3.654  -4.320  -1.698  0.00  0.00    +0.030 A 
ENDBRANCH  13  16
ENDBRANCH   2  11
BRANCH   3  22
ATOM     22  C   LIG    1        9.102   0.671   0.010  0.00  0.00    +0.320 C 
BRANCH  22  23
ATOM     23  C   LIG    1        9.480   0.787  -1.468  0.00  0.00    +0.120 C 
ATOM     24  C   LIG    1       10.996   1.030  -1.604  0.00  0.00    +0.010 C 
ATOM     25  C   LIG    1       11.495  -0.156  -2.465  0.00  0.00    +0.010 C 
ATOM     26  C   LIG    1       10.191  -0.620  -3.164  0.00  0.00    +0.200 C 
ATOM     27  O   LIG    1        9.182  -0.445  -2.146  0.00  0.00    -0.360 OA
ENDBRANCH  22  23
ENDBRANCH   3  22
TORSDOF 5
