REMARK  Name = ZINCc70000002G6p.0
REMARK                            x       y       z     vdW  Elec       q    Type
REMARK                         _______ _______ _______ _____ _____    ______ ____
ROOT
ATOM      1  C   LIG    1       -1.251   3.133   0.031  0.00  0.00    -0.690 A 
ATOM      2  C   LIG    1       -1.222   1.750   0.017  0.00  0.00    +0.160 A 
ATOM      3  C   LIG    1       -0.013   1.076   0.008  0.00  0.00    -0.010 A 
ATOM      4  C   LIG    1        1.173   1.780   0.000  0.00  0.00    +0.130 A 
ATOM      5  C   LIG    1        1.152   3.178   0.008  0.00  0.00    -0.210 A 
ATOM      6  C   LIG    1       -0.074   3.852   0.023  0.00  0.00    +0.190 A 
ENDROOT
BRANCH   1   7
ATOM      7  S   LIG    1       -2.796   3.979   0.050  0.00  0.00    +2.700 S 
ATOM      8  O   LIG    1       -2.543   5.266   0.598  0.00  0.00    -0.960 OA
ATOM      9  O   LIG    1       -3.743   3.073   0.598  0.00  0.00    -0.960 OA
BRANCH   7  10
ATOM     10  N   LIG    1       -3.241   4.223  -1.527  0.00  0.00    -1.250 NA
ATOM     11  H   LIG    1       -4.073   4.678  -1.732  0.00  0.00    +0.420 HD
ATOM     12  H   LIG    1       -2.670   3.910  -2.246  0.00  0.00    +0.420 HD
ENDBRANCH   7  10
ENDBRANCH   1   7
BRANCH   5  13
ATOM     13  C   LIG    1        2.413   3.937   0.001  0.00  0.00    +0.490 C 
ATOM     14  O   LIG    1        2.391   5.149   0.007  0.00  0.00    -0.450 OA
ENDBRANCH   5  13
TORSDOF 3
