REMARK  Name = ZINCpe000027pHqP.0
REMARK                            x       y       z     vdW  Elec       q    Type
REMARK                         _______ _______ _______ _____ _____    ______ ____
ROOT
ATOM      1  N   LIG    1       -7.209   2.619  -2.297  0.00  0.00    -0.530 NA
ATOM      2  C   LIG    1       -7.041   1.159  -2.344  0.00  0.00    +0.200 C 
ATOM      3  C   LIG    1       -6.369   0.684  -1.054  0.00  0.00    +0.200 C 
ATOM      4  N   LIG    1       -5.071   1.357  -0.903  0.00  0.00    -0.520 NA
ATOM      5  C   LIG    1       -5.240   2.816  -0.856  0.00  0.00    +0.200 C 
ATOM      6  C   LIG    1       -5.912   3.291  -2.147  0.00  0.00    +0.180 C 
ENDROOT
BRANCH   1   7
ATOM      7  C   LIG    1       -7.920   3.105  -3.487  0.00  0.00    +0.270 C 
ATOM      8  C   LIG    1       -9.302   2.454  -3.558  0.00  0.00    +0.080 C 
BRANCH   7  13
ATOM      9  C   LIG    1       -8.021   7.998  -4.547  0.00  0.00    +0.210 C 
ATOM     10  C   LIG    1       -8.120   6.672  -3.837  0.00  0.00    +0.170 A 
ATOM     11  N   LIG    1       -8.476   6.487  -2.601  0.00  0.00    -0.390 NA
ATOM     12  O   LIG    1       -8.455   5.304  -2.332  0.00  0.00    +0.090 OA
ATOM     13  C   LIG    1       -8.074   4.602  -3.403  0.00  0.00    +0.190 A 
ATOM     14  N   LIG    1       -7.853   5.465  -4.366  0.00  0.00    -0.480 NA
ENDBRANCH   7  13
ENDBRANCH   1   7
BRANCH   4  15
ATOM     15  C   LIG    1       -4.361   0.870   0.287  0.00  0.00    +0.220 C 
BRANCH  15  16
ATOM     16  C   LIG    1       -2.947   1.392   0.276  0.00  0.00    +0.520 C 
ATOM     17  N   LIG    1       -2.103   1.072   1.277  0.00  0.00    -0.720 N 
ATOM     18  H   LIG    1       -2.406   0.506   2.005  0.00  0.00    +0.410 HD
ATOM     19  O   LIG    1       -2.569   2.099  -0.633  0.00  0.00    -0.500 OA
BRANCH  17  20
ATOM     20  C   LIG    1       -0.729   1.579   1.267  0.00  0.00    +0.310 C 
ATOM     21  C   LIG    1       -0.013   1.086   0.008  0.00  0.00    +0.080 C 
BRANCH  20  22
ATOM     22  C   LIG    1        0.011   1.072   2.506  0.00  0.00    -0.030 C 
ATOM     23  C   LIG    1        0.488   2.115   3.519  0.00  0.00    +0.030 C 
ATOM     24  C   LIG    1        1.501   1.399   2.622  0.00  0.00    +0.050 C 
ENDBRANCH  20  22
BRANCH  20  25
ATOM     25  C   LIG    1       -0.749   3.051   1.275  0.00  0.00    +0.200 C 
ATOM     26  N   LIG    1       -0.764   4.187   1.281  0.00  0.00    -0.410 NA
ENDBRANCH  20  25
ENDBRANCH  17  20
ENDBRANCH  15  16
ENDBRANCH   4  15
TORSDOF 7
