REMARK  Name = ZINCpk000000nAlt.0
REMARK                            x       y       z     vdW  Elec       q    Type
REMARK                         _______ _______ _______ _____ _____    ______ ____
ROOT
ATOM      1  C   LIG    1        2.915  -1.716  -5.330  0.00  0.00    +0.500 C 
ATOM      2  N   LIG    1        2.459  -2.458  -4.301  0.00  0.00    -0.660 N 
ATOM      3  H   LIG    1        2.565  -3.422  -4.314  0.00  0.00    +0.420 HD
ATOM      4  O   LIG    1        2.869  -0.505  -5.272  0.00  0.00    -0.510 OA
ENDROOT
BRANCH   2   5
ATOM      5  C   LIG    1        1.831  -1.837  -3.214  0.00  0.00    +0.120 A 
ATOM      6  C   LIG    1        1.069  -0.693  -3.412  0.00  0.00    +0.060 A 
ATOM      7  C   LIG    1        0.450  -0.082  -2.340  0.00  0.00    +0.030 A 
ATOM      8  C   LIG    1        0.589  -0.610  -1.065  0.00  0.00    +0.090 A 
ATOM      9  C   LIG    1        1.355  -1.749  -0.865  0.00  0.00    -0.030 A 
ATOM     10  C   LIG    1        1.970  -2.364  -1.937  0.00  0.00    +0.040 A 
BRANCH   8  11
ATOM     11  O   LIG    1       -0.021  -0.007  -0.009  0.00  0.00    -0.320 OA
BRANCH  11  12
ATOM     12  C   LIG    1        0.166  -0.604   1.275  0.00  0.00    +0.590 C 
ATOM     13  F   LIG    1        1.529  -0.621   1.588  0.00  0.00    -0.200 F 
ATOM     14  F   LIG    1       -0.325  -1.915   1.256  0.00  0.00    -0.200 F 
ENDBRANCH  11  12
ENDBRANCH   8  11
ENDBRANCH   2   5
BRANCH   1  15
ATOM     15  C   LIG    1        3.483  -2.390  -6.552  0.00  0.00    +0.380 C 
BRANCH  15  19
ATOM     16  N   LIG    1        3.814   0.059  -9.210  0.00  0.00    -0.570 N 
ATOM     17  C   LIG    1        5.071   0.156  -8.725  0.00  0.00    +0.510 C 
ATOM     18  C   LIG    1        5.133  -0.813  -7.582  0.00  0.00    +0.510 C 
ATOM     19  N   LIG    1        3.906  -1.374  -7.519  0.00  0.00    -0.560 N 
ATOM     20  O   LIG    1        6.084  -1.044  -6.865  0.00  0.00    -0.400 OA
ATOM     21  O   LIG    1        5.961   0.875  -9.129  0.00  0.00    -0.400 OA
ATOM     22  C   LIG    1        3.140  -0.852  -8.490  0.00  0.00    +0.720 C 
ATOM     23  O   LIG    1        1.982  -1.163  -8.690  0.00  0.00    -0.480 OA
BRANCH  16  25
ATOM     24  C   LIG    1        3.353   2.317 -10.029  0.00  0.00    +0.060 C 
ATOM     25  C   LIG    1        3.275   0.821 -10.339  0.00  0.00    +0.260 C 
ATOM     26  C   LIG    1        4.094   0.518 -11.595  0.00  0.00    +0.050 C 
ENDBRANCH  16  25
ENDBRANCH  15  19
ENDBRANCH   1  15
TORSDOF 6
