REMARK  Name = ZINCtj00001UqOuB.0
REMARK                            x       y       z     vdW  Elec       q    Type
REMARK                         _______ _______ _______ _____ _____    ______ ____
ROOT
ATOM      1  C   LIG    1        1.591   3.403   0.005  0.00  0.00    +0.440 A 
ATOM      2  C   LIG    1        0.517   4.287   0.014  0.00  0.00    -0.120 A 
ATOM      3  C   LIG    1        0.766   5.648   0.024  0.00  0.00    +0.220 A 
ATOM      4  C   LIG    1        2.085   6.080   0.013  0.00  0.00    -0.780 A 
ATOM      5  C   LIG    1        3.103   5.147  -0.000  0.00  0.00    +0.440 A 
ATOM      6  N   LIG    1        2.836   3.855  -0.004  0.00  0.00    -0.540 NA
ENDROOT
BRANCH   4   7
ATOM      7  S   LIG    1        2.457   7.802   0.017  0.00  0.00    +2.700 S 
ATOM      8  O   LIG    1        3.769   7.928   0.550  0.00  0.00    -0.950 OA
ATOM      9  O   LIG    1        1.326   8.456   0.576  0.00  0.00    -0.950 OA
BRANCH   7  10
ATOM     10  N   LIG    1        2.546   8.288  -1.563  0.00  0.00    -1.120 NA
ATOM     11  H   LIG    1        3.388   8.601  -1.928  0.00  0.00    +0.420 HD
BRANCH  10  12
ATOM     12  C   LIG    1        1.351   8.246  -2.410  0.00  0.00    +0.250 C 
BRANCH  12  13
ATOM     13  C   LIG    1        1.592   9.076  -3.673  0.00  0.00    +0.040 C 
BRANCH  13  14
ATOM     14  C   LIG    1        0.345   9.032  -4.558  0.00  0.00    +0.000 C 
ATOM     15  C   LIG    1       -0.843   9.751  -3.877  0.00  0.00    +0.050 C 
ATOM     16  C   LIG    1       -1.562  10.439  -5.016  0.00  0.00    +0.510 C 
ATOM     17  N   LIG    1       -0.767  10.495  -6.098  0.00  0.00    -0.630 N 
ATOM     18  C   LIG    1       -1.156  11.090  -7.379  0.00  0.00    +0.290 C 
ATOM     19  O   LIG    1       -2.692  10.877  -4.960  0.00  0.00    -0.530 OA
ATOM     20  C   LIG    1        0.540   9.883  -5.832  0.00  0.00    +0.270 C 
ENDBRANCH  13  14
ENDBRANCH  12  13
ENDBRANCH  10  12
ENDBRANCH   7  10
ENDBRANCH   4   7
BRANCH   1  21
ATOM     21  N   LIG    1        1.356   2.033   0.000  0.00  0.00    -0.720 N 
ATOM     22  H   LIG    1        2.102   1.413  -0.010  0.00  0.00    +0.420 HD
BRANCH  21  23
ATOM     23  C   LIG    1       -0.019   1.526   0.010  0.00  0.00    +0.280 C 
BRANCH  23  24
ATOM     24  C   LIG    1        0.002  -0.004   0.002  0.00  0.00    +0.260 C 
BRANCH  24  29
ATOM     25  C   LIG    1       -5.076  -2.391  -1.021  0.00  0.00    +0.050 C 
ATOM     26  C   LIG    1       -3.628  -1.914  -1.153  0.00  0.00    -0.010 C 
ATOM     27  C   LIG    1       -2.786  -2.517  -0.025  0.00  0.00    +0.060 C 
ATOM     28  C   LIG    1       -1.358  -1.975  -0.116  0.00  0.00    +0.260 C 
ATOM     29  N   LIG    1       -1.376  -0.512   0.012  0.00  0.00    -0.380 N 
ATOM     30  C   LIG    1       -2.122   0.076  -1.106  0.00  0.00    +0.240 C 
ATOM     31  H   LIG    1       -1.821  -0.258   0.882  0.00  0.00    +0.430 HD
ATOM     32  C   LIG    1       -3.579  -0.387  -1.053  0.00  0.00    +0.060 C 
ENDBRANCH  24  29
ENDBRANCH  23  24
ENDBRANCH  21  23
ENDBRANCH   1  21
TORSDOF 9
