REMARK  Name = ZINCqH0000004R48.0
REMARK                            x       y       z     vdW  Elec       q    Type
REMARK                         _______ _______ _______ _____ _____    ______ ____
ROOT
ATOM      1  N   LIG    1       -4.332  -1.756   1.507  0.00  0.00    -0.510 N 
ATOM      2  C   LIG    1       -4.120  -1.813   2.839  0.00  0.00    +0.570 A 
ATOM      3  C   LIG    1       -2.813  -1.385   3.370  0.00  0.00    -0.160 A 
ATOM      4  C   LIG    1       -2.538  -1.423   4.735  0.00  0.00    +0.130 A 
ATOM      5  C   LIG    1       -1.303  -1.014   5.193  0.00  0.00    +0.020 A 
ATOM      6  C   LIG    1       -0.339  -0.567   4.303  0.00  0.00    +0.100 A 
ATOM      7  C   LIG    1       -0.600  -0.525   2.948  0.00  0.00    +0.000 A 
ATOM      8  C   LIG    1       -1.835  -0.933   2.469  0.00  0.00    +0.170 A 
ATOM      9  N   LIG    1       -2.127  -0.907   1.111  0.00  0.00    -0.430 N 
ATOM     10  C   LIG    1       -1.412  -0.526   0.013  0.00  0.00    +0.180 A 
ATOM     11  N   LIG    1       -2.180  -0.703  -1.026  0.00  0.00    -0.220 NA
ATOM     12  N   LIG    1       -3.323  -1.162  -0.658  0.00  0.00    -0.280 NA
ATOM     13  O   LIG    1       -4.992  -2.211   3.587  0.00  0.00    -0.490 OA
ATOM     14  C   LIG    1       -3.348  -1.305   0.649  0.00  0.00    +0.430 A 
ENDROOT
BRANCH   1  16
ATOM     15  C   LIG    1       -5.580  -3.671   0.637  0.00  0.00    +0.030 C 
ATOM     16  C   LIG    1       -5.626  -2.177   0.964  0.00  0.00    +0.310 C 
ENDBRANCH   1  16
BRANCH  10  17
ATOM     17  C   LIG    1        0.002  -0.004   0.002  0.00  0.00    +0.350 C 
BRANCH  17  18
ATOM     18  O   LIG    1        0.915  -1.103   0.038  0.00  0.00    -0.300 OA
BRANCH  18  19
ATOM     19  C   LIG    1        2.241  -0.803   0.033  0.00  0.00    +0.150 A 
ATOM     20  C   LIG    1        2.654   0.520  -0.010  0.00  0.00    -0.060 A 
ATOM     21  C   LIG    1        4.003   0.822  -0.008  0.00  0.00    +0.080 A 
ATOM     22  C   LIG    1        4.940  -0.194   0.025  0.00  0.00    -0.110 A 
ATOM     23  C   LIG    1        4.531  -1.514   0.062  0.00  0.00    +0.090 A 
ATOM     24  C   LIG    1        6.410   0.139   0.020  0.00  0.00    +0.100 C 
ATOM     25  C   LIG    1        3.184  -1.821   0.066  0.00  0.00    -0.120 A 
ATOM     26 BR   LIG    1        2.626  -3.627   0.117  0.00  0.00    -0.030 Br
ENDBRANCH  18  19
ENDBRANCH  17  18
ENDBRANCH  10  17
TORSDOF 4
