REMARK  Name = ZINCrD000000BNeL.0
REMARK                            x       y       z     vdW  Elec       q    Type
REMARK                         _______ _______ _______ _____ _____    ______ ____
ROOT
ATOM      1  C   LIG    1       -0.090   5.866  -1.407  0.00  0.00    +0.260 C 
ENDROOT
BRANCH   1   4
ATOM      2  O   LIG    1       -0.500   3.486  -2.608  0.00  0.00    -0.510 OA
ATOM      3  C   LIG    1       -1.446   4.250  -2.627  0.00  0.00    +0.560 C 
ATOM      4  N   LIG    1       -1.342   5.465  -2.054  0.00  0.00    -0.710 N 
ATOM      5  H   LIG    1       -2.097   6.075  -2.069  0.00  0.00    +0.410 HD
BRANCH   3   6
ATOM      6  C   LIG    1       -2.710   3.846  -3.279  0.00  0.00    -0.130 A 
ATOM      7  C   LIG    1       -3.799   4.718  -3.298  0.00  0.00    +0.040 A 
ATOM      8  C   LIG    1       -4.974   4.336  -3.912  0.00  0.00    +0.000 A 
ATOM      9  C   LIG    1       -5.077   3.088  -4.500  0.00  0.00    +0.040 A 
ATOM     10  C   LIG    1       -4.002   2.217  -4.481  0.00  0.00    +0.000 A 
ATOM     11  C   LIG    1       -2.820   2.588  -3.874  0.00  0.00    +0.080 A 
ENDBRANCH   3   6
ENDBRANCH   1   4
BRANCH   1  12
ATOM     12  C   LIG    1        0.013   7.369  -1.401  0.00  0.00    +0.510 C 
ATOM     13  N   LIG    1        1.089   7.968  -0.853  0.00  0.00    -0.720 N 
ATOM     14  H   LIG    1        1.797   7.432  -0.464  0.00  0.00    +0.400 HD
ATOM     15  O   LIG    1       -0.872   8.040  -1.888  0.00  0.00    -0.530 OA
BRANCH  13  16
ATOM     16  C   LIG    1        1.190   9.430  -0.847  0.00  0.00    +0.320 C 
BRANCH  16  17
ATOM     17  C   LIG    1        2.478   9.842  -0.182  0.00  0.00    -0.110 A 
ATOM     18  C   LIG    1        2.510  10.070   1.181  0.00  0.00    +0.020 A 
ATOM     19  C   LIG    1        3.693  10.444   1.792  0.00  0.00    +0.010 A 
ATOM     20  C   LIG    1        4.841  10.599   1.038  0.00  0.00    +0.010 A 
ATOM     21  C   LIG    1        4.808  10.375  -0.326  0.00  0.00    +0.010 A 
ATOM     22  C   LIG    1        3.626   9.997  -0.936  0.00  0.00    +0.020 A 
ENDBRANCH  16  17
ENDBRANCH  13  16
ENDBRANCH   1  12
BRANCH   1  23
ATOM     23  C   LIG    1       -0.070   5.347   0.032  0.00  0.00    +0.080 C 
BRANCH  23  24
ATOM     24  C   LIG    1       -0.050   3.840   0.023  0.00  0.00    -0.070 A 
ATOM     25  C   LIG    1        1.156   3.165   0.008  0.00  0.00    +0.010 A 
ATOM     26  C   LIG    1        1.175   1.783   0.000  0.00  0.00    +0.010 A 
ATOM     27  C   LIG    1       -0.013   1.076   0.008  0.00  0.00    +0.000 A 
ATOM     28  C   LIG    1       -1.219   1.751   0.017  0.00  0.00    +0.010 A 
ATOM     29  C   LIG    1       -1.238   3.133   0.029  0.00  0.00    +0.000 A 
ENDBRANCH  23  24
ENDBRANCH   1  23
TORSDOF 7
