REMARK  Name = ZINCrD00000F5LEj.0
REMARK                            x       y       z     vdW  Elec       q    Type
REMARK                         _______ _______ _______ _____ _____    ______ ____
ROOT
ATOM      1  C   LIG    1        2.639  -2.517   0.325  0.00  0.00    +0.160 C 
ENDROOT
BRANCH   1   2
ATOM      2  O   LIG    1        3.353  -2.092  -0.838  0.00  0.00    -0.380 OA
ATOM      3  C   LIG    1        4.771  -2.050  -0.667  0.00  0.00    +0.200 C 
ENDBRANCH   1   2
BRANCH   1   4
ATOM      4  C   LIG    1        1.384  -1.659   0.494  0.00  0.00    +0.280 C 
BRANCH   4   6
ATOM      5  C   LIG    1        0.822   0.691   0.809  0.00  0.00    +0.580 C 
ATOM      6  N   LIG    1        1.769  -0.254   0.645  0.00  0.00    -0.720 N 
ATOM      7  H   LIG    1        2.706  -0.003   0.626  0.00  0.00    +0.400 HD
ATOM      8  O   LIG    1       -0.353   0.376   0.832  0.00  0.00    -0.520 OA
BRANCH   5  14
ATOM      9  C   LIG    1        0.256   3.176   1.134  0.00  0.00    +0.120 A 
ATOM     10  C   LIG    1        0.834   4.369   1.253  0.00  0.00    -0.230 A 
ATOM     11  S   LIG    1        2.579   4.223   1.144  0.00  0.00    +0.230 S 
ATOM     12  C   LIG    1        2.500   2.532   0.944  0.00  0.00    -0.040 A 
ATOM     13  C   LIG    1        0.092   5.666   1.449  0.00  0.00    +0.150 C 
ATOM     14  C   LIG    1        1.208   2.102   0.960  0.00  0.00    -0.170 A 
BRANCH   9  16
ATOM     15  C   LIG    1       -1.673   2.744   2.459  0.00  0.00    +0.230 C 
ATOM     16  O   LIG    1       -1.091   2.986   1.176  0.00  0.00    -0.300 OA
ENDBRANCH   9  16
ENDBRANCH   5  14
ENDBRANCH   4   6
ENDBRANCH   1   4
BRANCH   1  17
ATOM     17  C   LIG    1        2.237  -3.985   0.168  0.00  0.00    +0.030 C 
BRANCH  17  18
ATOM     18  C   LIG    1        3.494  -4.856   0.125  0.00  0.00    +0.280 C 
BRANCH  18  19
ATOM     19  N   LIG    1        3.108  -6.269   0.100  0.00  0.00    -0.680 N 
ATOM     20  H   LIG    1        2.170  -6.516   0.112  0.00  0.00    +0.420 HD
BRANCH  19  21
ATOM     21  C   LIG    1        4.077  -7.248   0.060  0.00  0.00    +0.400 A 
ATOM     22  N   LIG    1        5.348  -7.026   0.036  0.00  0.00    -0.540 NA
ATOM     23  C   LIG    1        6.174  -8.087   0.001  0.00  0.00    +0.340 A 
ATOM     24  N   LIG    1        7.519  -8.101  -0.026  0.00  0.00    -0.460 NA
ATOM     25  C   LIG    1        8.206  -9.218  -0.064  0.00  0.00    +0.320 A 
ATOM     26  C   LIG    1        7.580 -10.452  -0.080  0.00  0.00    -0.030 A 
ATOM     27  C   LIG    1        6.197 -10.504  -0.054  0.00  0.00    +0.130 A 
ATOM     28  C   LIG    1        5.487  -9.307  -0.014  0.00  0.00    -0.250 A 
ATOM     29  S   LIG    1        3.758  -8.977   0.027  0.00  0.00    +0.060 S 
ENDBRANCH  19  21
ENDBRANCH  18  19
ENDBRANCH  17  18
ENDBRANCH   1  17
TORSDOF 9
