REMARK  Name = ZINCnE00000hdbJh.0
REMARK                            x       y       z     vdW  Elec       q    Type
REMARK                         _______ _______ _______ _____ _____    ______ ____
ROOT
ATOM      1  C   LIG    1       -0.546  -2.053  -0.005  0.00  0.00    +0.180 A 
ATOM      2  N   LIG    1        0.750  -1.956  -0.017  0.00  0.00    -0.400 NA
ATOM      3  O   LIG    1        1.089  -0.791  -0.018  0.00  0.00    +0.060 OA
ATOM      4  C   LIG    1        0.002  -0.004   0.002  0.00  0.00    +0.290 A 
ATOM      5  N   LIG    1       -1.047  -0.808   0.008  0.00  0.00    -0.510 NA
ENDROOT
BRANCH   4   6
ATOM      6  C   LIG    1       -0.018   1.472   0.010  0.00  0.00    -0.190 A 
ATOM      7  C   LIG    1       -1.236   2.156   0.020  0.00  0.00    +0.160 A 
ATOM      8  C   LIG    1       -1.251   3.534   0.034  0.00  0.00    -0.220 A 
ATOM      9  C   LIG    1       -0.056   4.244   0.026  0.00  0.00    +0.330 A 
ATOM     10  C   LIG    1        1.158   3.567   0.010  0.00  0.00    -0.220 A 
ATOM     11 BR   LIG    1        2.781   4.538  -0.000  0.00  0.00    -0.070 Br
ATOM     12  O   LIG    1       -0.074   5.602   0.033  0.00  0.00    -0.630 OA
ATOM     13 BR   LIG    1       -2.899   4.461   0.055  0.00  0.00    -0.070 Br
ATOM     14  C   LIG    1        1.181   2.189   0.003  0.00  0.00    +0.140 A 
ENDBRANCH   4   6
BRANCH   1  18
ATOM     15  O   LIG    1       -0.989  -6.680  -1.210  0.00  0.00    -0.530 OA
ATOM     16  C   LIG    1       -0.982  -5.652  -0.567  0.00  0.00    +0.530 C 
ATOM     17  C   LIG    1       -0.898  -4.262  -1.157  0.00  0.00    +0.070 C 
ATOM     18  C   LIG    1       -1.342  -3.333  -0.003  0.00  0.00    +0.120 C 
ATOM     19  C   LIG    1       -1.009  -4.190   1.238  0.00  0.00    +0.290 C 
ATOM     20  N   LIG    1       -1.049  -5.582   0.774  0.00  0.00    -0.590 N 
BRANCH  20  21
ATOM     21  C   LIG    1       -1.147  -6.745   1.659  0.00  0.00    +0.210 C 
ATOM     22  C   LIG    1       -0.974  -8.129   1.028  0.00  0.00    +0.040 C 
ATOM     23  C   LIG    1       -2.358  -7.664   1.485  0.00  0.00    +0.010 C 
ENDBRANCH  20  21
ENDBRANCH   1  18
TORSDOF 3
