REMARK  Name = ZINCpk000005ZIqv.0
REMARK                            x       y       z     vdW  Elec       q    Type
REMARK                         _______ _______ _______ _____ _____    ______ ____
ROOT
ATOM      1  N   LIG    1        2.506  -4.174   3.732  0.00  0.00    -0.290 N 
ATOM      2  C   LIG    1        2.031  -4.919   4.758  0.00  0.00    +0.140 A 
ATOM      3  C   LIG    1        3.052  -5.012   5.659  0.00  0.00    +0.030 A 
ATOM      4  N   LIG    1        4.078  -4.315   5.138  0.00  0.00    -0.240 NA
ATOM      5  N   LIG    1        3.717  -3.836   4.000  0.00  0.00    -0.060 NA
ENDROOT
BRANCH   3   6
ATOM      6  C   LIG    1        3.032  -5.731   6.957  0.00  0.00    -0.010 A 
ATOM      7  C   LIG    1        1.887  -6.410   7.358  0.00  0.00    +0.040 A 
ATOM      8  C   LIG    1        1.865  -7.079   8.566  0.00  0.00    +0.000 A 
ATOM      9  C   LIG    1        2.984  -7.073   9.381  0.00  0.00    +0.040 A 
ATOM     10  C   LIG    1        4.125  -6.401   8.993  0.00  0.00    -0.150 A 
ATOM     11  C   LIG    1        5.467  -6.223   9.675  0.00  0.00    +0.060 C 
ATOM     12  C   LIG    1        6.096  -5.046   8.894  0.00  0.00    +0.230 C 
ATOM     13  N   LIG    1        5.421  -5.133   7.581  0.00  0.00    -0.620 N 
ATOM     14  H   LIG    1        5.973  -5.665   6.925  0.00  0.00    +0.360 HD
ATOM     15  C   LIG    1        4.171  -5.731   7.778  0.00  0.00    +0.130 A 
ENDBRANCH   3   6
BRANCH   1  16
ATOM     16  C   LIG    1        1.762  -3.810   2.524  0.00  0.00    +0.310 C 
BRANCH  16  17
ATOM     17  C   LIG    1        1.770  -2.289   2.359  0.00  0.00    +0.210 C 
BRANCH  17  18
ATOM     18  O   LIG    1        3.108  -1.842   2.129  0.00  0.00    -0.530 OA
ATOM     19  H   LIG    1        3.517  -2.217   1.337  0.00  0.00    +0.370 HD
ENDBRANCH  17  18
BRANCH  17  20
ATOM     20  C   LIG    1        0.891  -1.899   1.169  0.00  0.00    +0.150 C 
BRANCH  20  21
ATOM     21  O   LIG    1        0.805  -0.475   1.086  0.00  0.00    -0.360 OA
BRANCH  21  22
ATOM     22  C   LIG    1        0.002  -0.004   0.002  0.00  0.00    +0.180 C 
BRANCH  22  23
ATOM     23  C   LIG    1       -0.019   1.526   0.010  0.00  0.00    +0.160 C 
ATOM     24  C   LIG    1       -0.784   2.046  -1.222  0.00  0.00    +0.010 C 
ATOM     25  C   LIG    1       -1.934   2.893  -0.624  0.00  0.00    +0.000 C 
ATOM     26  C   LIG    1       -1.399   3.211   0.796  0.00  0.00    +0.190 C 
ATOM     27  O   LIG    1       -0.711   1.999   1.178  0.00  0.00    -0.360 OA
ENDBRANCH  22  23
ENDBRANCH  21  22
ENDBRANCH  20  21
ENDBRANCH  17  20
ENDBRANCH  16  17
ENDBRANCH   1  16
TORSDOF 8
