REMARK  Name = ZINCpk00001AZiqV.0
REMARK                            x       y       z     vdW  Elec       q    Type
REMARK                         _______ _______ _______ _____ _____    ______ ____
ROOT
ATOM      1  C   LIG    1        2.979   0.915  -3.279  0.00  0.00    +0.010 C 
ATOM      2  C   LIG    1        2.386   1.989  -4.195  0.00  0.00    +0.020 C 
ATOM      3  C   LIG    1        3.217   2.075  -5.477  0.00  0.00    +0.170 C 
ATOM      4  N   LIG    1        3.212   0.771  -6.154  0.00  0.00    -0.540 NA
ATOM      5  C   LIG    1        3.819  -0.267  -5.311  0.00  0.00    +0.170 C 
ATOM      6  C   LIG    1        3.006  -0.422  -4.024  0.00  0.00    +0.030 C 
ENDROOT
BRANCH   1  14
ATOM      7  C   LIG    1        2.954   2.982  -1.534  0.00  0.00    +0.510 C 
ATOM      8  N   LIG    1        1.959   2.082  -1.407  0.00  0.00    -0.600 N 
ATOM      9  C   LIG    1        0.753   2.463  -0.647  0.00  0.00    +0.250 C 
ATOM     10  C   LIG    1        0.262   1.328   0.271  0.00  0.00    +0.020 C 
ATOM     11  C   LIG    1        1.438   0.644   0.923  0.00  0.00    +0.000 C 
ATOM     12  C   LIG    1        1.877  -0.537   0.063  0.00  0.00    +0.000 C 
ATOM     13  C   LIG    1        2.802  -0.184  -1.026  0.00  0.00    +0.020 C 
ATOM     14  C   LIG    1        2.116   0.783  -2.022  0.00  0.00    +0.240 C 
ATOM     15  O   LIG    1        4.000   2.659  -2.057  0.00  0.00    -0.500 OA
BRANCH   7  16
ATOM     16  C   LIG    1        2.767   4.388  -1.027  0.00  0.00    +0.200 C 
BRANCH  16  18
ATOM     17  C   LIG    1        3.881   6.501  -0.829  0.00  0.00    +0.200 C 
ATOM     18  O   LIG    1        3.953   5.146  -1.275  0.00  0.00    -0.370 OA
ENDBRANCH  16  18
ENDBRANCH   7  16
ENDBRANCH   1  14
BRANCH   4  19
ATOM     19  C   LIG    1        3.884   0.852  -7.457  0.00  0.00    +0.290 C 
BRANCH  19  20
ATOM     20  C   LIG    1        3.091   1.743  -8.378  0.00  0.00    -0.010 A 
ATOM     21  C   LIG    1        3.288   3.063  -8.601  0.00  0.00    +0.140 A 
ATOM     22  N   LIG    1        2.359   3.443  -9.485  0.00  0.00    -0.270 NA
ATOM     23  N   LIG    1        1.634   2.425  -9.789  0.00  0.00    -0.090 NA
ATOM     24  N   LIG    1        2.041   1.383  -9.152  0.00  0.00    -0.280 N 
ATOM     25  C   LIG    1        1.465   0.039  -9.246  0.00  0.00    +0.370 C 
ENDBRANCH  19  20
ENDBRANCH   4  19
TORSDOF 5
