REMARK  Name = ZINCqH0000034soF.0
REMARK                            x       y       z     vdW  Elec       q    Type
REMARK                         _______ _______ _______ _____ _____    ______ ____
ROOT
ATOM      1  C   LIG    1       -4.880   0.921   0.250  0.00  0.00    +0.020 C 
ATOM      2  C   LIG    1       -4.929   0.090   1.554  0.00  0.00    +0.110 C 
ATOM      3  C   LIG    1       -5.637   0.993   2.541  0.00  0.00    +0.520 C 
ATOM      4  N   LIG    1       -6.268   1.986   1.890  0.00  0.00    -0.550 N 
ATOM      5  O   LIG    1       -5.636   0.842   3.745  0.00  0.00    -0.500 OA
ATOM      6  C   LIG    1       -6.079   1.876   0.439  0.00  0.00    +0.320 C 
ENDROOT
BRANCH   4   7
ATOM      7  C   LIG    1       -7.009   2.996   2.517  0.00  0.00    +0.190 A 
ATOM      8  C   LIG    1       -7.037   3.079   3.902  0.00  0.00    +0.030 A 
ATOM      9  C   LIG    1       -7.764   4.079   4.519  0.00  0.00    +0.060 A 
ATOM     10  C   LIG    1       -8.473   4.991   3.758  0.00  0.00    +0.040 A 
ATOM     11  C   LIG    1       -8.452   4.907   2.374  0.00  0.00    +0.100 A 
ATOM     12  F   LIG    1       -9.145   5.799   1.632  0.00  0.00    -0.120 F 
ATOM     13  F   LIG    1       -9.187   5.965   4.364  0.00  0.00    -0.130 F 
ATOM     14  C   LIG    1       -7.720   3.911   1.753  0.00  0.00    -0.020 A 
ENDBRANCH   4   7
BRANCH   1  17
ATOM     15  C   LIG    1       -2.409  -0.428  -0.092  0.00  0.00    +0.310 C 
ATOM     16  N   LIG    1       -2.418   1.030   0.044  0.00  0.00    -0.570 N 
ATOM     17  C   LIG    1       -3.588   1.690   0.149  0.00  0.00    +0.520 C 
ATOM     18  O   LIG    1       -3.602   2.903   0.163  0.00  0.00    -0.510 OA
BRANCH  16  19
ATOM     19  C   LIG    1       -1.210   1.739   0.064  0.00  0.00    +0.140 A 
ATOM     20  C   LIG    1       -0.906   2.622  -0.964  0.00  0.00    +0.070 A 
ATOM     21  C   LIG    1        0.283   3.325  -0.939  0.00  0.00    +0.020 A 
ATOM     22  C   LIG    1        1.174   3.145   0.105  0.00  0.00    +0.110 A 
ATOM     23  C   LIG    1        0.875   2.260   1.129  0.00  0.00    -0.070 A 
ATOM     24 CL   LIG    1        1.993   2.037   2.437  0.00  0.00    -0.040 Cl
ATOM     25  F   LIG    1        2.336   3.834   0.127  0.00  0.00    -0.120 F 
ATOM     26  C   LIG    1       -0.314   1.556   1.108  0.00  0.00    +0.070 A 
ENDBRANCH  16  19
ENDBRANCH   1  17
TORSDOF 3
