REMARK  Name = ZINCrg00000fR7Zz.0
REMARK                            x       y       z     vdW  Elec       q    Type
REMARK                         _______ _______ _______ _____ _____    ______ ____
ROOT
ATOM      1  N   LIG    1       -0.113   1.282  -0.077  0.00  0.00    -1.120 NA
ATOM      2  H   LIG    1        0.777   1.667  -0.076  0.00  0.00    +0.420 HD
ENDROOT
BRANCH   1   3
ATOM      3  S   LIG    1       -1.441   2.265   0.032  0.00  0.00    +2.700 S 
ATOM      4  O   LIG    1       -2.329   1.855  -1.000  0.00  0.00    -0.950 OA
ATOM      5  O   LIG    1       -0.949   3.592   0.152  0.00  0.00    -0.950 OA
BRANCH   3   9
ATOM      6  C   LIG    1       -3.502   1.306   3.949  0.00  0.00    +0.210 A 
ATOM      7  C   LIG    1       -2.522   2.289   3.901  0.00  0.00    -0.010 A 
ATOM      8  C   LIG    1       -1.895   2.579   2.704  0.00  0.00    +0.150 A 
ATOM      9  C   LIG    1       -2.243   1.892   1.556  0.00  0.00    -0.700 A 
ATOM     10  C   LIG    1       -3.222   0.916   1.599  0.00  0.00    +0.150 A 
ATOM     11  C   LIG    1       -3.849   0.618   2.793  0.00  0.00    -0.030 A 
BRANCH   6  14
ATOM     12  C   LIG    1       -4.933   1.649   7.413  0.00  0.00    +0.120 C 
ATOM     13  C   LIG    1       -4.356   1.986   6.063  0.00  0.00    +0.510 C 
ATOM     14  N   LIG    1       -4.140   1.010   5.159  0.00  0.00    -0.680 N 
ATOM     15  H   LIG    1       -4.426   0.103   5.347  0.00  0.00    +0.420 HD
ATOM     16  O   LIG    1       -4.085   3.137   5.790  0.00  0.00    -0.520 OA
ENDBRANCH   6  14
ENDBRANCH   3   9
ENDBRANCH   1   3
BRANCH   1  17
ATOM     17  C   LIG    1       -0.282  -0.170  -0.180  0.00  0.00    +0.300 C 
BRANCH  17  18
ATOM     18  C   LIG    1        1.031  -0.805  -0.643  0.00  0.00    +0.120 C 
BRANCH  18  19
ATOM     19  C   LIG    1        0.857  -2.298  -0.749  0.00  0.00    +0.470 C 
ATOM     20  O   LIG    1       -0.208  -2.802  -0.482  0.00  0.00    -0.500 OA
BRANCH  19  21
ATOM     21  O   LIG    1        1.884  -3.067  -1.141  0.00  0.00    -0.340 OA
BRANCH  21  22
ATOM     22  C   LIG    1        1.644  -4.497  -1.221  0.00  0.00    +0.250 C 
BRANCH  22  23
ATOM     23  C   LIG    1        2.902  -5.193  -1.674  0.00  0.00    +0.420 C 
ATOM     24  O   LIG    1        3.903  -4.546  -1.908  0.00  0.00    -0.450 OA
BRANCH  23  25
ATOM     25  C   LIG    1        2.916  -6.598  -1.828  0.00  0.00    -0.100 A 
ATOM     26  C   LIG    1        1.857  -7.459  -1.593  0.00  0.00    +0.040 A 
ATOM     27  C   LIG    1        2.312  -8.748  -1.874  0.00  0.00    -0.060 A 
ATOM     28  C   LIG    1        3.611  -8.659  -2.256  0.00  0.00    +0.220 A 
ATOM     29  N   LIG    1        3.988  -7.364  -2.233  0.00  0.00    -0.520 N 
ATOM     30  H   LIG    1        4.869  -7.028  -2.463  0.00  0.00    +0.430 HD
ENDBRANCH  23  25
ENDBRANCH  22  23
ENDBRANCH  21  22
ENDBRANCH  19  21
ENDBRANCH  18  19
ENDBRANCH  17  18
ENDBRANCH   1  17
TORSDOF 10
