REMARK  Name = ZINCnE000001GN3q.1
REMARK                            x       y       z     vdW  Elec       q    Type
REMARK                         _______ _______ _______ _____ _____    ______ ____
ROOT
ATOM      1  C   LIG    1       -0.752  -2.287  -0.004  0.00  0.00    +0.080 A 
ATOM      2  C   LIG    1        0.570  -2.719  -0.018  0.00  0.00    -0.060 A 
ATOM      3  C   LIG    1        1.600  -1.813  -0.023  0.00  0.00    +0.040 A 
ATOM      4  C   LIG    1        1.335  -0.427  -0.013  0.00  0.00    +0.120 A 
ATOM      5  N   LIG    1        2.210   0.599  -0.016  0.00  0.00    -0.550 NA
ATOM      6  C   LIG    1        1.736   1.796  -0.005  0.00  0.00    +0.400 A 
ATOM      7  S   LIG    1       -0.022   1.758   0.012  0.00  0.00    -0.030 S 
ATOM      8  C   LIG    1        0.002  -0.004   0.002  0.00  0.00    -0.180 A 
ATOM      9  C   LIG    1       -1.034  -0.935   0.007  0.00  0.00    +0.030 A 
ENDROOT
BRANCH   6  10
ATOM     10  N   LIG    1        2.502   2.950  -0.006  0.00  0.00    -0.690 NA
ATOM     11  C   LIG    1        3.847   2.866  -0.020  0.00  0.00    +0.460 C 
ATOM     12  O   LIG    1        4.387   1.780  -0.030  0.00  0.00    -0.560 OA
BRANCH  11  13
ATOM     13  C   LIG    1        4.681   4.122  -0.021  0.00  0.00    +0.140 C 
BRANCH  13  14
ATOM     14  C   LIG    1        6.142   3.755  -0.037  0.00  0.00    -0.160 A 
ATOM     15  C   LIG    1        6.941   3.557  -1.113  0.00  0.00    -0.040 A 
ATOM     16  O   LIG    1        8.155   3.251  -0.633  0.00  0.00    +0.090 OA
ATOM     17  N   LIG    1        8.166   3.246   0.576  0.00  0.00    -0.380 NA
ATOM     18  C   LIG    1        6.543   3.660  -2.563  0.00  0.00    +0.180 C 
ATOM     19  C   LIG    1        6.999   3.543   1.068  0.00  0.00    +0.030 A 
ATOM     20  C   LIG    1        6.631   3.639   2.526  0.00  0.00    +0.160 C 
ENDBRANCH  13  14
ENDBRANCH  11  13
ENDBRANCH   6  10
BRANCH   1  21
ATOM     21  O   LIG    1       -1.765  -3.194   0.001  0.00  0.00    -0.320 OA
BRANCH  21  23
ATOM     22  C   LIG    1       -2.663  -5.438  -0.003  0.00  0.00    +0.040 C 
ATOM     23  C   LIG    1       -1.399  -4.575  -0.010  0.00  0.00    +0.180 C 
ENDBRANCH  21  23
ENDBRANCH   1  21
TORSDOF 5
