REMARK  Name = ZINCpe00000MJIRz.0
REMARK                            x       y       z     vdW  Elec       q    Type
REMARK                         _______ _______ _______ _____ _____    ______ ____
ROOT
ATOM      1  O   LIG    1       -1.296   3.351   0.092  0.00  0.00    -0.520 OA
ATOM      2  C   LIG    1       -1.298   2.138   0.020  0.00  0.00    +0.580 C 
ATOM      3  N   LIG    1       -2.465   1.471  -0.080  0.00  0.00    -0.610 N 
ATOM      4  C   LIG    1       -2.618   0.005  -0.100  0.00  0.00    +0.280 C 
ATOM      5  C   LIG    1       -3.963  -0.244  -0.825  0.00  0.00    +0.090 C 
ATOM      6  C   LIG    1       -4.822   0.938  -0.303  0.00  0.00    +0.110 C 
ATOM      7  C   LIG    1       -3.797   2.085  -0.181  0.00  0.00    +0.250 C 
ENDROOT
BRANCH   2   8
ATOM      8  C   LIG    1       -0.018   1.393   0.041  0.00  0.00    -0.050 A 
ATOM      9  C   LIG    1        1.174   2.000  -0.369  0.00  0.00    -0.010 A 
ATOM     10  C   LIG    1        2.346   1.273  -0.329  0.00  0.00    +0.310 A 
ATOM     11  N   LIG    1        2.356   0.023   0.089  0.00  0.00    -0.530 NA
ATOM     12  C   LIG    1        1.254  -0.591   0.486  0.00  0.00    +0.330 A 
ATOM     13  C   LIG    1        0.032   0.067   0.477  0.00  0.00    -0.020 A 
BRANCH  12  14
ATOM     14  O   LIG    1        1.319  -1.879   0.907  0.00  0.00    -0.290 OA
BRANCH  14  15
ATOM     15  C   LIG    1        2.605  -2.502   0.893  0.00  0.00    +0.180 C 
ATOM     16  C   LIG    1        2.743  -3.608  -0.167  0.00  0.00    +0.010 C 
ATOM     17  C   LIG    1        3.528  -4.410   0.887  0.00  0.00    +0.030 C 
ATOM     18  C   LIG    1        2.767  -3.605   1.954  0.00  0.00    +0.030 C 
ENDBRANCH  14  15
ENDBRANCH  12  14
ENDBRANCH   2   8
BRANCH   6  19
ATOM     19  O   LIG    1       -5.387   0.627   0.972  0.00  0.00    -0.540 OA
ATOM     20  H   LIG    1       -5.934   1.334   1.343  0.00  0.00    +0.390 HD
ENDBRANCH   6  19
BRANCH   6  21
ATOM     21  C   LIG    1       -5.921   1.294  -1.308  0.00  0.00    +0.330 C 
BRANCH  21  22
ATOM     22  N   LIG    1       -6.638   2.485  -0.845  0.00  0.00    -0.300 N 
ATOM     23  C   LIG    1       -6.813   3.627  -1.549  0.00  0.00    +0.150 A 
ATOM     24  C   LIG    1       -7.527   4.455  -0.751  0.00  0.00    +0.140 A 
ATOM     25  N   LIG    1       -7.744   3.790   0.390  0.00  0.00    -0.260 NA
ATOM     26  N   LIG    1       -7.204   2.626   0.302  0.00  0.00    -0.100 NA
ENDBRANCH  21  22
ENDBRANCH   6  21
TORSDOF 6
