REMARK  Name = ZINCrg00000wKuDa.0
REMARK                            x       y       z     vdW  Elec       q    Type
REMARK                         _______ _______ _______ _____ _____    ______ ____
ROOT
ATOM      1  C   LIG    1       -3.000   2.978   2.853  0.00  0.00    +0.240 C 
ATOM      2  C   LIG    1       -3.195   1.669   2.083  0.00  0.00    +0.010 C 
ATOM      3  C   LIG    1       -1.849   0.948   1.961  0.00  0.00    +0.310 C 
ATOM      4  N   LIG    1       -0.875   1.865   1.354  0.00  0.00    -1.000 NA
ATOM      5  C   LIG    1       -0.671   3.186   1.965  0.00  0.00    +0.290 C 
ATOM      6  C   LIG    1       -2.035   3.884   2.084  0.00  0.00    +0.010 C 
ENDROOT
BRANCH   1   8
ATOM      7  C   LIG    1       -4.488   4.514   4.020  0.00  0.00    +0.520 C 
ATOM      8  N   LIG    1       -4.291   3.655   3.000  0.00  0.00    -0.730 N 
ATOM      9  H   LIG    1       -5.003   3.484   2.365  0.00  0.00    +0.400 HD
ATOM     10  O   LIG    1       -3.597   4.727   4.814  0.00  0.00    -0.530 OA
BRANCH   7  11
ATOM     11  C   LIG    1       -5.816   5.210   4.172  0.00  0.00    +0.040 C 
BRANCH  11  12
ATOM     12  C   LIG    1       -5.776   6.123   5.399  0.00  0.00    +0.130 C 
BRANCH  12  13
ATOM     13  C   LIG    1       -7.124   6.830   5.553  0.00  0.00    +0.040 C 
ATOM     14  N   LIG    1       -8.329   6.157   5.060  0.00  0.00    -0.120 NA
ATOM     15  N   LIG    1       -7.920   7.091   4.351  0.00  0.00    -0.120 NA
BRANCH  13  16
ATOM     16  C   LIG    1       -7.254   7.787   6.740  0.00  0.00    +0.120 C 
BRANCH  16  17
ATOM     17  C   LIG    1       -8.654   8.404   6.747  0.00  0.00    +0.160 C 
BRANCH  17  19
ATOM     18  C   LIG    1       -8.878  10.059   8.799  0.00  0.00    +0.030 C 
ATOM     19  C   LIG    1       -8.779   9.324   7.889  0.00  0.00    -0.190 C 
ENDBRANCH  17  19
ENDBRANCH  16  17
ENDBRANCH  13  16
ENDBRANCH  12  13
ENDBRANCH  11  12
ENDBRANCH   7  11
ENDBRANCH   1   8
BRANCH   4  20
ATOM     20  S   LIG    1       -0.017   1.417   0.010  0.00  0.00    +2.720 S 
ATOM     21  O   LIG    1        1.162   2.210   0.003  0.00  0.00    -0.960 OA
ATOM     22  O   LIG    1        0.002  -0.004   0.002  0.00  0.00    -0.950 OA
BRANCH  20  23
ATOM     23  C   LIG    1       -0.957   1.909  -1.397  0.00  0.00    -0.820 A 
ATOM     24  C   LIG    1       -0.874   3.101  -2.032  0.00  0.00    +0.370 A 
ATOM     25  N   LIG    1       -1.753   3.084  -3.055  0.00  0.00    -0.360 N 
ATOM     26  N   LIG    1       -2.398   1.841  -3.049  0.00  0.00    -0.290 NA
ATOM     27  C   LIG    1       -1.991   4.173  -4.006  0.00  0.00    +0.380 C 
ATOM     28  C   LIG    1       -1.916   1.135  -2.058  0.00  0.00    +0.330 A 
ENDBRANCH  20  23
ENDBRANCH   4  20
TORSDOF 9
