REMARK  Name = ZINCpe000000XTye.0
REMARK                            x       y       z     vdW  Elec       q    Type
REMARK                         _______ _______ _______ _____ _____    ______ ____
ROOT
ATOM      1  C   LIG    1       -1.442   7.846   1.477  0.00  0.00    +0.500 C 
ATOM      2  N   LIG    1       -1.544   9.165   1.731  0.00  0.00    -0.620 N 
ATOM      3  H   LIG    1       -1.601   9.797   0.998  0.00  0.00    +0.430 HD
ATOM      4  O   LIG    1       -1.372   7.055   2.394  0.00  0.00    -0.490 OA
ENDROOT
BRANCH   2   5
ATOM      5  C   LIG    1       -1.568   9.621   3.044  0.00  0.00    +0.240 A 
ATOM      6  N   LIG    1       -1.663  10.864   3.397  0.00  0.00    -0.480 NA
ATOM      7  C   LIG    1       -1.672  11.119   4.692  0.00  0.00    +0.110 A 
ATOM      8  C   LIG    1       -1.580  10.039   5.471  0.00  0.00    -0.130 A 
ATOM      9  S   LIG    1       -1.484   8.621   4.429  0.00  0.00    +0.250 S 
BRANCH   7  10
ATOM     10  C   LIG    1       -1.778  12.516   5.247  0.00  0.00    +0.150 C 
BRANCH  10  11
ATOM     11  C   LIG    1       -0.683  13.372   4.664  0.00  0.00    +0.520 C 
ATOM     12  O   LIG    1        0.106  12.895   3.876  0.00  0.00    -0.520 OA
ATOM     13  N   LIG    1       -0.580  14.668   5.019  0.00  0.00    -0.860 N 
ATOM     14  H   LIG    1        0.125  15.219   4.644  0.00  0.00    +0.400 HD
ATOM     15  H   LIG    1       -1.210  15.050   5.649  0.00  0.00    +0.400 HD
ENDBRANCH  10  11
ENDBRANCH   7  10
ENDBRANCH   2   5
BRANCH   1  16
ATOM     16  C   LIG    1       -1.416   7.352   0.054  0.00  0.00    +0.370 C 
BRANCH  16  25
ATOM     17  C   LIG    1       -2.510   0.962   0.019  0.00  0.00    +0.110 C 
ATOM     18  C   LIG    1       -1.219   1.739   0.017  0.00  0.00    -0.070 A 
ATOM     19  C   LIG    1       -0.013   1.076   0.008  0.00  0.00    +0.060 A 
ATOM     20  C   LIG    1        1.186   1.778   0.000  0.00  0.00    +0.010 A 
ATOM     21  C   LIG    1        1.190   3.155   0.008  0.00  0.00    +0.090 A 
ATOM     22  C   LIG    1       -0.019   3.846   0.023  0.00  0.00    -0.190 A 
ATOM     23  C   LIG    1       -0.076   5.316   0.031  0.00  0.00    +0.550 A 
ATOM     24  O   LIG    1        0.939   5.988   0.025  0.00  0.00    -0.500 OA
ATOM     25  N   LIG    1       -1.301   5.892   0.045  0.00  0.00    -0.540 N 
ATOM     26  C   LIG    1       -2.425   5.128   0.052  0.00  0.00    +0.580 A 
ATOM     27  N   LIG    1       -2.405   3.830   0.045  0.00  0.00    -0.510 NA
ATOM     28  C   LIG    1       -1.240   3.135   0.031  0.00  0.00    +0.150 A 
ENDBRANCH  16  25
ENDBRANCH   1  16
TORSDOF 5
