REMARK  Name = ZINCtV000002FAl5.0
REMARK                            x       y       z     vdW  Elec       q    Type
REMARK                         _______ _______ _______ _____ _____    ______ ____
ROOT
ATOM      1  C   LIG    1        0.180  -4.223  -0.077  0.00  0.00    +0.550 C 
ATOM      2  O   LIG    1        1.236  -4.831  -0.093  0.00  0.00    -0.500 OA
ENDROOT
BRANCH   1  13
ATOM      3  C   LIG    1        2.993  -2.702  -3.943  0.00  0.00    +0.150 C 
ATOM      4  C   LIG    1        2.197  -2.015  -2.863  0.00  0.00    +0.220 A 
ATOM      5  C   LIG    1        1.564  -2.774  -1.940  0.00  0.00    -0.150 A 
ATOM      6  C   LIG    1        0.811  -2.161  -0.914  0.00  0.00    +0.350 A 
ATOM      7  C   LIG    1        0.748  -0.690  -0.896  0.00  0.00    -0.120 A 
ATOM      8  C   LIG    1        0.027  -0.005   0.083  0.00  0.00    +0.120 A 
ATOM      9  C   LIG    1       -0.007   1.362   0.065  0.00  0.00    -0.020 A 
ATOM     10  C   LIG    1        0.670   2.072  -0.918  0.00  0.00    +0.090 A 
ATOM     11  C   LIG    1        1.387   1.415  -1.893  0.00  0.00    -0.030 A 
ATOM     12  C   LIG    1        1.436   0.024  -1.894  0.00  0.00    +0.190 A 
ATOM     13  N   LIG    1        0.177  -2.892   0.009  0.00  0.00    -0.620 NA
ATOM     14  N   LIG    1        2.144  -0.663  -2.853  0.00  0.00    -0.600 N 
ATOM     15  H   LIG    1        2.617  -0.166  -3.539  0.00  0.00    +0.420 HD
ENDBRANCH   1  13
BRANCH   1  16
ATOM     16  C   LIG    1       -1.102  -4.962  -0.154  0.00  0.00    -0.070 A 
ATOM     17  C   LIG    1       -2.312  -4.296  -0.261  0.00  0.00    +0.050 A 
ATOM     18  C   LIG    1       -3.504  -5.038  -0.338  0.00  0.00    +0.220 A 
ATOM     19  N   LIG    1       -3.515  -6.356  -0.300  0.00  0.00    -0.450 NA
ATOM     20  C   LIG    1       -2.396  -7.076  -0.193  0.00  0.00    +0.130 A 
ATOM     21  C   LIG    1       -2.438  -8.481  -0.155  0.00  0.00    +0.050 A 
ATOM     22  C   LIG    1       -1.280  -9.189  -0.045  0.00  0.00    +0.030 A 
ATOM     23  C   LIG    1       -0.049  -8.544   0.030  0.00  0.00    +0.020 A 
ATOM     24  C   LIG    1        0.031  -7.183  -0.003  0.00  0.00    +0.060 A 
ATOM     25  C   LIG    1       -1.139  -6.425  -0.115  0.00  0.00    -0.070 A 
BRANCH  18  26
ATOM     26  C   LIG    1       -4.785  -4.317  -0.457  0.00  0.00    -0.160 A 
ATOM     27  C   LIG    1       -6.001  -4.897  -0.539  0.00  0.00    +0.070 A 
ATOM     28  C   LIG    1       -7.054  -4.015  -0.641  0.00  0.00    +0.010 A 
ATOM     29  C   LIG    1       -6.712  -2.721  -0.653  0.00  0.00    -0.030 A 
ATOM     30  S   LIG    1       -4.965  -2.568  -0.523  0.00  0.00    +0.140 S 
ENDBRANCH  18  26
ENDBRANCH   1  16
TORSDOF 3
