REMARK  Name = ZINCpk00000jgTUj.0
REMARK                            x       y       z     vdW  Elec       q    Type
REMARK                         _______ _______ _______ _____ _____    ______ ____
ROOT
ATOM      1  C   LIG    1       -0.999  -0.545   0.991  0.00  0.00    +0.510 C 
ATOM      2  N   LIG    1       -1.143  -1.876   1.143  0.00  0.00    -0.610 N 
ATOM      3  C   LIG    1       -0.337  -2.813   0.349  0.00  0.00    +0.270 C 
ATOM      4  C   LIG    1       -1.269  -3.796  -0.357  0.00  0.00    +0.030 C 
ATOM      5  C   LIG    1       -2.176  -4.467   0.676  0.00  0.00    +0.010 C 
ATOM      6  C   LIG    1       -3.030  -3.406   1.373  0.00  0.00    +0.240 C 
ATOM      7  C   LIG    1       -2.115  -2.418   2.103  0.00  0.00    +0.280 C 
ATOM      8  O   LIG    1       -1.674   0.218   1.649  0.00  0.00    -0.520 OA
ENDROOT
BRANCH   1  14
ATOM      9  N   LIG    1       -0.018   1.463   0.010  0.00  0.00    -0.600 N 
ATOM     10  C   LIG    1        1.228   1.969   0.001  0.00  0.00    +0.520 C 
ATOM     11  C   LIG    1        2.244   0.848  -0.005  0.00  0.00    +0.060 C 
ATOM     12  C   LIG    1        1.435  -0.399   0.422  0.00  0.00    +0.070 C 
ATOM     13  O   LIG    1        1.498   3.151  -0.003  0.00  0.00    -0.520 OA
ATOM     14  C   LIG    1        0.002  -0.004   0.002  0.00  0.00    +0.220 C 
BRANCH   9  16
ATOM     15  C   LIG    1       -1.258   3.150   1.275  0.00  0.00    +0.030 C 
ATOM     16  C   LIG    1       -1.238   2.273   0.021  0.00  0.00    +0.250 C 
ATOM     17  C   LIG    1       -1.271   3.163  -1.224  0.00  0.00    +0.020 C 
ENDBRANCH   9  16
ENDBRANCH   1  14
BRANCH   6  18
ATOM     18  N   LIG    1       -3.922  -4.052   2.340  0.00  0.00    -0.610 N 
ATOM     19  C   LIG    1       -5.258  -3.924   2.215  0.00  0.00    +0.550 C 
ATOM     20  O   LIG    1       -5.722  -3.273   1.303  0.00  0.00    -0.530 OA
ATOM     21  C   LIG    1       -3.361  -4.838   3.442  0.00  0.00    +0.280 C 
BRANCH  19  22
ATOM     22  C   LIG    1       -6.175  -4.588   3.209  0.00  0.00    -0.070 C 
ATOM     23  C   LIG    1       -7.029  -5.756   2.711  0.00  0.00    +0.060 C 
ATOM     24  C   LIG    1       -7.681  -4.405   3.014  0.00  0.00    +0.000 C 
ATOM     25  C   LIG    1       -8.549  -4.304   4.269  0.00  0.00    +0.060 C 
ENDBRANCH  19  22
ENDBRANCH   6  18
TORSDOF 4
