REMARK  Name = ZINCpk000000n88W.0
REMARK                            x       y       z     vdW  Elec       q    Type
REMARK                         _______ _______ _______ _____ _____    ______ ____
ROOT
ATOM      1  C   LIG    1       -2.918   1.619   2.445  0.00  0.00    +0.520 C 
ATOM      2  N   LIG    1       -2.506   1.183   3.652  0.00  0.00    -0.520 N 
ATOM      3  H   LIG    1       -1.753   0.575   3.718  0.00  0.00    +0.430 HD
ATOM      4  O   LIG    1       -3.860   2.379   2.363  0.00  0.00    -0.530 OA
ENDROOT
BRANCH   1   9
ATOM      5  C   LIG    1       -0.078   2.260  -2.139  0.00  0.00    +0.650 C 
ATOM      6  N   LIG    1       -0.729   1.575  -1.178  0.00  0.00    -0.600 N 
ATOM      7  C   LIG    1       -0.013   1.086   0.008  0.00  0.00    +0.310 C 
ATOM      8  C   LIG    1       -0.736   1.583   1.264  0.00  0.00    +0.040 C 
ATOM      9  C   LIG    1       -2.208   1.161   1.197  0.00  0.00    +0.010 C 
ATOM     10  C   LIG    1       -2.869   1.797  -0.028  0.00  0.00    +0.060 C 
ATOM     11  C   LIG    1       -2.168   1.303  -1.297  0.00  0.00    +0.290 C 
ATOM     12  O   LIG    1        1.112   2.479  -2.029  0.00  0.00    -0.570 OA
BRANCH   5  13
ATOM     13  O   LIG    1       -0.747   2.703  -3.220  0.00  0.00    -0.360 OA
BRANCH  13  15
ATOM     14  C   LIG    1        1.134   2.539  -4.759  0.00  0.00    +0.040 C 
ATOM     15  C   LIG    1        0.018   3.434  -4.215  0.00  0.00    +0.140 C 
ATOM     16  C   LIG    1        0.632   4.680  -3.572  0.00  0.00    +0.040 C 
ATOM     17  C   LIG    1       -0.904   3.853  -5.361  0.00  0.00    +0.080 C 
ENDBRANCH  13  15
ENDBRANCH   5  13
ENDBRANCH   1   9
BRANCH   2  18
ATOM     18  N   LIG    1       -3.166   1.609   4.813  0.00  0.00    -0.520 N 
ATOM     19  H   LIG    1       -3.919   2.217   4.747  0.00  0.00    +0.430 HD
ATOM     20  C   LIG    1       -2.754   1.173   6.020  0.00  0.00    +0.560 C 
ATOM     21  O   LIG    1       -1.811   0.412   6.102  0.00  0.00    -0.520 OA
BRANCH  20  22
ATOM     22  C   LIG    1       -3.452   1.623   7.247  0.00  0.00    -0.080 A 
ATOM     23  C   LIG    1       -4.536   2.504   7.176  0.00  0.00    +0.000 A 
ATOM     24  C   LIG    1       -5.160   2.894   8.345  0.00  0.00    +0.270 A 
ATOM     25  N   LIG    1       -4.741   2.455   9.515  0.00  0.00    -0.460 NA
ATOM     26  C   LIG    1       -3.720   1.629   9.627  0.00  0.00    +0.270 A 
ATOM     27  C   LIG    1       -3.041   1.184   8.509  0.00  0.00    +0.040 A 
ENDBRANCH  20  22
ENDBRANCH   2  18
TORSDOF 5
