REMARK  Name = ZINCvU0000000Iic.0
REMARK                            x       y       z     vdW  Elec       q    Type
REMARK                         _______ _______ _______ _____ _____    ______ ____
ROOT
ATOM      1  C   LIG    1       -1.527   1.771   1.784  0.00  0.00    +0.560 C 
ATOM      2  N   LIG    1       -1.478   2.154   0.493  0.00  0.00    -0.600 N 
ATOM      3  C   LIG    1       -0.888   3.445   0.116  0.00  0.00    +0.280 C 
ATOM      4  C   LIG    1        0.188   3.198  -0.951  0.00  0.00    +0.010 C 
ATOM      5  C   LIG    1       -0.427   2.425  -2.119  0.00  0.00    +0.020 C 
ATOM      6  C   LIG    1       -0.935   1.068  -1.624  0.00  0.00    +0.040 C 
ATOM      7  C   LIG    1       -2.019   1.289  -0.565  0.00  0.00    +0.320 C 
ATOM      8  O   LIG    1       -1.920   0.658   2.074  0.00  0.00    -0.510 OA
ENDROOT
BRANCH   7   9
ATOM      9  C   LIG    1       -2.429  -0.036   0.026  0.00  0.00    +0.120 A 
ATOM     10  N   LIG    1       -1.730  -1.104  -0.049  0.00  0.00    -0.460 NA
ATOM     11  C   LIG    1       -2.219  -2.218   0.530  0.00  0.00    +0.090 A 
ATOM     12  C   LIG    1       -1.666  -3.512   0.602  0.00  0.00    +0.060 A 
ATOM     13  C   LIG    1       -2.335  -4.513   1.239  0.00  0.00    +0.020 A 
ATOM     14  C   LIG    1       -3.570  -4.281   1.826  0.00  0.00    +0.020 A 
ATOM     15  C   LIG    1       -4.135  -3.026   1.771  0.00  0.00    +0.060 A 
ATOM     16  C   LIG    1       -3.465  -1.990   1.125  0.00  0.00    -0.180 A 
ATOM     17  S   LIG    1       -3.888  -0.299   0.872  0.00  0.00    +0.130 S 
ENDBRANCH   7   9
BRANCH   1  22
ATOM     18  C   LIG    1        0.017   3.112   4.941  0.00  0.00    +0.140 A 
ATOM     19  C   LIG    1       -0.298   4.462   4.840  0.00  0.00    +0.010 A 
ATOM     20  C   LIG    1       -1.008   4.931   3.750  0.00  0.00    +0.040 A 
ATOM     21  C   LIG    1       -1.409   4.062   2.756  0.00  0.00    +0.020 A 
ATOM     22  C   LIG    1       -1.099   2.704   2.848  0.00  0.00    -0.110 A 
ATOM     23  C   LIG    1       -0.388   2.230   3.950  0.00  0.00    +0.090 A 
BRANCH  18  26
ATOM     24  O   LIG    1        1.746   1.092   4.814  0.00  0.00    -0.500 OA
ATOM     25  C   LIG    1        1.627   1.642   5.893  0.00  0.00    +0.590 C 
ATOM     26  N   LIG    1        0.736   2.642   6.045  0.00  0.00    -0.670 N 
ATOM     27  H   LIG    1        0.593   3.036   6.920  0.00  0.00    +0.410 HD
BRANCH  25  28
ATOM     28  C   LIG    1        2.452   1.218   7.027  0.00  0.00    -0.280 A 
ATOM     29  C   LIG    1        3.386   0.221   6.998  0.00  0.00    +0.120 A 
ATOM     30  C   LIG    1        4.017   0.032   8.205  0.00  0.00    +0.000 A 
ATOM     31  C   LIG    1        3.614   0.844   9.189  0.00  0.00    -0.050 A 
ATOM     32  S   LIG    1        2.404   1.914   8.641  0.00  0.00    +0.200 S 
ENDBRANCH  25  28
ENDBRANCH  18  26
ENDBRANCH   1  22
TORSDOF 4
