REMARK  Name = ZINCrH000004rDJE.2
REMARK                            x       y       z     vdW  Elec       q    Type
REMARK                         _______ _______ _______ _____ _____    ______ ____
ROOT
ATOM      1  N   LIG    1       -0.033   0.011  -2.413  0.00  0.00    -0.670 N 
ATOM      2  H   LIG    1       -0.127   0.976  -2.410  0.00  0.00    +0.420 HD
ATOM      3  C   LIG    1        0.061  -0.654  -3.582  0.00  0.00    +0.510 C 
ATOM      4  O   LIG    1        0.078  -1.866  -3.590  0.00  0.00    -0.490 OA
ENDROOT
BRANCH   1  11
ATOM      5  C   LIG    1       -1.254   1.195  -0.132  0.00  0.00    +0.120 C 
ATOM      6  C   LIG    1       -0.579  -0.151  -0.066  0.00  0.00    -0.070 A 
ATOM      7  C   LIG    1       -0.545  -0.850   1.125  0.00  0.00    +0.050 A 
ATOM      8  C   LIG    1        0.075  -2.084   1.186  0.00  0.00    +0.090 A 
ATOM      9  C   LIG    1        0.662  -2.623   0.056  0.00  0.00    -0.030 A 
ATOM     10  C   LIG    1        0.632  -1.929  -1.138  0.00  0.00    +0.110 A 
ATOM     11  C   LIG    1        0.005  -0.692  -1.204  0.00  0.00    +0.150 A 
BRANCH   9  12
ATOM     12  N   LIG    1        1.324  -3.945   0.126  0.00  0.00    +0.030 N 
ATOM     13  O   LIG    1        1.842  -4.420  -0.869  0.00  0.00    -0.150 OA
ATOM     14  O   LIG    1        1.352  -4.558   1.179  0.00  0.00    -0.160 OA
ENDBRANCH   9  12
ENDBRANCH   1  11
BRANCH   3  15
ATOM     15  C   LIG    1        0.145   0.110  -4.878  0.00  0.00    +0.210 C 
BRANCH  15  16
ATOM     16  N   LIG    1        0.240  -0.835  -5.998  0.00  0.00    -0.490 NA
ATOM     17  C   LIG    1       -1.042  -1.561  -6.192  0.00  0.00    +0.170 C 
ATOM     18  C   LIG    1       -0.943  -2.071  -7.652  0.00  0.00    +0.030 C 
ATOM     19  C   LIG    1       -0.235  -0.905  -8.379  0.00  0.00    -0.010 C 
ATOM     20  C   LIG    1        0.498  -0.126  -7.271  0.00  0.00    +0.130 C 
ATOM     21  C   LIG    1        2.001  -0.101  -7.557  0.00  0.00    +0.040 C 
BRANCH  19  22
ATOM     22  C   LIG    1        0.766  -1.446  -9.401  0.00  0.00    +0.090 C 
BRANCH  22  23
ATOM     23  C   LIG    1        0.024  -2.157 -10.503  0.00  0.00    -0.080 A 
ATOM     24  C   LIG    1       -0.240  -3.510 -10.398  0.00  0.00    +0.000 A 
ATOM     25  C   LIG    1       -0.925  -4.160 -11.407  0.00  0.00    +0.000 A 
ATOM     26  C   LIG    1       -1.337  -3.461 -12.526  0.00  0.00    -0.010 A 
ATOM     27  C   LIG    1       -1.068  -2.109 -12.633  0.00  0.00    +0.000 A 
ATOM     28  C   LIG    1       -0.388  -1.457 -11.622  0.00  0.00    +0.000 A 
ENDBRANCH  22  23
ENDBRANCH  19  22
ENDBRANCH  15  16
ENDBRANCH   3  15
TORSDOF 6
