REMARK  Name = ZINCpe000000XmUy.0
REMARK                            x       y       z     vdW  Elec       q    Type
REMARK                         _______ _______ _______ _____ _____    ______ ____
ROOT
ATOM      1  C   LIG    1        0.139   4.122  -2.149  0.00  0.00    +0.080 C 
ATOM      2  C   LIG    1       -0.018   4.142  -0.627  0.00  0.00    +0.250 C 
ATOM      3  C   LIG    1       -1.267   3.393  -0.237  0.00  0.00    +0.520 C 
ATOM      4  N   LIG    1       -1.225   2.075   0.032  0.00  0.00    -0.650 N 
ATOM      5  H   LIG    1       -2.044   1.602   0.247  0.00  0.00    +0.420 HD
ATOM      6  C   LIG    1       -0.011   1.378   0.003  0.00  0.00    +0.130 A 
ATOM      7  C   LIG    1        0.011  -0.007  -0.010  0.00  0.00    +0.010 A 
ATOM      8  C   LIG    1        1.221  -0.676  -0.027  0.00  0.00    +0.030 A 
ATOM      9  C   LIG    1        2.410   0.030  -0.031  0.00  0.00    +0.010 A 
ATOM     10  C   LIG    1        2.397   1.414  -0.020  0.00  0.00    +0.050 A 
ATOM     11  C   LIG    1        1.191   2.089  -0.005  0.00  0.00    +0.110 A 
ATOM     12  O   LIG    1       -2.323   3.986  -0.164  0.00  0.00    -0.510 OA
ATOM     13  N   LIG    1        1.144   3.492  -0.004  0.00  0.00    -0.560 N 
ATOM     14  C   LIG    1        2.134   4.220   0.550  0.00  0.00    +0.510 C 
ATOM     15  O   LIG    1        3.035   3.666   1.144  0.00  0.00    -0.490 OA
ENDROOT
BRANCH  14  16
ATOM     16  C   LIG    1        2.121   5.722   0.433  0.00  0.00    +0.420 C 
BRANCH  16  17
ATOM     17  N   LIG    1        3.353   6.268   1.007  0.00  0.00    -0.420 N 
ATOM     18  N   LIG    1        3.544   6.657   2.340  0.00  0.00    -0.280 NA
ATOM     19  C   LIG    1        4.777   7.089   2.462  0.00  0.00    +0.300 A 
ATOM     20  C   LIG    1        5.501   7.595   3.571  0.00  0.00    +0.040 A 
ATOM     21  C   LIG    1        6.789   7.982   3.403  0.00  0.00    +0.110 A 
ATOM     22  C   LIG    1        7.393   7.878   2.134  0.00  0.00    -0.020 A 
ATOM     23  C   LIG    1        6.703   7.397   1.085  0.00  0.00    +0.300 A 
ATOM     24  N   LIG    1        5.395   6.998   1.228  0.00  0.00    -0.480 N 
ATOM     25  C   LIG    1        4.508   6.493   0.348  0.00  0.00    +0.650 A 
ATOM     26  O   LIG    1        4.713   6.277  -0.834  0.00  0.00    -0.530 OA
ENDBRANCH  16  17
ENDBRANCH  14  16
TORSDOF 2
