REMARK  Name = ZINCrg00000fRFFr.0
REMARK                            x       y       z     vdW  Elec       q    Type
REMARK                         _______ _______ _______ _____ _____    ______ ____
ROOT
ATOM      1  C   LIG    1       -0.100  11.584   3.015  0.00  0.00    +0.000 C 
ATOM      2  C   LIG    1       -0.142  12.317   1.672  0.00  0.00    +0.030 C 
ATOM      3  C   LIG    1       -0.527  11.333   0.565  0.00  0.00    +0.010 C 
ATOM      4  C   LIG    1        0.535  10.227   0.478  0.00  0.00    +0.260 C 
ATOM      5  N   LIG    1        0.679   9.613   1.805  0.00  0.00    -0.630 N 
ATOM      6  C   LIG    1        0.562   8.280   1.962  0.00  0.00    +0.710 C 
ATOM      7  N   LIG    1        0.408   7.486   0.884  0.00  0.00    -0.740 N 
ATOM      8  H   LIG    1        0.310   7.878   0.003  0.00  0.00    +0.400 HD
ATOM      9  O   LIG    1        0.594   7.793   3.076  0.00  0.00    -0.580 OA
ATOM     10  C   LIG    1        0.961  10.480   2.957  0.00  0.00    +0.300 C 
ENDROOT
BRANCH   7  11
ATOM     11  C   LIG    1        0.390   6.029   1.044  0.00  0.00    +0.250 C 
ATOM     12  C   LIG    1       -0.384   5.397  -0.116  0.00  0.00    +0.030 C 
ATOM     13  C   LIG    1       -0.348   3.873   0.023  0.00  0.00    +0.210 C 
ATOM     14  N   LIG    1        1.046   3.413   0.014  0.00  0.00    -0.480 N 
ATOM     15  C   LIG    1        1.797   3.970   1.146  0.00  0.00    +0.200 C 
ATOM     16  C   LIG    1        1.825   5.496   1.040  0.00  0.00    +0.030 C 
BRANCH  14  17
ATOM     17  C   LIG    1        1.112   2.024   0.007  0.00  0.00    +0.310 A 
ATOM     18  C   LIG    1        2.351   1.393  -0.003  0.00  0.00    -0.050 A 
ATOM     19  C   LIG    1        2.402   0.011  -0.011  0.00  0.00    +0.090 A 
ATOM     20  C   LIG    1        1.207  -0.697  -0.008  0.00  0.00    -0.070 A 
ATOM     21  C   LIG    1        0.012  -0.005   0.003  0.00  0.00    +0.290 A 
ATOM     22  N   LIG    1       -0.006   1.314   0.009  0.00  0.00    -0.520 NA
ENDBRANCH  14  17
ENDBRANCH   7  11
BRANCH   1  23
ATOM     23  C   LIG    1        0.253  12.574   4.127  0.00  0.00    -0.350 C 
BRANCH  23  24
ATOM     24  S   LIG    1        0.162  11.736   5.734  0.00  0.00    +2.600 S 
ATOM     25  O   LIG    1        1.200  10.774   5.854  0.00  0.00    -0.950 OA
ATOM     26  O   LIG    1       -1.184  11.405   6.048  0.00  0.00    -0.950 OA
BRANCH  24  28
ATOM     27  C   LIG    1       -0.308  14.073   7.012  0.00  0.00    +0.290 C 
ATOM     28  N   LIG    1        0.562  12.908   6.834  0.00  0.00    -1.120 NA
ATOM     29  H   LIG    1        1.372  12.823   7.360  0.00  0.00    +0.420 HD
ENDBRANCH  24  28
ENDBRANCH  23  24
ENDBRANCH   1  23
TORSDOF 5
