REMARK  Name = ZINCrH000004noFy.0
REMARK                            x       y       z     vdW  Elec       q    Type
REMARK                         _______ _______ _______ _____ _____    ______ ____
ROOT
ATOM      1  C   LIG    1       -3.604  -4.910  -0.202  0.00  0.00    -0.290 A 
ATOM      2  C   LIG    1       -3.695  -6.243  -0.320  0.00  0.00    +0.060 A 
ATOM      3  C   LIG    1       -4.991  -6.751  -0.397  0.00  0.00    -0.240 A 
ATOM      4  C   LIG    1       -5.973  -5.756  -0.347  0.00  0.00    +0.100 A 
ATOM      5  N   LIG    1       -7.273  -6.100  -0.416  0.00  0.00    -0.510 NA
ATOM      6  C   LIG    1       -7.667  -7.333  -0.519  0.00  0.00    +0.430 A 
ATOM      7  C   LIG    1       -9.142  -7.660  -0.573  0.00  0.00    +0.130 C 
ATOM      8  C   LIG    1       -9.564  -8.278   0.758  0.00  0.00    +0.040 C 
ATOM      9  C   LIG    1       -9.363  -9.783   0.752  0.00  0.00    +0.020 C 
ATOM     10  C   LIG    1       -7.896 -10.165   0.647  0.00  0.00    +0.020 C 
ATOM     11  C   LIG    1       -7.311  -9.734  -0.697  0.00  0.00    +0.300 C 
ATOM     12  N   LIG    1       -6.782  -8.370  -0.576  0.00  0.00    -0.530 N 
ATOM     13  C   LIG    1       -5.457  -8.148  -0.524  0.00  0.00    +0.570 A 
ATOM     14  O   LIG    1       -4.664  -9.071  -0.580  0.00  0.00    -0.500 OA
ATOM     15  C   LIG    1       -2.479  -7.132  -0.361  0.00  0.00    +0.140 C 
ATOM     16  S   LIG    1       -5.201  -4.182  -0.195  0.00  0.00    +0.230 S 
ENDROOT
BRANCH   1  19
ATOM     17  N   LIG    1       -2.365  -2.821   0.009  0.00  0.00    -0.670 N 
ATOM     18  H   LIG    1       -3.211  -2.353   0.088  0.00  0.00    +0.410 HD
ATOM     19  C   LIG    1       -2.346  -4.164  -0.100  0.00  0.00    +0.600 C 
ATOM     20  O   LIG    1       -1.284  -4.758  -0.115  0.00  0.00    -0.490 OA
BRANCH  17  25
ATOM     21  C   LIG    1        1.154  -1.924   0.603  0.00  0.00    +0.150 A 
ATOM     22  C   LIG    1        1.206  -0.670   0.010  0.00  0.00    -0.090 A 
ATOM     23  C   LIG    1        0.079  -0.139  -0.588  0.00  0.00    +0.070 A 
ATOM     24  C   LIG    1       -1.106  -0.849  -0.587  0.00  0.00    -0.050 A 
ATOM     25  C   LIG    1       -1.166  -2.102   0.009  0.00  0.00    +0.180 A 
ATOM     26  C   LIG    1       -0.034  -2.640   0.605  0.00  0.00    +0.000 A 
BRANCH  21  28
ATOM     27  C   LIG    1        3.453  -1.655   1.145  0.00  0.00    +0.250 C 
ATOM     28  O   LIG    1        2.264  -2.448   1.185  0.00  0.00    -0.310 OA
ENDBRANCH  21  28
ENDBRANCH  17  25
ENDBRANCH   1  19
TORSDOF 3
