REMARK  Name = ZINCvU00000007SL.0
REMARK                            x       y       z     vdW  Elec       q    Type
REMARK                         _______ _______ _______ _____ _____    ______ ____
ROOT
ATOM      1  O   LIG    1       -4.341   1.594  -7.398  0.00  0.00    -0.510 OA
ATOM      2  C   LIG    1       -3.136   1.495  -7.271  0.00  0.00    +0.530 C 
ENDROOT
BRANCH   2   3
ATOM      3  C   LIG    1       -2.250   1.779  -8.413  0.00  0.00    -0.230 A 
ATOM      4  C   LIG    1       -2.782   2.153  -9.631  0.00  0.00    +0.400 A 
ATOM      5  N   LIG    1       -1.974   2.419 -10.676  0.00  0.00    -0.450 N 
ATOM      6  C   LIG    1       -0.637   2.317 -10.563  0.00  0.00    +0.520 A 
ATOM      7  C   LIG    1       -0.050   1.934  -9.342  0.00  0.00    -0.080 A 
ATOM      8  O   LIG    1        0.072   2.558 -11.525  0.00  0.00    -0.520 OA
ATOM      9  C   LIG    1       -0.845   1.665  -8.272  0.00  0.00    +0.170 A 
BRANCH   5  10
ATOM     10  C   LIG    1       -2.534   2.802 -11.901  0.00  0.00    +0.100 A 
ATOM     11  C   LIG    1       -2.873   1.839 -12.842  0.00  0.00    +0.050 A 
ATOM     12  C   LIG    1       -3.426   2.219 -14.049  0.00  0.00    +0.060 A 
ATOM     13  C   LIG    1       -3.643   3.557 -14.322  0.00  0.00    +0.060 A 
ATOM     14  C   LIG    1       -3.306   4.520 -13.386  0.00  0.00    -0.030 A 
ATOM     15 CL   LIG    1       -3.579   6.199 -13.732  0.00  0.00    -0.050 Cl
ATOM     16  C   LIG    1       -2.757   4.145 -12.174  0.00  0.00    +0.050 A 
ENDBRANCH   5  10
ENDBRANCH   2   3
BRANCH   2  17
ATOM     17  O   LIG    1       -2.611   1.125  -6.086  0.00  0.00    -0.340 OA
BRANCH  17  18
ATOM     18  C   LIG    1       -3.544   0.860  -5.006  0.00  0.00    +0.270 C 
BRANCH  18  19
ATOM     19  C   LIG    1       -2.781   0.463  -3.769  0.00  0.00    -0.100 A 
ATOM     20  C   LIG    1       -2.371   1.429  -2.869  0.00  0.00    +0.040 A 
ATOM     21  C   LIG    1       -1.670   1.064  -1.735  0.00  0.00    +0.010 A 
ATOM     22  C   LIG    1       -1.379  -0.266  -1.500  0.00  0.00    -0.060 A 
ATOM     23  C   LIG    1       -1.784  -1.232  -2.402  0.00  0.00    +0.010 A 
ATOM     24  C   LIG    1       -2.490  -0.868  -3.534  0.00  0.00    +0.040 A 
BRANCH  22  25
ATOM     25  C   LIG    1       -0.615  -0.664  -0.263  0.00  0.00    +0.110 C 
BRANCH  25  26
ATOM     26  C   LIG    1       -1.583  -0.938   0.859  0.00  0.00    -0.080 A 
ATOM     27  C   LIG    1       -1.963   0.083   1.709  0.00  0.00    +0.010 A 
ATOM     28  C   LIG    1       -2.854  -0.168   2.736  0.00  0.00    +0.000 A 
ATOM     29  C   LIG    1       -3.358  -1.442   2.917  0.00  0.00    +0.000 A 
ATOM     30  C   LIG    1       -2.974  -2.465   2.071  0.00  0.00    +0.000 A 
ATOM     31  C   LIG    1       -2.086  -2.213   1.041  0.00  0.00    +0.010 A 
ENDBRANCH  25  26
ENDBRANCH  22  25
ENDBRANCH  18  19
ENDBRANCH  17  18
ENDBRANCH   2  17
TORSDOF 7
