REMARK  Name = ZINCtV00000L6kzj.0
REMARK                            x       y       z     vdW  Elec       q    Type
REMARK                         _______ _______ _______ _____ _____    ______ ____
ROOT
ATOM      1  C   LIG    1       -5.465   5.021  -1.201  0.00  0.00    +0.440 A 
ATOM      2  C   LIG    1       -5.312   4.296  -2.364  0.00  0.00    -0.050 A 
ATOM      3  C   LIG    1       -4.094   3.667  -2.619  0.00  0.00    +0.230 A 
ATOM      4  N   LIG    1       -3.103   3.766  -1.759  0.00  0.00    -0.470 NA
ATOM      5  C   LIG    1       -3.235   4.466  -0.627  0.00  0.00    +0.310 A 
ATOM      6  C   LIG    1       -2.357   4.723   0.433  0.00  0.00    -0.160 A 
ATOM      7  C   LIG    1       -3.046   5.518   1.357  0.00  0.00    +0.040 A 
ATOM      8  N   LIG    1       -4.254   5.744   0.903  0.00  0.00    -0.250 NA
ATOM      9  C   LIG    1       -3.911   2.872  -3.886  0.00  0.00    +0.160 C 
ATOM     10  N   LIG    1       -4.411   5.102  -0.329  0.00  0.00    -0.320 N 
ENDROOT
BRANCH   6  11
ATOM     11  C   LIG    1       -0.962   4.240   0.556  0.00  0.00    +0.000 A 
ATOM     12  C   LIG    1       -0.702   2.875   0.673  0.00  0.00    +0.050 A 
ATOM     13  C   LIG    1        0.599   2.431   0.793  0.00  0.00    +0.030 A 
ATOM     14  C   LIG    1        1.645   3.337   0.786  0.00  0.00    -0.030 A 
ATOM     15  C   LIG    1        1.393   4.693   0.664  0.00  0.00    +0.030 A 
ATOM     16 CL   LIG    1        3.280   2.771   0.930  0.00  0.00    -0.070 Cl
ATOM     17  C   LIG    1        0.096   5.149   0.550  0.00  0.00    +0.040 A 
ENDBRANCH   6  11
BRANCH   7  18
ATOM     18  C   LIG    1       -2.488   6.032   2.659  0.00  0.00    +0.560 C 
ATOM     19  F   LIG    1       -1.536   5.130   3.147  0.00  0.00    -0.150 F 
ATOM     20  F   LIG    1       -3.523   6.167   3.590  0.00  0.00    -0.160 F 
ATOM     21  F   LIG    1       -1.885   7.277   2.449  0.00  0.00    -0.160 F 
ENDBRANCH   7  18
BRANCH   1  22
ATOM     22  N   LIG    1       -6.658   5.653  -0.921  0.00  0.00    -0.670 N 
ATOM     23  H   LIG    1       -7.014   6.314  -1.536  0.00  0.00    +0.430 HD
BRANCH  22  28
ATOM     24  C   LIG    1       -9.486   4.394   3.832  0.00  0.00    +0.100 C 
ATOM     25  C   LIG    1       -8.735   4.728   2.569  0.00  0.00    -0.110 A 
ATOM     26  C   LIG    1       -9.157   5.777   1.773  0.00  0.00    +0.050 A 
ATOM     27  C   LIG    1       -8.470   6.087   0.615  0.00  0.00    -0.030 A 
ATOM     28  C   LIG    1       -7.355   5.343   0.251  0.00  0.00    +0.180 A 
ATOM     29  C   LIG    1       -6.938   4.286   1.050  0.00  0.00    -0.040 A 
ATOM     30  C   LIG    1       -7.625   3.986   2.209  0.00  0.00    +0.040 A 
ENDBRANCH  22  28
ENDBRANCH   1  22
TORSDOF 4
