REMARK  Name = ZINCrg00000fSJwK.0
REMARK                            x       y       z     vdW  Elec       q    Type
REMARK                         _______ _______ _______ _____ _____    ______ ____
ROOT
ATOM      1  C   LIG    1        1.373   0.065   0.689  0.00  0.00    +0.000 C 
ATOM      2  C   LIG    1        0.002  -0.004   0.002  0.00  0.00    +0.320 C 
ATOM      3  N   LIG    1       -0.018   1.466   0.010  0.00  0.00    -0.660 N 
ATOM      4  C   LIG    1       -0.966   2.424   0.020  0.00  0.00    +0.740 C 
ATOM      5  N   LIG    1       -0.611   3.724   0.025  0.00  0.00    -0.740 N 
ATOM      6  H   LIG    1        0.327   3.971   0.022  0.00  0.00    +0.400 HD
ATOM      7  O   LIG    1       -2.142   2.115   0.024  0.00  0.00    -0.580 OA
ATOM      8  C   LIG    1        1.452   1.432  -0.004  0.00  0.00    +0.270 C 
ENDROOT
BRANCH   1  14
ATOM      9  O   LIG    1        4.768  -0.116  -2.160  0.00  0.00    -0.530 OA
ATOM     10  C   LIG    1        4.112  -0.409  -1.180  0.00  0.00    +0.700 C 
ATOM     11  N   LIG    1        4.627  -0.536   0.048  0.00  0.00    -0.680 N 
ATOM     12  H   LIG    1        5.564  -0.407   0.263  0.00  0.00    +0.440 HD
ATOM     13  C   LIG    1        3.683  -0.867   0.951  0.00  0.00    +0.530 C 
ATOM     14  C   LIG    1        2.385  -0.960   0.172  0.00  0.00    +0.240 C 
ATOM     15  O   LIG    1        3.838  -1.053   2.139  0.00  0.00    -0.460 OA
ATOM     16  N   LIG    1        2.784  -0.643  -1.210  0.00  0.00    -0.720 N 
ATOM     17  H   LIG    1        2.205  -0.610  -1.987  0.00  0.00    +0.440 HD
ENDBRANCH   1  14
BRANCH   5  18
ATOM     18  C   LIG    1       -1.642   4.765   0.036  0.00  0.00    +0.340 C 
BRANCH  18  19
ATOM     19  C   LIG    1       -0.986   6.122   0.040  0.00  0.00    -0.110 A 
ATOM     20  C   LIG    1       -0.685   6.738   1.242  0.00  0.00    +0.040 A 
ATOM     21  C   LIG    1       -0.080   7.979   1.251  0.00  0.00    +0.020 A 
ATOM     22  C   LIG    1        0.218   8.615   0.048  0.00  0.00    -0.030 A 
ATOM     23  C   LIG    1       -0.092   7.992  -1.159  0.00  0.00    +0.020 A 
ATOM     24  C   LIG    1       -0.692   6.749  -1.157  0.00  0.00    +0.040 A 
BRANCH  22  25
ATOM     25  C   LIG    1        0.863   9.951   0.052  0.00  0.00    -0.100 A 
ATOM     26  C   LIG    1        1.173  10.587   1.257  0.00  0.00    +0.070 A 
ATOM     27  C   LIG    1        1.778  11.831   1.207  0.00  0.00    -0.030 A 
ATOM     28  C   LIG    1        2.045  12.404  -0.022  0.00  0.00    +0.260 A 
ATOM     29  N   LIG    1        1.736  11.782  -1.144  0.00  0.00    -0.480 NA
ATOM     30  C   LIG    1        1.164  10.595  -1.146  0.00  0.00    +0.270 A 
ENDBRANCH  22  25
ENDBRANCH  18  19
ENDBRANCH   5  18
TORSDOF 4
