REMARK  Name = ZINCrD000000gTTn.0
REMARK                            x       y       z     vdW  Elec       q    Type
REMARK                         _______ _______ _______ _____ _____    ______ ____
ROOT
ATOM      1  C   LIG    1       -9.239   1.347   1.652  0.00  0.00    -0.070 A 
ATOM      2  C   LIG    1       -9.035   0.117   2.249  0.00  0.00    +0.020 A 
ATOM      3  C   LIG    1       -7.850  -0.558   2.043  0.00  0.00    +0.010 A 
ATOM      4  C   LIG    1       -6.858  -0.014   1.237  0.00  0.00    -0.070 A 
ATOM      5  C   LIG    1       -5.586  -0.803   1.066  0.00  0.00    +0.070 C 
ATOM      6  C   LIG    1       -4.831  -0.353  -0.184  0.00  0.00    +0.320 C 
ATOM      7  N   LIG    1       -4.774   1.118  -0.173  0.00  0.00    -0.620 N 
ATOM      8  C   LIG    1       -6.046   1.843  -0.269  0.00  0.00    +0.320 C 
ATOM      9  C   LIG    1       -3.600   1.773  -0.073  0.00  0.00    +0.710 C 
ATOM     10  N   LIG    1       -3.584   3.117   0.025  0.00  0.00    -0.680 N 
ATOM     11  H   LIG    1       -4.413   3.603   0.162  0.00  0.00    +0.410 HD
ATOM     12  O   LIG    1       -2.555   1.151  -0.072  0.00  0.00    -0.560 OA
ATOM     13  C   LIG    1       -7.066   1.207   0.635  0.00  0.00    -0.100 A 
ATOM     14  C   LIG    1       -8.257   1.888   0.848  0.00  0.00    +0.010 A 
ENDROOT
BRANCH  10  15
ATOM     15  C   LIG    1       -2.373   3.812  -0.071  0.00  0.00    +0.170 A 
ATOM     16  C   LIG    1       -2.355   5.151  -0.453  0.00  0.00    +0.020 A 
ATOM     17  C   LIG    1       -1.132   5.797  -0.528  0.00  0.00    +0.100 A 
ATOM     18  C   LIG    1        0.022   5.096  -0.230  0.00  0.00    -0.460 A 
ATOM     19  N   LIG    1       -0.029   3.827   0.124  0.00  0.00    -0.370 NA
ATOM     20  C   LIG    1       -1.171   3.175   0.208  0.00  0.00    +0.260 A 
BRANCH  18  21
ATOM     21  S   LIG    1        1.581   5.911  -0.322  0.00  0.00    +2.510 S 
ATOM     22  O   LIG    1        1.377   6.954  -1.266  0.00  0.00    -0.930 OA
ATOM     23  O   LIG    1        2.509   4.864  -0.577  0.00  0.00    -0.910 OA
ATOM     24  C   LIG    1        1.834   6.595   1.339  0.00  0.00    -0.240 C 
ENDBRANCH  18  21
ENDBRANCH  10  15
BRANCH   1  26
ATOM     25  C   LIG    1      -11.436   1.277   2.800  0.00  0.00    +0.030 C 
ATOM     26  C   LIG    1      -10.529   2.093   1.877  0.00  0.00    -0.030 C 
ATOM     27  C   LIG    1      -11.231   2.314   0.536  0.00  0.00    +0.040 C 
ATOM     28  C   LIG    1      -10.228   3.447   2.524  0.00  0.00    +0.040 C 
ENDBRANCH   1  26
TORSDOF 3
