REMARK  Name = ZINCpk00000xI2eW.0
REMARK                            x       y       z     vdW  Elec       q    Type
REMARK                         _______ _______ _______ _____ _____    ______ ____
ROOT
ATOM      1  C   LIG    1        3.665   2.708   1.163  0.00  0.00    +0.520 C 
ATOM      2  N   LIG    1        3.541   1.889   0.101  0.00  0.00    -0.600 N 
ATOM      3  C   LIG    1        4.492   1.908  -1.028  0.00  0.00    +0.370 C 
ATOM      4  S   LIG    1        4.332   0.209  -1.718  0.00  0.00    -0.230 S 
ATOM      5  C   LIG    1        2.542   0.074  -1.308  0.00  0.00    +0.170 C 
ATOM      6  C   LIG    1        2.462   0.920  -0.017  0.00  0.00    +0.240 C 
ATOM      7  O   LIG    1        2.858   2.654   2.068  0.00  0.00    -0.500 OA
ENDROOT
BRANCH   6   8
ATOM      8  C   LIG    1        1.147   1.655   0.000  0.00  0.00    +0.510 C 
ATOM      9  N   LIG    1       -0.011   0.966   0.007  0.00  0.00    -0.720 N 
ATOM     10  H   LIG    1        0.002  -0.004   0.002  0.00  0.00    +0.400 HD
ATOM     11  O   LIG    1        1.130   2.868   0.007  0.00  0.00    -0.510 OA
BRANCH   9  12
ATOM     12  C   LIG    1       -1.290   1.681   0.017  0.00  0.00    +0.320 C 
BRANCH  12  13
ATOM     13  C   LIG    1       -2.422   0.686   0.017  0.00  0.00    -0.110 A 
ATOM     14  C   LIG    1       -2.950   0.241  -1.180  0.00  0.00    +0.020 A 
ATOM     15  C   LIG    1       -3.986  -0.675  -1.180  0.00  0.00    +0.010 A 
ATOM     16  C   LIG    1       -4.499  -1.138   0.017  0.00  0.00    +0.010 A 
ATOM     17  C   LIG    1       -3.974  -0.689   1.214  0.00  0.00    +0.010 A 
ATOM     18  C   LIG    1       -2.935   0.224   1.214  0.00  0.00    +0.020 A 
ENDBRANCH  12  13
ENDBRANCH   9  12
ENDBRANCH   6   8
BRANCH   1  19
ATOM     19  C   LIG    1        4.805   3.692   1.228  0.00  0.00    +0.340 C 
BRANCH  19  26
ATOM     20  C   LIG    1        6.129   2.758   3.654  0.00  0.00    +0.150 C 
ATOM     21  C   LIG    1        5.330   4.035   3.614  0.00  0.00    +0.100 A 
ATOM     22  C   LIG    1        5.190   4.802   4.686  0.00  0.00    -0.040 A 
ATOM     23  S   LIG    1        4.188   6.166   4.159  0.00  0.00    +0.010 S 
ATOM     24  C   LIG    1        4.033   5.613   2.535  0.00  0.00    +0.480 A 
ATOM     25  O   LIG    1        3.426   6.157   1.630  0.00  0.00    -0.460 OA
ATOM     26  N   LIG    1        4.717   4.460   2.473  0.00  0.00    -0.520 N 
ENDBRANCH  19  26
ENDBRANCH   1  19
TORSDOF 5
