REMARK  Name = ZINCrD0000073zxj.0
REMARK                            x       y       z     vdW  Elec       q    Type
REMARK                         _______ _______ _______ _____ _____    ______ ____
ROOT
ATOM      1  C   LIG    1       -2.297  -1.129   4.096  0.00  0.00    +0.190 A 
ATOM      2  C   LIG    1       -1.652  -1.616   2.961  0.00  0.00    -0.090 A 
ATOM      3  C   LIG    1       -1.138  -0.756   2.035  0.00  0.00    +0.140 A 
ATOM      4  C   LIG    1       -1.260   0.625   2.225  0.00  0.00    -0.190 A 
ATOM      5  C   LIG    1       -1.911   1.124   3.369  0.00  0.00    +0.190 A 
ATOM      6  O   LIG    1       -2.026   2.457   3.550  0.00  0.00    -0.270 OA
ATOM      7  C   LIG    1       -1.531   3.330   2.658  0.00  0.00    +0.520 A 
ATOM      8  C   LIG    1       -0.864   2.900   1.492  0.00  0.00    -0.240 A 
ATOM      9  O   LIG    1       -1.658   4.524   2.863  0.00  0.00    -0.460 OA
ATOM     10  C   LIG    1       -0.718   1.572   1.248  0.00  0.00    +0.050 A 
ATOM     11  C   LIG    1       -0.013   1.086   0.008  0.00  0.00    +0.130 C 
ATOM     12  C   LIG    1       -2.427   0.236   4.300  0.00  0.00    -0.030 A 
ENDROOT
BRANCH   1  14
ATOM     13  C   LIG    1       -2.637  -3.390   4.739  0.00  0.00    +0.250 C 
ATOM     14  O   LIG    1       -2.803  -1.997   5.008  0.00  0.00    -0.310 OA
ENDBRANCH   1  14
BRANCH   8  15
ATOM     15  C   LIG    1       -0.317   3.912   0.518  0.00  0.00    +0.130 C 
BRANCH  15  16
ATOM     16  C   LIG    1       -1.425   4.341  -0.446  0.00  0.00    +0.110 C 
BRANCH  16  17
ATOM     17  C   LIG    1       -0.878   5.353  -1.420  0.00  0.00    +0.470 C 
ATOM     18  O   LIG    1        0.278   5.695  -1.350  0.00  0.00    -0.500 OA
BRANCH  17  19
ATOM     19  O   LIG    1       -1.676   5.873  -2.366  0.00  0.00    -0.350 OA
BRANCH  19  20
ATOM     20  C   LIG    1       -1.083   6.842  -3.270  0.00  0.00    +0.330 C 
BRANCH  20  21
ATOM     21  C   LIG    1       -2.121   7.312  -4.255  0.00  0.00    -0.220 A 
ATOM     22  C   LIG    1       -2.418   6.788  -5.468  0.00  0.00    +0.000 A 
ATOM     23  O   LIG    1       -3.407   7.538  -5.974  0.00  0.00    +0.100 OA
ATOM     24  N   LIG    1       -3.718   8.431  -5.220  0.00  0.00    -0.360 NA
ATOM     25  C   LIG    1       -1.767   5.595  -6.119  0.00  0.00    +0.190 C 
ATOM     26  C   LIG    1       -3.007   8.407  -4.130  0.00  0.00    +0.040 A 
ATOM     27  C   LIG    1       -3.109   9.357  -2.965  0.00  0.00    +0.160 C 
ENDBRANCH  20  21
ENDBRANCH  19  20
ENDBRANCH  17  19
ENDBRANCH  16  17
ENDBRANCH  15  16
ENDBRANCH   8  15
TORSDOF 7
