REMARK  Name = ZINCrD0000074wTs.1
REMARK                            x       y       z     vdW  Elec       q    Type
REMARK                         _______ _______ _______ _____ _____    ______ ____
ROOT
ATOM      1  C   LIG    1       -0.090   8.023  -0.170  0.00  0.00    +0.520 C 
ATOM      2  O   LIG    1        0.991   7.474  -0.090  0.00  0.00    -0.480 OA
ENDROOT
BRANCH   1   3
ATOM      3  C   LIG    1       -1.326   7.220  -0.160  0.00  0.00    -0.200 A 
ATOM      4  C   LIG    1       -2.579   7.839  -0.251  0.00  0.00    +0.180 A 
ATOM      5  C   LIG    1       -3.708   7.040  -0.237  0.00  0.00    -0.070 A 
ATOM      6  C   LIG    1       -3.571   5.668  -0.134  0.00  0.00    +0.350 A 
ATOM      7  N   LIG    1       -2.381   5.105  -0.055  0.00  0.00    -0.530 NA
ATOM      8  C   LIG    1       -1.269   5.821  -0.058  0.00  0.00    +0.380 A 
BRANCH   8   9
ATOM      9  O   LIG    1       -0.069   5.201   0.031  0.00  0.00    -0.220 OA
BRANCH   9  10
ATOM     10  C   LIG    1       -0.049   3.842   0.005  0.00  0.00    +0.090 A 
ATOM     11  C   LIG    1       -0.341   3.166  -1.171  0.00  0.00    +0.000 A 
ATOM     12  C   LIG    1       -0.321   1.785  -1.195  0.00  0.00    +0.020 A 
ATOM     13  C   LIG    1       -0.008   1.077  -0.049  0.00  0.00    +0.010 A 
ATOM     14  C   LIG    1        0.278   1.748   1.125  0.00  0.00    +0.020 A 
ATOM     15  C   LIG    1        0.264   3.129   1.153  0.00  0.00    +0.020 A 
ENDBRANCH   9  10
ENDBRANCH   8   9
ENDBRANCH   1   3
BRANCH   1  16
ATOM     16  O   LIG    1       -0.159   9.365  -0.268  0.00  0.00    -0.330 OA
BRANCH  16  17
ATOM     17  C   LIG    1        1.099  10.091  -0.272  0.00  0.00    +0.200 C 
ATOM     18  C   LIG    1        1.595  10.243  -1.711  0.00  0.00    +0.070 C 
BRANCH  17  21
ATOM     19  N   LIG    1        1.929  12.310   0.438  0.00  0.00    -0.620 N 
ATOM     20  H   LIG    1        2.808  12.048   0.120  0.00  0.00    +0.430 HD
ATOM     21  C   LIG    1        0.893  11.454   0.336  0.00  0.00    +0.510 C 
ATOM     22  O   LIG    1       -0.205  11.782   0.733  0.00  0.00    -0.470 OA
BRANCH  19  27
ATOM     23  C   LIG    1        2.533  16.933   2.186  0.00  0.00    +0.160 C 
ATOM     24  C   LIG    1        1.976  15.595   1.772  0.00  0.00    +0.040 A 
ATOM     25  N   LIG    1        0.744  15.191   1.901  0.00  0.00    -0.360 NA
ATOM     26  O   LIG    1        0.591  14.070   1.473  0.00  0.00    +0.110 OA
ATOM     27  C   LIG    1        1.740  13.565   0.997  0.00  0.00    +0.210 A 
ATOM     28  C   LIG    1        2.684  14.536   1.169  0.00  0.00    -0.090 A 
ENDBRANCH  19  27
ENDBRANCH  17  21
ENDBRANCH  16  17
ENDBRANCH   1  16
TORSDOF 7
