REMARK  Name = ZINCbw0000000HgZ.0
REMARK                            x       y       z     vdW  Elec       q    Type
REMARK                         _______ _______ _______ _____ _____    ______ ____
ROOT
ATOM      1  C   LIG    1        0.174   0.961   2.735  0.00  0.00    -0.050 A 
ATOM      2  C   LIG    1        1.280   0.201   2.372  0.00  0.00    -0.020 A 
ATOM      3  C   LIG    1        2.088  -0.353   3.343  0.00  0.00    +0.070 A 
ATOM      4  C   LIG    1        1.807  -0.159   4.687  0.00  0.00    -0.010 A 
ATOM      5  C   LIG    1        0.717   0.590   5.070  0.00  0.00    +0.090 A 
ATOM      6  C   LIG    1       -0.111   1.165   4.099  0.00  0.00    -0.170 A 
ENDROOT
BRANCH   6   7
ATOM      7  C   LIG    1       -1.270   1.969   4.498  0.00  0.00    +0.380 C 
ATOM      8  O   LIG    1       -1.987   2.461   3.652  0.00  0.00    -0.440 OA
ATOM      9  C   LIG    1       -1.570   2.185   5.959  0.00  0.00    +0.080 C 
ENDBRANCH   6   7
BRANCH   1  11
ATOM     10  C   LIG    1       -0.013   1.086   0.008  0.00  0.00    +0.070 C 
ATOM     11  S   LIG    1       -0.860   1.669   1.497  0.00  0.00    -0.010 S 
ENDBRANCH   1  11
TORSDOF 2
