REMARK  Name = ZINCkj00000zpLq5.0
REMARK                            x       y       z     vdW  Elec       q    Type
REMARK                         _______ _______ _______ _____ _____    ______ ____
ROOT
ATOM      1  N   LIG    1        4.843   3.052  -0.114  0.00  0.00    -0.710 N 
ATOM      2  H   LIG    1        4.589   3.862  -0.583  0.00  0.00    +0.410 HD
ENDROOT
BRANCH   1   3
ATOM      3  C   LIG    1        3.921   1.915  -0.062  0.00  0.00    +0.250 C 
ATOM      4  C   LIG    1        3.111   1.975   1.236  0.00  0.00    +0.030 C 
ATOM      5  C   LIG    1        2.147   0.784   1.280  0.00  0.00    +0.130 C 
ATOM      6  C   LIG    1        1.315   0.779  -0.006  0.00  0.00    -0.060 C 
ATOM      7  N   LIG    1        2.092   0.797  -1.253  0.00  0.00    -0.470 N 
ATOM      8  H   LIG    1        1.464   0.842  -2.041  0.00  0.00    +0.430 HD
ATOM      9  H   LIG    1        2.650  -0.041  -1.315  0.00  0.00    +0.430 HD
ATOM     10  C   LIG    1       -0.019   1.526   0.010  0.00  0.00    +0.100 C 
ATOM     11  C   LIG    1        0.002  -0.004   0.002  0.00  0.00    +0.120 C 
ATOM     12  C   LIG    1        2.972   1.974  -1.260  0.00  0.00    +0.270 C 
ENDBRANCH   1   3
BRANCH   1  17
ATOM     13  C   LIG    1        8.102   3.916   1.058  0.00  0.00    +0.390 A 
ATOM     14  C   LIG    1        8.461   2.754   1.729  0.00  0.00    +0.200 A 
ATOM     15  N   LIG    1        7.627   1.730   1.774  0.00  0.00    -0.370 NA
ATOM     16  C   LIG    1        6.449   1.808   1.184  0.00  0.00    +0.140 A 
ATOM     17  C   LIG    1        6.083   2.970   0.509  0.00  0.00    +0.390 A 
ATOM     18  N   LIG    1        6.921   3.997   0.458  0.00  0.00    -0.520 NA
BRANCH  13  21
ATOM     19  C   LIG    1        9.860   6.957   0.581  0.00  0.00    -0.090 A 
ATOM     20  C   LIG    1        8.764   6.187   0.393  0.00  0.00    +0.250 A 
ATOM     21  N   LIG    1        8.986   4.998   1.011  0.00  0.00    -0.330 N 
ATOM     22  N   LIG    1       10.258   5.051   1.597  0.00  0.00    -0.280 NA
ATOM     23  C   LIG    1       10.781   6.221   1.335  0.00  0.00    +0.280 A 
ENDBRANCH  13  21
ENDBRANCH   1  17
TORSDOF 3
