REMARK  Name = ZINCrH000004sllo.0
REMARK                            x       y       z     vdW  Elec       q    Type
REMARK                         _______ _______ _______ _____ _____    ______ ____
ROOT
ATOM      1  C   LIG    1        0.299   4.008  -2.007  0.00  0.00    +0.540 C 
ATOM      2  N   LIG    1        0.071   4.157  -0.687  0.00  0.00    -0.610 N 
ATOM      3  C   LIG    1       -0.991   4.983  -0.086  0.00  0.00    +0.260 C 
ATOM      4  C   LIG    1       -0.474   5.322   1.335  0.00  0.00    +0.040 C 
ATOM      5  C   LIG    1        0.239   4.002   1.730  0.00  0.00    +0.060 C 
ATOM      6  C   LIG    1        0.842   3.522   0.393  0.00  0.00    +0.310 C 
ATOM      7  O   LIG    1        1.206   3.299  -2.390  0.00  0.00    -0.530 OA
ENDROOT
BRANCH   6   8
ATOM      8  C   LIG    1        0.729   2.022   0.289  0.00  0.00    +0.280 A 
ATOM      9  N   LIG    1       -0.374   1.372   0.060  0.00  0.00    -0.480 NA
ATOM     10  C   LIG    1       -0.120   0.038   0.030  0.00  0.00    +0.050 A 
ATOM     11  C   LIG    1       -0.918  -1.090  -0.173  0.00  0.00    +0.070 A 
ATOM     12  C   LIG    1       -0.356  -2.336  -0.146  0.00  0.00    +0.000 A 
ATOM     13  C   LIG    1        1.004  -2.493   0.082  0.00  0.00    +0.030 A 
ATOM     14  C   LIG    1        1.811  -1.394   0.285  0.00  0.00    +0.010 A 
ATOM     15  C   LIG    1        1.257  -0.121   0.261  0.00  0.00    +0.050 A 
ATOM     16  N   LIG    1        1.766   1.152   0.421  0.00  0.00    -0.480 N 
ATOM     17  C   LIG    1        3.165   1.501   0.685  0.00  0.00    +0.340 C 
ENDBRANCH   6   8
BRANCH   1  18
ATOM     18  C   LIG    1       -0.573   4.722  -3.007  0.00  0.00    +0.060 C 
BRANCH  18  19
ATOM     19  C   LIG    1       -0.105   4.385  -4.424  0.00  0.00    +0.090 C 
ATOM     20  C   LIG    1       -0.320   2.894  -4.691  0.00  0.00    +0.020 C 
BRANCH  19  28
ATOM     21  C   LIG    1       -3.265   4.527  -4.616  0.00  0.00    +0.150 C 
ATOM     22  C   LIG    1       -2.291   5.256  -5.505  0.00  0.00    +0.090 A 
ATOM     23  N   LIG    1       -2.605   6.058  -6.491  0.00  0.00    -0.290 NA
ATOM     24  N   LIG    1       -1.417   6.531  -7.064  0.00  0.00    -0.480 N 
ATOM     25  H   LIG    1       -1.350   7.143  -7.814  0.00  0.00    +0.440 HD
ATOM     26  C   LIG    1       -0.384   5.990  -6.386  0.00  0.00    +0.090 A 
ATOM     27  C   LIG    1        1.079   6.227  -6.658  0.00  0.00    +0.140 C 
ATOM     28  C   LIG    1       -0.897   5.193  -5.420  0.00  0.00    -0.230 A 
ENDBRANCH  19  28
ENDBRANCH  18  19
ENDBRANCH   1  18
TORSDOF 4
