REMARK  Name = ZINCqH0000031EwM.0
REMARK                            x       y       z     vdW  Elec       q    Type
REMARK                         _______ _______ _______ _____ _____    ______ ____
ROOT
ATOM      1  N   LIG    1        7.311   6.071  -0.046  0.00  0.00    -0.670 N 
ATOM      2  H   LIG    1        6.648   6.777   0.007  0.00  0.00    +0.410 HD
ATOM      3  C   LIG    1        6.920   4.791  -0.213  0.00  0.00    +0.510 C 
ATOM      4  O   LIG    1        7.749   3.920  -0.374  0.00  0.00    -0.490 OA
ENDROOT
BRANCH   1  12
ATOM      5  C   LIG    1       15.007   8.124   0.213  0.00  0.00    +0.110 C 
ATOM      6  C   LIG    1       13.508   8.165   0.055  0.00  0.00    +0.520 C 
ATOM      7  N   LIG    1       12.762   7.107   0.430  0.00  0.00    -0.560 N 
ATOM      8  C   LIG    1       13.279   5.910   1.098  0.00  0.00    +0.280 C 
ATOM      9  C   LIG    1       12.053   5.007   1.313  0.00  0.00    +0.100 C 
ATOM     10  C   LIG    1       10.897   5.789   0.731  0.00  0.00    -0.120 A 
ATOM     11  C   LIG    1        9.553   5.485   0.643  0.00  0.00    +0.060 A 
ATOM     12  C   LIG    1        8.674   6.380   0.049  0.00  0.00    +0.120 A 
ATOM     13  C   LIG    1        9.151   7.586  -0.447  0.00  0.00    +0.020 A 
ATOM     14  C   LIG    1       10.492   7.891  -0.353  0.00  0.00    +0.030 A 
ATOM     15  C   LIG    1       11.380   6.991   0.239  0.00  0.00    +0.130 A 
ATOM     16  O   LIG    1       12.974   9.149  -0.410  0.00  0.00    -0.520 OA
ENDBRANCH   1  12
BRANCH   3  17
ATOM     17  C   LIG    1        5.454   4.443  -0.199  0.00  0.00    +0.240 C 
BRANCH  17  18
ATOM     18  O   LIG    1        5.297   3.036  -0.394  0.00  0.00    -0.290 OA
BRANCH  18  19
ATOM     19  C   LIG    1        4.027   2.553  -0.408  0.00  0.00    +0.120 A 
ATOM     20  C   LIG    1        3.801   1.197  -0.593  0.00  0.00    -0.010 A 
ATOM     21  C   LIG    1        2.509   0.709  -0.607  0.00  0.00    +0.050 A 
ATOM     22  C   LIG    1        1.441   1.571  -0.438  0.00  0.00    -0.110 A 
ATOM     23  C   LIG    1        1.663   2.924  -0.260  0.00  0.00    +0.060 A 
ATOM     24  C   LIG    1        2.954   3.416  -0.238  0.00  0.00    -0.080 A 
BRANCH  22  25
ATOM     25  C   LIG    1        0.032   1.036  -0.455  0.00  0.00    +0.030 C 
ATOM     26  C   LIG    1       -0.646   1.344   0.881  0.00  0.00    +0.030 C 
ATOM     27  C   LIG    1       -0.752   1.698  -1.589  0.00  0.00    +0.030 C 
ENDBRANCH  22  25
ENDBRANCH  18  19
ENDBRANCH  17  18
ENDBRANCH   3  17
TORSDOF 5
