REMARK  Name = ZINCvU00000003JQ.0
REMARK                            x       y       z     vdW  Elec       q    Type
REMARK                         _______ _______ _______ _____ _____    ______ ____
ROOT
ATOM      1  C   LIG    1       -0.719  -5.129   0.079  0.00  0.00    +0.110 C 
ATOM      2  C   LIG    1       -2.083  -4.491   0.130  0.00  0.00    -0.090 A 
ATOM      3  C   LIG    1       -3.182  -5.176  -0.353  0.00  0.00    +0.040 A 
ATOM      4  C   LIG    1       -4.435  -4.599  -0.309  0.00  0.00    +0.030 A 
ATOM      5  C   LIG    1       -4.595  -3.319   0.225  0.00  0.00    -0.110 A 
ATOM      6  C   LIG    1       -3.487  -2.630   0.717  0.00  0.00    +0.090 A 
ATOM      7  C   LIG    1       -2.232  -3.216   0.663  0.00  0.00    +0.140 A 
ENDROOT
BRANCH   5   8
ATOM      8  C   LIG    1       -5.937  -2.698   0.273  0.00  0.00    +0.580 C 
ATOM      9  N   LIG    1       -7.026  -3.463   0.484  0.00  0.00    -0.600 N 
ATOM     10  C   LIG    1       -7.036  -4.934   0.589  0.00  0.00    +0.260 C 
ATOM     11  C   LIG    1       -8.304  -5.264   1.416  0.00  0.00    +0.040 C 
ATOM     12  C   LIG    1       -9.303  -4.198   0.893  0.00  0.00    +0.060 C 
ATOM     13  C   LIG    1       -8.400  -2.970   0.654  0.00  0.00    +0.310 C 
ATOM     14  O   LIG    1       -6.057  -1.498   0.124  0.00  0.00    -0.520 OA
BRANCH  13  15
ATOM     15  C   LIG    1       -8.842  -2.247  -0.593  0.00  0.00    +0.090 A 
ATOM     16  N   LIG    1       -8.650  -2.679  -1.781  0.00  0.00    -0.450 NA
ATOM     17  C   LIG    1       -9.103  -1.929  -2.804  0.00  0.00    +0.080 A 
ATOM     18  C   LIG    1       -9.030  -2.161  -4.192  0.00  0.00    +0.070 A 
ATOM     19  C   LIG    1       -9.553  -1.261  -5.071  0.00  0.00    +0.030 A 
ATOM     20  C   LIG    1      -10.165  -0.101  -4.619  0.00  0.00    +0.040 A 
ATOM     21  C   LIG    1      -10.250   0.153  -3.268  0.00  0.00    +0.060 A 
ATOM     22  C   LIG    1       -9.721  -0.756  -2.355  0.00  0.00    -0.180 A 
ATOM     23  S   LIG    1       -9.657  -0.747  -0.595  0.00  0.00    +0.120 S 
ENDBRANCH  13  15
ENDBRANCH   5   8
BRANCH   7  24
ATOM     24  N   LIG    1       -1.117  -2.527   1.151  0.00  0.00    -0.660 N 
ATOM     25  H   LIG    1       -0.336  -3.019   1.451  0.00  0.00    +0.420 HD
ATOM     26  C   LIG    1       -1.127  -1.181   1.203  0.00  0.00    +0.600 C 
ATOM     27  O   LIG    1       -2.061  -0.560   0.730  0.00  0.00    -0.490 OA
BRANCH  26  28
ATOM     28  C   LIG    1       -0.012  -0.463   1.830  0.00  0.00    -0.090 A 
ATOM     29  C   LIG    1        0.104   0.892   1.950  0.00  0.00    +0.050 A 
ATOM     30  C   LIG    1        1.318   1.136   2.611  0.00  0.00    -0.060 A 
ATOM     31  C   LIG    1        1.883  -0.065   2.861  0.00  0.00    +0.210 A 
ATOM     32  O   LIG    1        1.079  -1.027   2.390  0.00  0.00    -0.170 OA
ENDBRANCH  26  28
ENDBRANCH   7  24
TORSDOF 4
