REMARK  Name = ZINCrH000004uzO1.0
REMARK                            x       y       z     vdW  Elec       q    Type
REMARK                         _______ _______ _______ _____ _____    ______ ____
ROOT
ATOM      1  O   LIG    1       -2.966   2.647   2.701  0.00  0.00    -0.570 OA
ATOM      2  C   LIG    1       -3.166   2.391   1.529  0.00  0.00    +0.720 C 
ATOM      3  N   LIG    1       -2.171   1.894   0.768  0.00  0.00    -0.630 N 
ATOM      4  C   LIG    1       -2.275   1.541  -0.659  0.00  0.00    +0.240 C 
ATOM      5  C   LIG    1       -0.825   1.630  -1.196  0.00  0.00    +0.040 C 
ATOM      6  C   LIG    1       -0.013   1.086   0.008  0.00  0.00    +0.050 C 
ATOM      7  C   LIG    1       -0.798   1.615   1.227  0.00  0.00    +0.300 C 
ATOM      8  N   LIG    1       -4.384   2.604   0.992  0.00  0.00    -0.740 N 
ATOM      9  H   LIG    1       -4.544   2.400   0.057  0.00  0.00    +0.400 HD
ENDROOT
BRANCH   7  10
ATOM     10  C   LIG    1       -0.819   0.572   2.315  0.00  0.00    -0.080 A 
ATOM     11  C   LIG    1       -1.891  -0.293   2.421  0.00  0.00    +0.020 A 
ATOM     12  C   LIG    1       -1.914  -1.251   3.417  0.00  0.00    +0.020 A 
ATOM     13  C   LIG    1       -0.865  -1.346   4.312  0.00  0.00    +0.020 A 
ATOM     14  C   LIG    1        0.215  -0.481   4.211  0.00  0.00    +0.050 A 
ATOM     15  O   LIG    1        1.239  -0.583   5.102  0.00  0.00    -0.310 OA
ATOM     16  C   LIG    1        2.471   0.051   4.742  0.00  0.00    +0.220 C 
ATOM     17  C   LIG    1        2.152   1.460   4.223  0.00  0.00    +0.220 C 
ATOM     18  O   LIG    1        1.291   1.335   3.086  0.00  0.00    -0.300 OA
ATOM     19  C   LIG    1        0.241   0.477   3.205  0.00  0.00    +0.060 A 
ENDBRANCH   7  10
BRANCH   8  20
ATOM     20  C   LIG    1       -5.466   3.144   1.819  0.00  0.00    +0.340 C 
BRANCH  20  21
ATOM     21  C   LIG    1       -6.713   3.286   0.985  0.00  0.00    -0.120 A 
ATOM     22  C   LIG    1       -7.068   4.521   0.478  0.00  0.00    +0.040 A 
ATOM     23  C   LIG    1       -8.211   4.651  -0.292  0.00  0.00    +0.090 A 
ATOM     24  C   LIG    1       -9.004   3.545  -0.547  0.00  0.00    +0.030 A 
ATOM     25  C   LIG    1       -8.651   2.310  -0.035  0.00  0.00    +0.020 A 
ATOM     26  F   LIG    1       -8.556   5.858  -0.792  0.00  0.00    -0.130 F 
ATOM     27  C   LIG    1       -7.506   2.180   0.731  0.00  0.00    +0.110 A 
ATOM     28  F   LIG    1       -7.161   0.973   1.231  0.00  0.00    -0.130 F 
ENDBRANCH  20  21
ENDBRANCH   8  20
TORSDOF 3
