REMARK  Name = ZINCrD000000CnSs.0
REMARK                            x       y       z     vdW  Elec       q    Type
REMARK                         _______ _______ _______ _____ _____    ______ ____
ROOT
ATOM      1  N   LIG    1        4.528  -2.200  -1.437  0.00  0.00    -0.370 N 
ATOM      2  C   LIG    1        5.349  -1.228  -2.168  0.00  0.00    +0.260 C 
ATOM      3  C   LIG    1        5.459  -1.648  -3.635  0.00  0.00    +0.060 C 
ATOM      4  C   LIG    1        6.110  -3.032  -3.716  0.00  0.00    -0.020 C 
ATOM      5  C   LIG    1        5.286  -4.022  -2.889  0.00  0.00    +0.070 C 
ATOM      6  C   LIG    1        5.182  -3.514  -1.450  0.00  0.00    +0.250 C 
ATOM      7  H   LIG    1        3.623  -2.272  -1.877  0.00  0.00    +0.410 HD
ENDROOT
BRANCH   1   8
ATOM      8  C   LIG    1        4.360  -1.752  -0.048  0.00  0.00    +0.370 C 
BRANCH   8  10
ATOM      9  C   LIG    1        4.508   0.811  -0.037  0.00  0.00    +0.070 A 
ATOM     10  C   LIG    1        3.802  -0.352  -0.036  0.00  0.00    -0.260 A 
ATOM     11  C   LIG    1        2.392   0.031  -0.020  0.00  0.00    -0.120 A 
ATOM     12  C   LIG    1        1.189  -0.680  -0.013  0.00  0.00    +0.030 A 
ATOM     13  C   LIG    1        0.002  -0.004   0.002  0.00  0.00    +0.000 A 
ATOM     14  C   LIG    1       -0.017   1.384   0.010  0.00  0.00    +0.040 A 
ATOM     15  C   LIG    1        1.158   2.105   0.002  0.00  0.00    +0.040 A 
ATOM     16  C   LIG    1        2.378   1.439  -0.013  0.00  0.00    +0.040 A 
ATOM     17  O   LIG    1        3.658   1.860  -0.024  0.00  0.00    -0.160 OA
BRANCH   9  19
ATOM     18  O   LIG    1        6.509   2.010  -0.053  0.00  0.00    -0.620 OA
ATOM     19  C   LIG    1        5.970   0.910  -0.052  0.00  0.00    +0.550 C 
ATOM     20  O   LIG    1        6.652  -0.106  -0.063  0.00  0.00    -0.650 OA
ENDBRANCH   9  19
ENDBRANCH   8  10
ENDBRANCH   1   8
BRANCH   4  21
ATOM     21  C   LIG    1        6.153  -3.494  -5.174  0.00  0.00    +0.280 C 
BRANCH  21  22
ATOM     22  N   LIG    1        7.039  -2.614  -5.940  0.00  0.00    -0.600 N 
ATOM     23  C   LIG    1        8.450  -2.969  -6.024  0.00  0.00    +0.260 C 
ATOM     24  C   LIG    1        9.113  -2.253  -7.201  0.00  0.00    +0.020 C 
ATOM     25  C   LIG    1        8.783  -0.758  -7.115  0.00  0.00    +0.020 C 
ATOM     26  C   LIG    1        7.285  -0.577  -7.368  0.00  0.00    +0.060 C 
ATOM     27  C   LIG    1        6.503  -1.539  -6.520  0.00  0.00    +0.520 C 
ATOM     28  O   LIG    1        5.321  -1.325  -6.351  0.00  0.00    -0.550 OA
ENDBRANCH  21  22
ENDBRANCH   4  21
TORSDOF 5
