REMARK  Name = ZINCvU0000000FOc.0
REMARK                            x       y       z     vdW  Elec       q    Type
REMARK                         _______ _______ _______ _____ _____    ______ ____
ROOT
ATOM      1  C   LIG    1        2.579  -0.234   0.449  0.00  0.00    -0.150 C 
ATOM      2  C   LIG    1        2.402   0.811  -0.433  0.00  0.00    +0.280 C 
ENDROOT
BRANCH   2   3
ATOM      3  C   LIG    1        1.069   1.384  -0.631  0.00  0.00    -0.150 A 
ATOM      4  C   LIG    1       -0.066   0.563  -0.583  0.00  0.00    +0.080 A 
ATOM      5  C   LIG    1       -1.315   1.109  -0.774  0.00  0.00    -0.030 A 
ATOM      6  C   LIG    1       -1.458   2.469  -1.004  0.00  0.00    +0.090 A 
ATOM      7  C   LIG    1       -0.348   3.291  -1.055  0.00  0.00    -0.080 A 
ATOM      8  C   LIG    1        0.919   2.762  -0.870  0.00  0.00    +0.180 A 
BRANCH   8   9
ATOM      9  O   LIG    1        2.008   3.568  -0.920  0.00  0.00    -0.300 OA
BRANCH   9  10
ATOM     10  C   LIG    1        1.777   4.956  -1.167  0.00  0.00    +0.260 C 
BRANCH  10  11
ATOM     11  C   LIG    1        3.094   5.689  -1.188  0.00  0.00    -0.090 A 
ATOM     12  C   LIG    1        3.605   6.225  -0.020  0.00  0.00    +0.040 A 
ATOM     13  C   LIG    1        4.815   6.892  -0.037  0.00  0.00    +0.050 A 
ATOM     14  C   LIG    1        5.510   7.033  -1.224  0.00  0.00    -0.080 A 
ATOM     15  C   LIG    1        4.996   6.502  -2.394  0.00  0.00    +0.050 A 
ATOM     16 BR   LIG    1        7.162   7.953  -1.250  0.00  0.00    -0.040 Br
ATOM     17  C   LIG    1        3.788   5.830  -2.375  0.00  0.00    +0.050 A 
ENDBRANCH  10  11
ENDBRANCH   9  10
ENDBRANCH   8   9
ENDBRANCH   2   3
BRANCH   1  18
ATOM     18  C   LIG    1        3.884  -0.905   0.541  0.00  0.00    +0.580 C 
ATOM     19  N   LIG    1        4.057  -1.926   1.403  0.00  0.00    -0.670 N 
ATOM     20  H   LIG    1        3.303  -2.266   1.910  0.00  0.00    +0.420 HD
ATOM     21  O   LIG    1        4.807  -0.539  -0.161  0.00  0.00    -0.500 OA
BRANCH  19  22
ATOM     22  C   LIG    1        5.324  -2.497   1.566  0.00  0.00    +0.200 A 
ATOM     23  C   LIG    1        5.450  -3.866   1.763  0.00  0.00    +0.010 A 
ATOM     24  C   LIG    1        6.703  -4.426   1.917  0.00  0.00    +0.130 A 
ATOM     25  C   LIG    1        7.829  -3.625   1.889  0.00  0.00    -0.060 A 
ATOM     26  C   LIG    1        7.706  -2.260   1.700  0.00  0.00    +0.130 A 
ATOM     27  C   LIG    1        6.457  -1.694   1.538  0.00  0.00    +0.040 A 
BRANCH  25  28
ATOM     28  N   LIG    1        9.170  -4.228   2.062  0.00  0.00    +0.030 N 
ATOM     29  O   LIG    1        9.280  -5.430   2.228  0.00  0.00    -0.160 OA
ATOM     30  O   LIG    1       10.163  -3.523   2.037  0.00  0.00    -0.160 OA
ENDBRANCH  25  28
ENDBRANCH  19  22
ENDBRANCH   1  18
BRANCH   1  32
ATOM     31  N   LIG    1        0.629  -1.007   1.931  0.00  0.00    -0.400 NA
ATOM     32  C   LIG    1        1.492  -0.665   1.276  0.00  0.00    +0.240 C 
ENDBRANCH   1  32
TORSDOF 8
