REMARK  Name = ZINCpe000000Ws9p.0
REMARK                            x       y       z     vdW  Elec       q    Type
REMARK                         _______ _______ _______ _____ _____    ______ ____
ROOT
ATOM      1  N   LIG    1        3.546   1.754  -0.543  0.00  0.00    -0.730 N 
ATOM      2  H   LIG    1        3.619   2.719  -0.475  0.00  0.00    +0.410 HD
ENDROOT
BRANCH   1   6
ATOM      3  C   LIG    1       -0.188  -0.087  -0.266  0.00  0.00    +0.050 A 
ATOM      4  C   LIG    1        0.951  -0.852  -0.456  0.00  0.00    +0.000 A 
ATOM      5  C   LIG    1        2.188  -0.242  -0.548  0.00  0.00    -0.050 A 
ATOM      6  C   LIG    1        2.293   1.139  -0.450  0.00  0.00    +0.220 A 
ATOM      7  C   LIG    1        1.154   1.910  -0.258  0.00  0.00    -0.040 A 
ATOM      8  C   LIG    1       -0.087   1.299  -0.167  0.00  0.00    +0.170 A 
BRANCH   3  10
ATOM      9  C   LIG    1       -1.434  -2.114  -0.287  0.00  0.00    +0.230 C 
ATOM     10  O   LIG    1       -1.405  -0.690  -0.177  0.00  0.00    -0.320 OA
ENDBRANCH   3  10
BRANCH   8  11
ATOM     11  N   LIG    1       -1.238   2.074   0.019  0.00  0.00    -1.050 N 
ATOM     12  H   LIG    1       -1.965   1.738   0.567  0.00  0.00    +0.430 HD
BRANCH  11  13
ATOM     13  S   LIG    1       -1.358   3.563  -0.695  0.00  0.00    +2.610 S 
ATOM     14  O   LIG    1       -0.212   4.266  -0.234  0.00  0.00    -0.950 OA
ATOM     15  O   LIG    1       -2.668   4.003  -0.369  0.00  0.00    -0.950 OA
ATOM     16  C   LIG    1       -1.224   3.224  -2.472  0.00  0.00    -0.280 C 
ENDBRANCH  11  13
ENDBRANCH   8  11
ENDBRANCH   1   6
BRANCH   1  17
ATOM     17  C   LIG    1        4.748   0.941  -0.745  0.00  0.00    +0.250 C 
ATOM     18  C   LIG    1        5.258   0.440   0.609  0.00  0.00    +0.050 C 
BRANCH  17  19
ATOM     19  C   LIG    1        5.814   1.776  -1.406  0.00  0.00    +0.510 C 
ATOM     20  N   LIG    1        7.015   1.233  -1.690  0.00  0.00    -0.690 N 
ATOM     21  H   LIG    1        7.192   0.305  -1.470  0.00  0.00    +0.410 HD
ATOM     22  C   LIG    1        7.969   1.979  -2.281  0.00  0.00    +0.700 C 
ATOM     23  N   LIG    1        9.169   1.437  -2.566  0.00  0.00    -0.710 N 
ATOM     24  H   LIG    1        9.347   0.509  -2.346  0.00  0.00    +0.400 HD
ATOM     25  O   LIG    1        7.746   3.142  -2.558  0.00  0.00    -0.520 OA
ATOM     26  O   LIG    1        5.593   2.935  -1.681  0.00  0.00    -0.450 OA
BRANCH  23  27
ATOM     27  C   LIG    1       10.206   2.248  -3.209  0.00  0.00    +0.230 C 
ATOM     28  C   LIG    1       10.995   1.609  -4.353  0.00  0.00    +0.020 C 
ATOM     29  C   LIG    1       11.663   1.833  -2.994  0.00  0.00    +0.020 C 
ENDBRANCH  23  27
ENDBRANCH  17  19
ENDBRANCH   1  17
TORSDOF 7
