REMARK  Name = ZINCrD00000l4fqr.0
REMARK                            x       y       z     vdW  Elec       q    Type
REMARK                         _______ _______ _______ _____ _____    ______ ____
ROOT
ATOM      1  C   LIG    1       -3.567   2.963   0.620  0.00  0.00    +0.570 C 
ATOM      2  N   LIG    1       -3.667   1.756   0.029  0.00  0.00    -0.660 N 
ATOM      3  H   LIG    1       -2.913   1.392  -0.461  0.00  0.00    +0.410 HD
ATOM      4  O   LIG    1       -4.537   3.457   1.161  0.00  0.00    -0.510 OA
ENDROOT
BRANCH   1  12
ATOM      5  C   LIG    1       -1.043   7.912   2.438  0.00  0.00    +0.190 C 
ATOM      6  C   LIG    1       -0.347   6.820   1.667  0.00  0.00    +0.070 A 
ATOM      7  N   LIG    1        0.896   6.791   1.288  0.00  0.00    -0.310 NA
ATOM      8  O   LIG    1        1.192   5.789   0.681  0.00  0.00    +0.090 OA
ATOM      9  C   LIG    1        0.163   4.936   0.538  0.00  0.00    +0.240 A 
ATOM     10  N   LIG    1        0.001   3.752  -0.029  0.00  0.00    -0.460 NA
ATOM     11  C   LIG    1       -1.157   3.129  -0.014  0.00  0.00    +0.380 A 
ATOM     12  C   LIG    1       -2.279   3.685   0.611  0.00  0.00    -0.210 A 
ATOM     13  C   LIG    1       -2.163   4.939   1.222  0.00  0.00    +0.230 A 
ATOM     14  C   LIG    1       -0.926   5.563   1.183  0.00  0.00    -0.230 A 
ENDBRANCH   1  12
BRANCH   2  15
ATOM     15  C   LIG    1       -4.860   1.028   0.121  0.00  0.00    +0.110 A 
ATOM     16  C   LIG    1       -4.823  -0.358   0.203  0.00  0.00    +0.020 A 
ATOM     17  C   LIG    1       -5.998  -1.076   0.298  0.00  0.00    -0.020 A 
ATOM     18  C   LIG    1       -7.218  -0.412   0.301  0.00  0.00    +0.100 A 
ATOM     19  C   LIG    1       -7.256   0.973   0.214  0.00  0.00    +0.010 A 
ATOM     20  C   LIG    1       -6.080   1.691   0.124  0.00  0.00    +0.050 A 
BRANCH  18  21
ATOM     21  N   LIG    1       -8.410  -1.140   0.392  0.00  0.00    -0.480 N 
ATOM     22  C   LIG    1       -9.214  -0.693   1.540  0.00  0.00    +0.170 C 
ATOM     23  C   LIG    1      -10.532  -1.472   1.566  0.00  0.00    +0.200 C 
ATOM     24  O   LIG    1      -10.251  -2.873   1.615  0.00  0.00    -0.370 OA
ATOM     25  C   LIG    1       -9.470  -3.343   0.512  0.00  0.00    +0.150 C 
ATOM     26  C   LIG    1       -9.198  -4.839   0.679  0.00  0.00    +0.050 C 
ATOM     27  C   LIG    1      -11.338  -1.156   0.305  0.00  0.00    +0.020 C 
ATOM     28  C   LIG    1       -8.141  -2.583   0.475  0.00  0.00    +0.170 C 
ENDBRANCH  18  21
ENDBRANCH   2  15
TORSDOF 3
