REMARK  Name = ZINCrH000004r1YC.0
REMARK                            x       y       z     vdW  Elec       q    Type
REMARK                         _______ _______ _______ _____ _____    ______ ____
ROOT
ATOM      1  S   LIG    1       -1.093  -0.670   0.669  0.00  0.00    +0.120 S 
ENDROOT
BRANCH   1   6
ATOM      2  N   LIG    1        1.641  -0.293   0.249  0.00  0.00    -0.310 N 
ATOM      3  N   LIG    1        2.505   0.814   0.180  0.00  0.00    -0.070 NA
ATOM      4  N   LIG    1        1.781   1.865   0.367  0.00  0.00    -0.030 NA
ATOM      5  N   LIG    1        0.553   1.537   0.545  0.00  0.00    -0.330 NA
ATOM      6  C   LIG    1        0.411   0.230   0.483  0.00  0.00    +0.200 A 
BRANCH   2  11
ATOM      7  C   LIG    1        3.005  -5.772  -0.332  0.00  0.00    +0.100 C 
ATOM      8  C   LIG    1        2.643  -4.317  -0.178  0.00  0.00    -0.060 A 
ATOM      9  C   LIG    1        1.850  -3.912   0.880  0.00  0.00    +0.030 A 
ATOM     10  C   LIG    1        1.521  -2.578   1.027  0.00  0.00    +0.050 A 
ATOM     11  C   LIG    1        1.978  -1.646   0.105  0.00  0.00    +0.100 A 
ATOM     12  C   LIG    1        2.773  -2.057  -0.957  0.00  0.00    -0.050 A 
ATOM     13  C   LIG    1        3.276  -1.047  -1.956  0.00  0.00    +0.110 C 
ATOM     14  C   LIG    1        3.103  -3.390  -1.095  0.00  0.00    +0.030 A 
ENDBRANCH   2  11
ENDBRANCH   1   6
BRANCH   1  15
ATOM     15  C   LIG    1       -2.246   0.697   0.945  0.00  0.00    +0.010 C 
ATOM     16  C   LIG    1       -1.902   1.396   2.262  0.00  0.00    +0.090 C 
BRANCH  15  17
ATOM     17  C   LIG    1       -3.653   0.161   1.014  0.00  0.00    +0.540 C 
ATOM     18  N   LIG    1       -4.694   0.962   0.711  0.00  0.00    -0.710 N 
ATOM     19  H   LIG    1       -4.538   1.883   0.449  0.00  0.00    +0.400 HD
ATOM     20  O   LIG    1       -3.848  -0.990   1.341  0.00  0.00    -0.520 OA
BRANCH  18  21
ATOM     21  C   LIG    1       -6.062   0.441   0.777  0.00  0.00    +0.250 C 
ATOM     22  C   LIG    1       -6.406  -0.258  -0.539  0.00  0.00    +0.000 C 
ATOM     23  C   LIG    1       -7.834  -0.802  -0.470  0.00  0.00    +0.020 C 
ATOM     24  C   LIG    1       -8.809   0.354  -0.236  0.00  0.00    +0.010 C 
ATOM     25  C   LIG    1       -8.465   1.053   1.081  0.00  0.00    +0.000 C 
ATOM     26  C   LIG    1       -8.575   0.053   2.233  0.00  0.00    +0.020 C 
ATOM     27  C   LIG    1       -7.037   1.597   1.011  0.00  0.00    -0.010 C 
ATOM     28  C   LIG    1       -6.692   2.296   2.328  0.00  0.00    +0.020 C 
ENDBRANCH  18  21
ENDBRANCH  15  17
ENDBRANCH   1  15
TORSDOF 5
