REMARK  Name = ZINCrD000000CVUg.0
REMARK                            x       y       z     vdW  Elec       q    Type
REMARK                         _______ _______ _______ _____ _____    ______ ____
ROOT
ATOM      1  O   LIG    1        0.002  -0.004   0.002  0.00  0.00    -0.520 OA
ATOM      2  C   LIG    1       -0.014   1.211   0.009  0.00  0.00    +0.700 C 
ATOM      3  N   LIG    1        1.096   1.977   0.002  0.00  0.00    -0.720 N 
ATOM      4  H   LIG    1        2.016   1.669  -0.008  0.00  0.00    +0.440 HD
ATOM      5  C   LIG    1        0.634   3.365   0.013  0.00  0.00    +0.170 C 
ATOM      6  C   LIG    1       -0.869   3.265   0.027  0.00  0.00    +0.530 C 
ATOM      7  O   LIG    1       -1.667   4.178   0.039  0.00  0.00    -0.440 OA
ATOM      8  C   LIG    1        1.152   4.117   1.246  0.00  0.00    +0.080 C 
ATOM      9  C   LIG    1        1.320   5.555   0.703  0.00  0.00    +0.100 C 
ATOM     10  C   LIG    1        1.529   5.394  -0.788  0.00  0.00    -0.070 A 
ATOM     11  C   LIG    1        2.027   6.284  -1.724  0.00  0.00    +0.020 A 
ATOM     12  C   LIG    1        2.124   5.917  -3.052  0.00  0.00    +0.030 A 
ATOM     13  C   LIG    1        1.723   4.655  -3.449  0.00  0.00    +0.010 A 
ATOM     14  C   LIG    1        1.227   3.764  -2.517  0.00  0.00    +0.040 A 
ATOM     15  C   LIG    1        1.129   4.129  -1.185  0.00  0.00    -0.110 A 
ATOM     16  N   LIG    1       -1.137   1.941   0.018  0.00  0.00    -0.570 N 
ENDROOT
BRANCH  16  17
ATOM     17  C   LIG    1       -2.488   1.374   0.020  0.00  0.00    +0.400 C 
BRANCH  17  18
ATOM     18  C   LIG    1       -2.946   1.173   1.442  0.00  0.00    -0.180 A 
ATOM     19  C   LIG    1       -3.619   2.185   2.103  0.00  0.00    +0.160 A 
ATOM     20  C   LIG    1       -4.038   1.999   3.410  0.00  0.00    -0.040 A 
ATOM     21  C   LIG    1       -3.786   0.803   4.055  0.00  0.00    +0.100 A 
ATOM     22  C   LIG    1       -3.114  -0.210   3.398  0.00  0.00    -0.070 A 
ATOM     23  F   LIG    1       -3.867   3.354   1.474  0.00  0.00    -0.120 F 
ATOM     24  C   LIG    1       -2.697  -0.029   2.088  0.00  0.00    +0.160 A 
BRANCH  24  25
ATOM     25  O   LIG    1       -2.040  -1.027   1.439  0.00  0.00    -0.290 OA
BRANCH  25  26
ATOM     26  C   LIG    1       -1.819  -2.237   2.166  0.00  0.00    +0.600 C 
ATOM     27  F   LIG    1       -3.049  -2.783   2.548  0.00  0.00    -0.200 F 
ATOM     28  F   LIG    1       -1.055  -1.964   3.305  0.00  0.00    -0.200 F 
ENDBRANCH  25  26
ENDBRANCH  24  25
ENDBRANCH  17  18
ENDBRANCH  16  17
TORSDOF 4
