REMARK  Name = ZINCnE000001K8FC.0
REMARK                            x       y       z     vdW  Elec       q    Type
REMARK                         _______ _______ _______ _____ _____    ______ ____
ROOT
ATOM      1  N   LIG    1       -0.017   1.395   0.010  0.00  0.00    -0.660 N 
ATOM      2  H   LIG    1        0.830   1.868  -0.001  0.00  0.00    +0.420 HD
ATOM      3  C   LIG    1       -1.174   2.086   0.018  0.00  0.00    +0.560 C 
ATOM      4  O   LIG    1       -2.231   1.498   0.111  0.00  0.00    -0.540 OA
ENDROOT
BRANCH   1   7
ATOM      5  C   LIG    1        0.909  -2.094  -0.687  0.00  0.00    -0.070 A 
ATOM      6  C   LIG    1        0.931  -0.714  -0.688  0.00  0.00    +0.040 A 
ATOM      7  C   LIG    1       -0.037  -0.004   0.009  0.00  0.00    +0.170 A 
ATOM      8  C   LIG    1       -1.022  -0.685   0.712  0.00  0.00    +0.030 A 
ATOM      9  C   LIG    1       -1.044  -2.067   0.705  0.00  0.00    +0.040 A 
ATOM     10  C   LIG    1       -0.078  -2.771   0.009  0.00  0.00    -0.060 A 
ATOM     11 CL   LIG    1       -0.103  -4.507   0.007  0.00  0.00    -0.080 Cl
BRANCH   5  12
ATOM     12  C   LIG    1        1.960  -2.865  -1.444  0.00  0.00    +0.250 C 
BRANCH  12  14
ATOM     13  C   LIG    1        3.899  -2.583  -2.824  0.00  0.00    +0.200 C 
ATOM     14  O   LIG    1        2.859  -1.951  -2.075  0.00  0.00    -0.380 OA
ENDBRANCH  12  14
ENDBRANCH   5  12
ENDBRANCH   1   7
BRANCH   3  15
ATOM     15  C   LIG    1       -1.155   3.589  -0.087  0.00  0.00    -0.170 C 
ATOM     16  C   LIG    1       -0.853   4.297   1.246  0.00  0.00    +0.060 C 
ATOM     17  C   LIG    1       -1.928   5.312   0.850  0.00  0.00    -0.080 C 
ATOM     18  C   LIG    1       -2.752   6.046   1.909  0.00  0.00    +0.010 C 
ATOM     19  C   LIG    1       -1.817   7.248   1.678  0.00  0.00    -0.020 C 
ATOM     20  C   LIG    1       -1.550   6.677   0.274  0.00  0.00    +0.070 C 
ATOM     21  C   LIG    1       -2.555   4.229  -0.028  0.00  0.00    +0.050 C 
BRANCH  15  22
ATOM     22  C   LIG    1       -0.315   4.084  -1.236  0.00  0.00    +0.520 C 
ATOM     23  O   LIG    1       -0.063   5.272  -1.340  0.00  0.00    -0.670 OA
ATOM     24  O   LIG    1        0.113   3.296  -2.062  0.00  0.00    -0.680 OA
ENDBRANCH  15  22
ENDBRANCH   3  15
TORSDOF 5
