REMARK  Name = ZINCrD00000s4BLU.0
REMARK                            x       y       z     vdW  Elec       q    Type
REMARK                         _______ _______ _______ _____ _____    ______ ____
ROOT
ATOM      1  C   LIG    1       -0.434  -4.195   4.407  0.00  0.00    +0.310 C 
ATOM      2  N   LIG    1       -1.515  -5.085   4.002  0.00  0.00    -0.710 N 
ATOM      3  H   LIG    1       -1.315  -6.029   3.904  0.00  0.00    +0.410 HD
ATOM      4  C   LIG    1       -2.763  -4.684   3.759  0.00  0.00    +0.520 C 
ATOM      5  C   LIG    1       -3.200  -3.248   3.825  0.00  0.00    +0.080 C 
ATOM      6  C   LIG    1       -2.174  -2.425   4.606  0.00  0.00    +0.030 C 
ATOM      7  O   LIG    1       -3.590  -5.522   3.468  0.00  0.00    -0.550 OA
ATOM      8  C   LIG    1       -0.777  -2.746   4.061  0.00  0.00    +0.250 C 
ENDROOT
BRANCH   1  11
ATOM      9  N   LIG    1        2.926  -5.038   3.269  0.00  0.00    -0.360 N 
ATOM     10  C   LIG    1        2.071  -4.637   4.233  0.00  0.00    +0.250 A 
ATOM     11  C   LIG    1        0.831  -4.592   3.692  0.00  0.00    -0.270 A 
ATOM     12  C   LIG    1        0.932  -4.985   2.353  0.00  0.00    +0.240 A 
ATOM     13  N   LIG    1        2.188  -5.246   2.097  0.00  0.00    -0.290 NA
BRANCH   9  15
ATOM     14  C   LIG    1        4.753  -6.641   2.994  0.00  0.00    +0.040 C 
ATOM     15  C   LIG    1        4.372  -5.222   3.422  0.00  0.00    +0.320 C 
ENDBRANCH   9  15
ENDBRANCH   1  11
BRANCH   8  16
ATOM     16  N   LIG    1        0.207  -1.849   4.673  0.00  0.00    -0.700 N 
ATOM     17  H   LIG    1        0.698  -2.132   5.460  0.00  0.00    +0.410 HD
BRANCH  16  18
ATOM     18  C   LIG    1        0.436  -0.596   4.127  0.00  0.00    +0.450 A 
ATOM     19  C   LIG    1       -0.265  -0.177   2.994  0.00  0.00    -0.150 A 
ATOM     20  C   LIG    1        0.000   1.080   2.488  0.00  0.00    +0.220 A 
ATOM     21  N   LIG    1        0.907   1.840   3.085  0.00  0.00    -0.560 NA
ATOM     22  C   LIG    1        1.548   1.417   4.156  0.00  0.00    +0.370 A 
ATOM     23  N   LIG    1        1.327   0.226   4.673  0.00  0.00    -0.570 NA
BRANCH  22  24
ATOM     24  C   LIG    1        2.566   2.320   4.804  0.00  0.00    +0.070 C 
ATOM     25  C   LIG    1        3.935   1.638   4.790  0.00  0.00    +0.030 C 
ATOM     26  C   LIG    1        2.151   2.601   6.250  0.00  0.00    +0.040 C 
ENDBRANCH  22  24
BRANCH  20  27
ATOM     27  C   LIG    1       -0.729   1.579   1.267  0.00  0.00    +0.040 C 
ATOM     28  C   LIG    1       -2.164   1.050   1.278  0.00  0.00    +0.040 C 
ATOM     29  C   LIG    1       -0.013   1.086   0.008  0.00  0.00    +0.050 C 
ENDBRANCH  20  27
ENDBRANCH  16  18
ENDBRANCH   8  16
TORSDOF 6
