REMARK  Name = ZINCrH00000No4Ke.0
REMARK                            x       y       z     vdW  Elec       q    Type
REMARK                         _______ _______ _______ _____ _____    ______ ____
ROOT
ATOM      1  C   LIG    1       -1.909 -10.488   4.042  0.00  0.00    +0.130 A 
ATOM      2  C   LIG    1       -1.243 -11.186   3.043  0.00  0.00    -0.070 A 
ATOM      3  C   LIG    1       -0.550 -10.504   2.059  0.00  0.00    +0.050 A 
ATOM      4  C   LIG    1       -0.516  -9.126   2.061  0.00  0.00    -0.010 A 
ATOM      5  C   LIG    1       -1.183  -8.413   3.062  0.00  0.00    -0.040 A 
ATOM      6  C   LIG    1       -1.878  -9.104   4.059  0.00  0.00    +0.010 A 
ENDROOT
BRANCH   5   7
ATOM      7  C   LIG    1       -1.149  -6.941   3.070  0.00  0.00    +0.120 C 
ATOM      8  C   LIG    1       -0.473  -6.278   2.111  0.00  0.00    -0.080 C 
BRANCH   8   9
ATOM      9  C   LIG    1       -0.439  -4.814   2.118  0.00  0.00    +0.550 C 
ATOM     10  N   LIG    1        0.236  -4.150   1.159  0.00  0.00    -0.730 N 
ATOM     11  H   LIG    1        0.700  -4.643   0.464  0.00  0.00    +0.400 HD
ATOM     12  O   LIG    1       -1.021  -4.196   2.991  0.00  0.00    -0.540 OA
BRANCH  10  13
ATOM     13  C   LIG    1        0.270  -2.686   1.167  0.00  0.00    +0.280 C 
BRANCH  13  14
ATOM     14  C   LIG    1        1.098  -2.189  -0.020  0.00  0.00    +0.100 C 
BRANCH  14  15
ATOM     15  C   LIG    1        1.133  -0.682  -0.013  0.00  0.00    +0.130 A 
ATOM     16  C   LIG    1        2.350  -0.027  -0.021  0.00  0.00    -0.030 A 
ATOM     17  C   LIG    1        2.371   1.359  -0.014  0.00  0.00    +0.070 A 
ATOM     18  C   LIG    1        1.162   2.038   0.002  0.00  0.00    -0.040 A 
ATOM     19  C   LIG    1       -0.016   1.314   0.009  0.00  0.00    +0.260 A 
ATOM     20  N   LIG    1        0.002  -0.004   0.002  0.00  0.00    -0.480 NA
ENDBRANCH  14  15
ENDBRANCH  13  14
ENDBRANCH  10  13
ENDBRANCH   8   9
ENDBRANCH   5   7
BRANCH   1  21
ATOM     21  O   LIG    1       -2.587 -11.164   5.006  0.00  0.00    -0.310 OA
BRANCH  21  22
ATOM     22  C   LIG    1       -2.572 -12.591   4.931  0.00  0.00    +0.320 C 
BRANCH  22  26
ATOM     23  C   LIG    1       -4.524 -16.259   7.643  0.00  0.00    +0.180 C 
ATOM     24  C   LIG    1       -4.232 -14.828   7.271  0.00  0.00    +0.050 A 
ATOM     25  N   LIG    1       -3.528 -14.458   6.255  0.00  0.00    -0.470 NA
ATOM     26  C   LIG    1       -3.370 -13.162   6.074  0.00  0.00    +0.060 A 
ATOM     27  C   LIG    1       -3.972 -12.397   6.990  0.00  0.00    -0.050 A 
ATOM     28  S   LIG    1       -4.787 -13.461   8.134  0.00  0.00    +0.130 S 
ENDBRANCH  22  26
ENDBRANCH  21  22
ENDBRANCH   1  21
TORSDOF 8
