REMARK  Name = ZINCpk00000KfLNI.0
REMARK                            x       y       z     vdW  Elec       q    Type
REMARK                         _______ _______ _______ _____ _____    ______ ____
ROOT
ATOM      1  C   LIG    1       -0.734   4.152   4.747  0.00  0.00    +0.160 C 
ATOM      2  C   LIG    1       -0.690   4.589   6.214  0.00  0.00    +0.170 C 
ATOM      3  N   LIG    1       -0.351   6.018   6.284  0.00  0.00    -0.510 NA
ATOM      4  C   LIG    1        0.945   6.278   5.641  0.00  0.00    +0.160 C 
ATOM      5  C   LIG    1        0.884   5.825   4.180  0.00  0.00    +0.230 C 
ATOM      6  O   LIG    1        0.523   4.441   4.130  0.00  0.00    -0.360 OA
ENDROOT
BRANCH   1   7
ATOM      7  C   LIG    1       -1.007   2.648   4.670  0.00  0.00    +0.370 C 
BRANCH   7  11
ATOM      8  C   LIG    1       -0.013   1.086   0.008  0.00  0.00    +0.190 C 
ATOM      9  C   LIG    1       -0.718   1.572   1.248  0.00  0.00    +0.220 A 
ATOM     10  N   LIG    1       -0.147   1.827   2.396  0.00  0.00    -0.300 NA
ATOM     11  N   LIG    1       -1.163   2.252   3.268  0.00  0.00    -0.370 N 
ATOM     12  C   LIG    1       -2.306   2.222   2.562  0.00  0.00    +0.270 A 
ATOM     13  C   LIG    1       -3.673   2.596   3.074  0.00  0.00    +0.190 C 
ATOM     14  N   LIG    1       -2.024   1.817   1.350  0.00  0.00    -0.540 NA
ENDBRANCH   7  11
ENDBRANCH   1   7
BRANCH   3  15
ATOM     15  C   LIG    1       -0.353   6.492   7.675  0.00  0.00    +0.400 C 
BRANCH  15  16
ATOM     16  C   LIG    1        0.620   5.675   8.485  0.00  0.00    +0.150 A 
ATOM     17  N   LIG    1        1.889   5.938   8.671  0.00  0.00    -0.460 NA
ATOM     18  C   LIG    1        2.355   4.940   9.459  0.00  0.00    +0.250 A 
ATOM     19  N   LIG    1        1.348   4.138   9.701  0.00  0.00    -0.360 NA
ATOM     20  O   LIG    1        0.347   4.550   9.153  0.00  0.00    +0.090 OA
BRANCH  18  21
ATOM     21  C   LIG    1        3.739   4.786   9.952  0.00  0.00    +0.040 A 
ATOM     22  C   LIG    1        4.197   3.779  10.743  0.00  0.00    +0.020 A 
ATOM     23  C   LIG    1        5.564   4.027  10.966  0.00  0.00    -0.060 A 
ATOM     24  C   LIG    1        5.872   5.163  10.307  0.00  0.00    +0.220 A 
ATOM     25  O   LIG    1        4.768   5.615   9.692  0.00  0.00    -0.150 OA
ENDBRANCH  18  21
ENDBRANCH  15  16
ENDBRANCH   3  15
TORSDOF 5
