REMARK  Name = ZINCrH000004ls7z.0
REMARK                            x       y       z     vdW  Elec       q    Type
REMARK                         _______ _______ _______ _____ _____    ______ ____
ROOT
ATOM      1  S   LIG    1        4.901   1.304  -0.761  0.00  0.00    -0.000 S 
ENDROOT
BRANCH   1  10
ATOM      2  N   LIG    1        7.455   2.289  -1.255  0.00  0.00    -0.470 N 
ATOM      3  C   LIG    1        8.158   3.472  -1.096  0.00  0.00    +0.060 A 
ATOM      4  C   LIG    1        9.457   3.864  -1.383  0.00  0.00    +0.010 A 
ATOM      5  C   LIG    1        9.865   5.151  -1.098  0.00  0.00    +0.040 A 
ATOM      6  C   LIG    1        8.985   6.056  -0.525  0.00  0.00    +0.010 A 
ATOM      7  C   LIG    1        7.691   5.684  -0.233  0.00  0.00    +0.070 A 
ATOM      8  C   LIG    1        7.262   4.386  -0.516  0.00  0.00    +0.060 A 
ATOM      9  N   LIG    1        6.079   3.738  -0.355  0.00  0.00    -0.480 NA
ATOM     10  C   LIG    1        6.190   2.504  -0.783  0.00  0.00    +0.260 A 
BRANCH   2  11
ATOM     11  C   LIG    1        7.970   1.041  -1.823  0.00  0.00    +0.330 C 
BRANCH  11  12
ATOM     12  C   LIG    1        7.731   1.032  -3.334  0.00  0.00    +0.170 C 
BRANCH  12  14
ATOM     13  C   LIG    1        8.060  -0.297  -5.302  0.00  0.00    +0.210 C 
ATOM     14  O   LIG    1        8.234  -0.186  -3.888  0.00  0.00    -0.390 OA
ENDBRANCH  12  14
ENDBRANCH  11  12
ENDBRANCH   2  11
ENDBRANCH   1  10
BRANCH   1  15
ATOM     15  C   LIG    1        3.571   2.285  -0.021  0.00  0.00    +0.120 C 
ATOM     16  C   LIG    1        3.950   2.656   1.414  0.00  0.00    +0.110 C 
BRANCH  15  17
ATOM     17  C   LIG    1        2.298   1.479  -0.012  0.00  0.00    +0.470 A 
ATOM     18  N   LIG    1        1.162   2.119   0.002  0.00  0.00    -0.580 NA
ATOM     19  C   LIG    1       -0.018   1.470   0.010  0.00  0.00    +0.540 A 
ATOM     20  C   LIG    1        0.002  -0.004   0.002  0.00  0.00    -0.210 A 
ATOM     21  C   LIG    1       -1.168  -0.760   0.010  0.00  0.00    +0.110 A 
ATOM     22  C   LIG    1       -1.086  -2.135   0.001  0.00  0.00    -0.010 A 
ATOM     23  C   LIG    1        0.150  -2.767  -0.013  0.00  0.00    +0.090 A 
ATOM     24  C   LIG    1        1.317  -2.031  -0.021  0.00  0.00    -0.020 A 
ATOM     25  C   LIG    1        1.255  -0.645  -0.013  0.00  0.00    +0.170 A 
ATOM     26  O   LIG    1       -1.071   2.083   0.018  0.00  0.00    -0.470 OA
ATOM     27  N   LIG    1        2.392   0.138  -0.020  0.00  0.00    -0.620 N 
ATOM     28  H   LIG    1        3.266  -0.283  -0.031  0.00  0.00    +0.420 HD
ENDBRANCH  15  17
ENDBRANCH   1  15
TORSDOF 6
