REMARK  Name = ZINCqH0000038kJR.0
REMARK                            x       y       z     vdW  Elec       q    Type
REMARK                         _______ _______ _______ _____ _____    ______ ____
ROOT
ATOM      1  N   LIG    1        1.836   0.991  -0.944  0.00  0.00    -0.740 N 
ATOM      2  H   LIG    1        2.104   1.392  -0.102  0.00  0.00    +0.400 HD
ATOM      3  C   LIG    1        0.716   0.244  -1.008  0.00  0.00    +0.710 C 
ATOM      4  N   LIG    1       -0.032   0.054   0.098  0.00  0.00    -0.710 N 
ATOM      5  H   LIG    1        0.276   0.389   0.954  0.00  0.00    +0.400 HD
ATOM      6  O   LIG    1        0.383  -0.264  -2.061  0.00  0.00    -0.570 OA
ENDROOT
BRANCH   4   7
ATOM      7  C   LIG    1       -1.310  -0.657   0.005  0.00  0.00    +0.150 C 
ATOM      8  C   LIG    1       -1.754  -1.471   1.221  0.00  0.00    +0.060 C 
ATOM      9  C   LIG    1       -1.265  -2.185  -0.041  0.00  0.00    +0.050 C 
BRANCH   7  10
ATOM     10  C   LIG    1       -2.381   0.033  -0.800  0.00  0.00    -0.010 A 
ATOM     11  C   LIG    1       -2.296   1.391  -1.042  0.00  0.00    +0.010 A 
ATOM     12  C   LIG    1       -3.277   2.027  -1.781  0.00  0.00    +0.060 A 
ATOM     13  C   LIG    1       -4.344   1.306  -2.279  0.00  0.00    -0.060 A 
ATOM     14  C   LIG    1       -4.432  -0.058  -2.038  0.00  0.00    +0.110 A 
ATOM     15  C   LIG    1       -3.443  -0.694  -1.302  0.00  0.00    +0.020 A 
BRANCH  14  16
ATOM     16  O   LIG    1       -5.481  -0.769  -2.526  0.00  0.00    -0.310 OA
BRANCH  16  17
ATOM     17  C   LIG    1       -6.458  -0.049  -3.280  0.00  0.00    +0.600 C 
ATOM     18  F   LIG    1       -7.022   0.950  -2.479  0.00  0.00    -0.160 F 
ATOM     19  F   LIG    1       -7.461  -0.928  -3.704  0.00  0.00    -0.130 F 
ATOM     20  F   LIG    1       -5.849   0.535  -4.396  0.00  0.00    -0.160 F 
ENDBRANCH  16  17
ENDBRANCH  14  16
ENDBRANCH   7  10
ENDBRANCH   4   7
BRANCH   1  21
ATOM     21  C   LIG    1        2.648   1.196  -2.145  0.00  0.00    +0.360 C 
BRANCH  21  27
ATOM     22  C   LIG    1        4.525   5.663  -1.556  0.00  0.00    +0.130 C 
ATOM     23  C   LIG    1        4.721   4.169  -1.529  0.00  0.00    +0.130 A 
ATOM     24  C   LIG    1        5.959   3.649  -1.202  0.00  0.00    -0.020 A 
ATOM     25  C   LIG    1        6.129   2.273  -1.180  0.00  0.00    +0.070 A 
ATOM     26  C   LIG    1        5.043   1.468  -1.489  0.00  0.00    -0.020 A 
ATOM     27  C   LIG    1        3.836   2.061  -1.807  0.00  0.00    +0.110 A 
ATOM     28  N   LIG    1        3.711   3.373  -1.823  0.00  0.00    -0.470 NA
ENDBRANCH  21  27
ENDBRANCH   1  21
TORSDOF 6
