REMARK  Name = ZINCrg000000tWfG.0
REMARK                            x       y       z     vdW  Elec       q    Type
REMARK                         _______ _______ _______ _____ _____    ______ ____
ROOT
ATOM      1  N   LIG    1        3.123   0.691  -1.605  0.00  0.00    -1.060 N 
ATOM      2  H   LIG    1        3.168  -0.208  -1.968  0.00  0.00    +0.430 HD
ENDROOT
BRANCH   1   3
ATOM      3  C   LIG    1        3.406   1.789  -2.421  0.00  0.00    +0.120 A 
ATOM      4  C   LIG    1        4.221   2.811  -1.953  0.00  0.00    +0.070 A 
ATOM      5  C   LIG    1        4.500   3.895  -2.762  0.00  0.00    +0.030 A 
ATOM      6  C   LIG    1        3.968   3.963  -4.037  0.00  0.00    +0.130 A 
ATOM      7  C   LIG    1        3.155   2.947  -4.506  0.00  0.00    -0.660 A 
ATOM      8  C   LIG    1        2.877   1.858  -3.704  0.00  0.00    +0.120 A 
BRANCH   7   9
ATOM      9  S   LIG    1        2.481   3.038  -6.131  0.00  0.00    +2.700 S 
ATOM     10  O   LIG    1        2.462   4.415  -6.481  0.00  0.00    -0.950 OA
ATOM     11  O   LIG    1        1.319   2.220  -6.130  0.00  0.00    -0.950 OA
BRANCH   9  12
ATOM     12  N   LIG    1        3.563   2.311  -7.152  0.00  0.00    -1.090 NA
ATOM     13  H   LIG    1        4.013   2.835  -7.833  0.00  0.00    +0.420 HD
BRANCH  12  14
ATOM     14  C   LIG    1        3.839   0.878  -7.027  0.00  0.00    +0.220 C 
ATOM     15  C   LIG    1        5.259   0.402  -7.342  0.00  0.00    +0.010 C 
ATOM     16  C   LIG    1        4.116   0.097  -8.314  0.00  0.00    +0.030 C 
ENDBRANCH  12  14
ENDBRANCH   9  12
ENDBRANCH   7   9
ENDBRANCH   1   3
BRANCH   1  17
ATOM     17  S   LIG    1        2.710   0.922  -0.018  0.00  0.00    +2.700 S 
ATOM     18  O   LIG    1        2.454  -0.367   0.522  0.00  0.00    -0.940 OA
ATOM     19  O   LIG    1        3.676   1.813   0.522  0.00  0.00    -0.940 OA
BRANCH  17  27
ATOM     20  O   LIG    1       -4.554   2.419   0.058  0.00  0.00    -0.540 OA
ATOM     21  C   LIG    1       -3.337   2.431   0.046  0.00  0.00    +0.690 A 
ATOM     22  N   LIG    1       -2.573   3.540   0.045  0.00  0.00    -0.640 N 
ATOM     23  H   LIG    1       -2.898   4.454   0.052  0.00  0.00    +0.440 HD
ATOM     24  C   LIG    1       -1.235   3.151   0.030  0.00  0.00    +0.150 A 
ATOM     25  C   LIG    1       -0.040   3.853   0.023  0.00  0.00    +0.030 A 
ATOM     26  C   LIG    1        1.160   3.168   0.008  0.00  0.00    +0.140 A 
ATOM     27  C   LIG    1        1.173   1.784   0.000  0.00  0.00    -0.670 A 
ATOM     28  C   LIG    1       -0.013   1.076   0.008  0.00  0.00    +0.150 A 
ATOM     29  C   LIG    1       -1.221   1.754   0.017  0.00  0.00    +0.070 A 
ATOM     30  N   LIG    1       -2.551   1.338   0.034  0.00  0.00    -0.640 N 
ATOM     31  H   LIG    1       -2.858   0.418   0.031  0.00  0.00    +0.440 HD
ENDBRANCH  17  27
ENDBRANCH   1  17
TORSDOF 6
