REMARK  Name = ZINCpe00000Ram9G.1
REMARK                            x       y       z     vdW  Elec       q    Type
REMARK                         _______ _______ _______ _____ _____    ______ ____
ROOT
ATOM      1  C   LIG    1       -1.411  -4.653  -7.043  0.00  0.00    +0.280 C 
ATOM      2  C   LIG    1       -0.203  -4.920  -6.138  0.00  0.00    +0.290 C 
ATOM      3  N   LIG    1       -0.097  -3.817  -5.169  0.00  0.00    -0.610 N 
ATOM      4  C   LIG    1       -0.129  -2.439  -5.683  0.00  0.00    +0.260 C 
ATOM      5  C   LIG    1       -1.335  -2.293  -6.612  0.00  0.00    +0.230 C 
ATOM      6  C   LIG    1        0.021  -4.062  -3.849  0.00  0.00    +0.570 C 
ATOM      7  O   LIG    1        0.109  -5.207  -3.449  0.00  0.00    -0.520 OA
ATOM      8  O   LIG    1       -1.308  -3.336  -7.589  0.00  0.00    -0.360 OA
ENDROOT
BRANCH   6   9
ATOM      9  C   LIG    1        0.042  -2.941  -2.888  0.00  0.00    -0.150 A 
ATOM     10  C   LIG    1        0.890  -1.847  -3.111  0.00  0.00    +0.100 A 
ATOM     11  C   LIG    1        0.919  -0.805  -2.232  0.00  0.00    +0.020 A 
ATOM     12  C   LIG    1        0.100  -0.816  -1.106  0.00  0.00    +0.100 A 
ATOM     13  C   LIG    1       -0.754  -1.908  -0.863  0.00  0.00    -0.020 A 
ATOM     14  N   LIG    1       -1.421  -1.658   0.289  0.00  0.00    -0.210 NA
ATOM     15  N   LIG    1       -1.054  -0.525   0.775  0.00  0.00    +0.000 NA
ATOM     16  N   LIG    1       -0.090   0.054  -0.062  0.00  0.00    -0.400 N 
ATOM     17  C   LIG    1        0.580   1.342   0.136  0.00  0.00    +0.380 C 
ATOM     18  C   LIG    1       -0.779  -2.973  -1.768  0.00  0.00    +0.180 A 
ENDBRANCH   6   9
BRANCH   1  21
ATOM     19  C   LIG    1       -2.015  -7.376  -9.343  0.00  0.00    +0.290 A 
ATOM     20  N   LIG    1       -2.259  -6.705  -8.247  0.00  0.00    -0.530 NA
ATOM     21  C   LIG    1       -1.434  -5.662  -8.162  0.00  0.00    +0.230 A 
ATOM     22  N   LIG    1       -0.644  -5.660  -9.204  0.00  0.00    -0.280 NA
ATOM     23  N   LIG    1       -1.004  -6.768  -9.988  0.00  0.00    -0.480 N 
ATOM     24  H   LIG    1       -0.603  -7.040 -10.828  0.00  0.00    +0.440 HD
BRANCH  19  26
ATOM     25  C   LIG    1       -1.964  -9.855  -9.344  0.00  0.00    +0.050 C 
ATOM     26  C   LIG    1       -2.737  -8.617  -9.801  0.00  0.00    +0.150 C 
ENDBRANCH  19  26
ENDBRANCH   1  21
TORSDOF 3
