REMARK  Name = ZINCpe00000Ram9G.0
REMARK                            x       y       z     vdW  Elec       q    Type
REMARK                         _______ _______ _______ _____ _____    ______ ____
ROOT
ATOM      1  C   LIG    1       -0.110   2.906   1.311  0.00  0.00    +0.250 C 
ATOM      2  C   LIG    1       -0.038   1.804   0.249  0.00  0.00    +0.300 C 
ATOM      3  N   LIG    1       -0.697   2.292  -0.973  0.00  0.00    -0.610 N 
ATOM      4  C   LIG    1       -2.045   2.868  -0.849  0.00  0.00    +0.250 C 
ATOM      5  C   LIG    1       -2.020   3.920   0.267  0.00  0.00    +0.230 C 
ATOM      6  C   LIG    1       -0.083   2.213  -2.171  0.00  0.00    +0.570 C 
ATOM      7  O   LIG    1        1.066   1.824  -2.241  0.00  0.00    -0.520 OA
ATOM      8  O   LIG    1       -1.467   3.337   1.450  0.00  0.00    -0.360 OA
ENDROOT
BRANCH   6   9
ATOM      9  C   LIG    1       -0.808   2.600  -3.398  0.00  0.00    -0.150 A 
ATOM     10  C   LIG    1       -2.192   2.396  -3.486  0.00  0.00    +0.100 A 
ATOM     11  C   LIG    1       -2.874   2.754  -4.611  0.00  0.00    +0.020 A 
ATOM     12  C   LIG    1       -2.196   3.316  -5.690  0.00  0.00    +0.110 A 
ATOM     13  C   LIG    1       -0.806   3.524  -5.622  0.00  0.00    -0.030 A 
ATOM     14  N   LIG    1       -0.418   4.078  -6.796  0.00  0.00    -0.210 NA
ATOM     15  N   LIG    1       -1.433   4.228  -7.572  0.00  0.00    +0.000 NA
ATOM     16  N   LIG    1       -2.588   3.764  -6.927  0.00  0.00    -0.390 N 
ATOM     17  C   LIG    1       -3.949   3.758  -7.469  0.00  0.00    +0.380 C 
ATOM     18  C   LIG    1       -0.114   3.160  -4.464  0.00  0.00    +0.190 A 
ENDBRANCH   6   9
BRANCH   1  22
ATOM     19  C   LIG    1        1.482   2.091   4.475  0.00  0.00    +0.190 A 
ATOM     20  N   LIG    1        0.592   1.145   4.346  0.00  0.00    -0.290 NA
ATOM     21  N   LIG    1       -0.060   1.310   3.249  0.00  0.00    -0.260 NA
ATOM     22  C   LIG    1        0.386   2.369   2.629  0.00  0.00    +0.170 A 
ATOM     23  N   LIG    1        1.380   2.891   3.386  0.00  0.00    -0.570 N 
ATOM     24  H   LIG    1        1.911   3.679   3.190  0.00  0.00    +0.430 HD
BRANCH  19  26
ATOM     25  C   LIG    1        1.673   2.305   6.938  0.00  0.00    +0.050 C 
ATOM     26  C   LIG    1        2.448   2.257   5.619  0.00  0.00    +0.140 C 
ENDBRANCH  19  26
ENDBRANCH   1  22
TORSDOF 3
