REMARK  Name = ZINCrD00000F5Lvf.0
REMARK                            x       y       z     vdW  Elec       q    Type
REMARK                         _______ _______ _______ _____ _____    ______ ____
ROOT
ATOM      1  N   LIG    1       -2.573   9.141   4.007  0.00  0.00    -0.740 N 
ATOM      2  H   LIG    1       -2.574   9.582   3.143  0.00  0.00    +0.390 HD
ATOM      3  C   LIG    1       -2.591   7.795   4.077  0.00  0.00    +0.710 C 
ATOM      4  N   LIG    1       -2.503   7.061   2.950  0.00  0.00    -0.630 N 
ATOM      5  C   LIG    1       -2.411   5.596   3.016  0.00  0.00    +0.310 C 
ATOM      6  C   LIG    1       -1.183   5.143   2.220  0.00  0.00    -0.010 C 
ATOM      7  C   LIG    1       -1.267   5.704   0.798  0.00  0.00    +0.180 C 
ATOM      8  C   LIG    1       -1.271   7.233   0.851  0.00  0.00    +0.030 C 
ATOM      9  C   LIG    1       -2.500   7.710   1.632  0.00  0.00    +0.260 C 
ATOM     10  O   LIG    1       -2.685   7.243   5.156  0.00  0.00    -0.570 OA
ENDROOT
BRANCH   7  11
ATOM     11  N   LIG    1       -0.108   5.244   0.021  0.00  0.00    -0.490 N 
ATOM     12  C   LIG    1        1.121   5.896   0.477  0.00  0.00    +0.190 C 
ATOM     13  C   LIG    1        2.297   5.360  -0.349  0.00  0.00    +0.040 C 
ATOM     14  C   LIG    1        2.506   3.891   0.029  0.00  0.00    +0.070 C 
ATOM     15  C   LIG    1        1.181   3.171   0.020  0.00  0.00    -0.120 A 
ATOM     16  C   LIG    1        1.190   1.786   0.013  0.00  0.00    +0.030 A 
ATOM     17  C   LIG    1        0.005   1.077   0.017  0.00  0.00    -0.030 A 
ATOM     18  C   LIG    1       -1.201   1.752   0.022  0.00  0.00    +0.020 A 
ATOM     19  C   LIG    1       -1.218   3.131   0.033  0.00  0.00    -0.040 A 
ATOM     20  C   LIG    1       -0.024   3.853   0.026  0.00  0.00    +0.130 A 
ENDBRANCH   7  11
BRANCH   1  21
ATOM     21  C   LIG    1       -2.552   9.938   5.236  0.00  0.00    +0.230 C 
ATOM     22  C   LIG    1       -3.802   9.631   6.067  0.00  0.00    +0.020 C 
ATOM     23  C   LIG    1       -5.045  10.052   5.275  0.00  0.00    +0.200 C 
ATOM     24  O   LIG    1       -4.955  11.441   4.950  0.00  0.00    -0.380 OA
ATOM     25  C   LIG    1       -3.829  11.778   4.136  0.00  0.00    +0.210 C 
ATOM     26  C   LIG    1       -2.539  11.428   4.881  0.00  0.00    +0.020 C 
BRANCH  21  28
ATOM     27  C   LIG    1       -0.473   8.707   5.587  0.00  0.00    +0.020 C 
ATOM     28  C   LIG    1       -1.320   9.599   6.036  0.00  0.00    -0.050 C 
ENDBRANCH  21  28
ENDBRANCH   1  21
TORSDOF 3
