REMARK  Name = ZINCkj000005jQfL.0
REMARK                            x       y       z     vdW  Elec       q    Type
REMARK                         _______ _______ _______ _____ _____    ______ ____
ROOT
ATOM      1  C   LIG    1       -0.821   1.442   1.308  0.00  0.00    +0.240 C 
ATOM      2  C   LIG    1       -0.105   1.090   2.613  0.00  0.00    +0.080 C 
ENDROOT
BRANCH   1   3
ATOM      3  N   LIG    1       -2.129   0.783   1.275  0.00  0.00    -1.130 NA
ATOM      4  H   LIG    1       -2.207  -0.124   0.941  0.00  0.00    +0.420 HD
BRANCH   3   5
ATOM      5  S   LIG    1       -3.475   1.587   1.808  0.00  0.00    +2.590 S 
ATOM      6  O   LIG    1       -3.108   2.072   3.092  0.00  0.00    -0.920 OA
ATOM      7  O   LIG    1       -4.529   0.647   1.653  0.00  0.00    -0.920 OA
BRANCH   5   8
ATOM      8  C   LIG    1       -3.672   2.963   0.641  0.00  0.00    -0.310 C 
BRANCH   8   9
ATOM      9  C   LIG    1       -4.897   3.791   1.031  0.00  0.00    -0.050 C 
ATOM     10  C   LIG    1       -6.106   3.749   0.094  0.00  0.00    +0.110 C 
ATOM     11  C   LIG    1       -5.235   5.005   0.163  0.00  0.00    +0.120 C 
BRANCH   9  12
ATOM     12  C   LIG    1       -5.160   3.894   2.476  0.00  0.00    +0.170 C 
ATOM     13  N   LIG    1       -5.363   3.974   3.591  0.00  0.00    -0.350 NA
ENDBRANCH   9  12
ENDBRANCH   8   9
ENDBRANCH   5   8
ENDBRANCH   3   5
ENDBRANCH   1   3
BRANCH   1  14
ATOM     14  C   LIG    1        0.019   0.967   0.121  0.00  0.00    +0.270 C 
BRANCH  14  20
ATOM     15  C   LIG    1       -1.716   4.502  -2.787  0.00  0.00    +0.070 C 
ATOM     16  C   LIG    1       -1.616   2.989  -2.585  0.00  0.00    -0.020 C 
ATOM     17  C   LIG    1       -0.925   2.356  -3.796  0.00  0.00    +0.050 C 
ATOM     18  C   LIG    1       -0.761   0.853  -3.549  0.00  0.00    +0.060 C 
ATOM     19  C   LIG    1        0.026   0.638  -2.254  0.00  0.00    +0.250 C 
ATOM     20  N   LIG    1       -0.700   1.243  -1.130  0.00  0.00    -0.390 N 
ATOM     21  H   LIG    1       -1.626   0.848  -1.079  0.00  0.00    +0.420 HD
ATOM     22  C   LIG    1       -0.798   2.695  -1.325  0.00  0.00    +0.240 C 
ENDBRANCH  14  20
ENDBRANCH   1  14
TORSDOF 7
