REMARK  Name = ZINCkj000005jQfL.1
REMARK                            x       y       z     vdW  Elec       q    Type
REMARK                         _______ _______ _______ _____ _____    ______ ____
ROOT
ATOM      1  C   LIG    1       -1.290   1.681   0.017  0.00  0.00    +0.240 C 
ATOM      2  C   LIG    1       -1.803   1.828  -1.417  0.00  0.00    +0.080 C 
ENDROOT
BRANCH   1   3
ATOM      3  N   LIG    1       -0.011   0.966   0.007  0.00  0.00    -1.140 NA
ATOM      4  H   LIG    1        0.002  -0.004   0.002  0.00  0.00    +0.420 HD
BRANCH   3   5
ATOM      5  S   LIG    1        1.412   1.813  -0.002  0.00  0.00    +2.590 S 
ATOM      6  O   LIG    1        1.260   2.742  -1.067  0.00  0.00    -0.920 OA
ATOM      7  O   LIG    1        2.417   0.810  -0.042  0.00  0.00    -0.920 OA
BRANCH   5   8
ATOM      8  C   LIG    1        1.436   2.674   1.595  0.00  0.00    -0.310 C 
BRANCH   8   9
ATOM      9  C   LIG    1        2.717   3.502   1.708  0.00  0.00    -0.050 C 
ATOM     10  C   LIG    1        3.761   3.052   2.733  0.00  0.00    +0.110 C 
ATOM     11  C   LIG    1        2.926   4.308   2.992  0.00  0.00    +0.120 C 
BRANCH   9  12
ATOM     12  C   LIG    1        3.208   4.088   0.451  0.00  0.00    +0.170 C 
ATOM     13  N   LIG    1        3.587   4.541  -0.520  0.00  0.00    -0.350 NA
ENDBRANCH   9  12
ENDBRANCH   8   9
ENDBRANCH   5   8
ENDBRANCH   3   5
ENDBRANCH   1   3
BRANCH   1  14
ATOM     14  C   LIG    1       -2.308   0.894   0.845  0.00  0.00    +0.270 C 
BRANCH  14  20
ATOM     15  C   LIG    1       -0.756  -1.261   4.124  0.00  0.00    +0.050 C 
ATOM     16  C   LIG    1       -2.087  -0.531   4.310  0.00  0.00    +0.010 C 
ATOM     17  C   LIG    1       -1.853   0.772   5.080  0.00  0.00    +0.060 C 
ATOM     18  C   LIG    1       -0.947   1.687   4.252  0.00  0.00    +0.060 C 
ATOM     19  C   LIG    1       -1.589   1.930   2.884  0.00  0.00    +0.240 C 
ATOM     20  N   LIG    1       -1.763   0.649   2.187  0.00  0.00    -0.390 N 
ATOM     21  H   LIG    1       -0.869   0.189   2.107  0.00  0.00    +0.420 HD
ATOM     22  C   LIG    1       -2.688  -0.206   2.941  0.00  0.00    +0.250 C 
ENDBRANCH  14  20
ENDBRANCH   1  14
TORSDOF 7
