REMARK  Name = ZINCrg00000BgOpq.0
REMARK                            x       y       z     vdW  Elec       q    Type
REMARK                         _______ _______ _______ _____ _____    ______ ____
ROOT
ATOM      1  O   LIG    1        5.885   3.550  -0.428  0.00  0.00    -0.530 OA
ATOM      2  C   LIG    1        5.351   3.253  -1.475  0.00  0.00    +0.520 C 
ATOM      3  N   LIG    1        5.924   3.597  -2.645  0.00  0.00    -0.620 N 
ATOM      4  C   LIG    1        5.291   3.239  -3.922  0.00  0.00    +0.270 C 
ATOM      5  C   LIG    1        5.101   4.523  -4.747  0.00  0.00    +0.260 C 
ATOM      6  N   LIG    1        6.374   5.257  -4.769  0.00  0.00    -0.610 N 
ATOM      7  C   LIG    1        7.010   5.611  -3.492  0.00  0.00    +0.290 C 
ATOM      8  C   LIG    1        6.948   5.600  -5.940  0.00  0.00    +0.530 C 
ATOM      9  O   LIG    1        7.944   6.292  -5.947  0.00  0.00    -0.520 OA
ATOM     10  C   LIG    1        7.197   4.331  -2.667  0.00  0.00    +0.280 C 
ENDROOT
BRANCH   8  11
ATOM     11  C   LIG    1        6.352   5.125  -7.239  0.00  0.00    +0.000 C 
ATOM     12  C   LIG    1        5.404   6.195  -7.807  0.00  0.00    +0.100 C 
ATOM     13  C   LIG    1        5.080   5.842  -9.273  0.00  0.00    -0.300 C 
ATOM     14  S   LIG    1        6.536   4.910  -9.870  0.00  0.00    +2.390 S 
ATOM     15  O   LIG    1        7.231   5.689 -10.834  0.00  0.00    -0.930 OA
ATOM     16  O   LIG    1        6.148   3.578 -10.179  0.00  0.00    -0.930 OA
ATOM     17  C   LIG    1        7.471   4.919  -8.293  0.00  0.00    -0.290 C 
ENDBRANCH   8  11
BRANCH   2  18
ATOM     18  C   LIG    1        4.045   2.500  -1.468  0.00  0.00    +0.060 C 
BRANCH  18  19
ATOM     19  C   LIG    1        3.616   2.236  -0.024  0.00  0.00    +0.110 C 
BRANCH  19  20
ATOM     20  C   LIG    1        2.311   1.483  -0.017  0.00  0.00    -0.070 A 
ATOM     21  C   LIG    1        1.115   2.175  -0.002  0.00  0.00    +0.040 A 
ATOM     22  C   LIG    1       -0.084   1.486   0.005  0.00  0.00    +0.030 A 
ATOM     23  C   LIG    1       -0.087   0.102  -0.003  0.00  0.00    +0.060 A 
ATOM     24  C   LIG    1        1.113  -0.592  -0.018  0.00  0.00    +0.070 A 
ATOM     25  F   LIG    1        1.113  -1.943  -0.026  0.00  0.00    -0.130 F 
ATOM     26  F   LIG    1       -1.258  -0.571   0.003  0.00  0.00    -0.130 F 
ATOM     27  C   LIG    1        2.311   0.100  -0.025  0.00  0.00    +0.030 A 
ENDBRANCH  19  20
ENDBRANCH  18  19
ENDBRANCH   2  18
TORSDOF 4
