REMARK  Name = ZINCpe000000Vhdl.0
REMARK                            x       y       z     vdW  Elec       q    Type
REMARK                         _______ _______ _______ _____ _____    ______ ____
ROOT
ATOM      1  N   LIG    1        1.390   1.622  -0.029  0.00  0.00    -0.630 NA
ATOM      2  H   LIG    1        1.434   2.568   0.318  0.00  0.00    +0.360 HD
ENDROOT
BRANCH   1   3
ATOM      3  C   LIG    1        2.260   0.733   0.753  0.00  0.00    +0.160 C 
ATOM      4  C   LIG    1        3.458   1.528   1.278  0.00  0.00    +0.030 C 
ATOM      5  C   LIG    1        4.482   0.540   1.849  0.00  0.00    +0.030 C 
ATOM      6  C   LIG    1        5.061  -0.285   0.699  0.00  0.00    +0.260 C 
ATOM      7  N   LIG    1        3.990  -0.848  -0.114  0.00  0.00    -0.520 N 
ATOM      8  C   LIG    1        2.736  -0.393  -0.119  0.00  0.00    +0.530 C 
ATOM      9  O   LIG    1        1.938  -0.916  -0.868  0.00  0.00    -0.520 OA
BRANCH   7  10
ATOM     10  C   LIG    1        4.298  -1.942  -0.946  0.00  0.00    -0.000 A 
ATOM     11  C   LIG    1        5.534  -2.462  -1.157  0.00  0.00    +0.190 A 
ATOM     12  N   LIG    1        5.398  -3.502  -2.020  0.00  0.00    -0.380 N 
ATOM     13  N   LIG    1        4.040  -3.618  -2.344  0.00  0.00    -0.290 NA
ATOM     14  C   LIG    1        6.480  -4.351  -2.523  0.00  0.00    +0.360 C 
ATOM     15  C   LIG    1        3.381  -2.691  -1.698  0.00  0.00    +0.270 A 
ENDBRANCH   7  10
ENDBRANCH   1   3
BRANCH   1  16
ATOM     16  C   LIG    1        0.007   1.128  -0.040  0.00  0.00    +0.230 C 
BRANCH  16  17
ATOM     17  C   LIG    1       -0.711   1.617   1.191  0.00  0.00    +0.430 C 
ATOM     18  O   LIG    1       -0.129   2.306   1.996  0.00  0.00    -0.510 OA
BRANCH  17  20
ATOM     19  C   LIG    1       -2.623   1.793   2.603  0.00  0.00    +0.250 C 
ATOM     20  O   LIG    1       -1.996   1.287   1.395  0.00  0.00    -0.350 OA
ENDBRANCH  17  20
ENDBRANCH  16  17
BRANCH  16  21
ATOM     21  C   LIG    1       -0.710   1.648  -1.288  0.00  0.00    +0.140 C 
BRANCH  21  22
ATOM     22  C   LIG    1       -0.067   1.060  -2.518  0.00  0.00    -0.160 A 
ATOM     23  C   LIG    1       -0.408  -0.089  -3.129  0.00  0.00    +0.160 A 
ATOM     24  O   LIG    1        0.401  -0.262  -4.188  0.00  0.00    -0.180 OA
ATOM     25  C   LIG    1        1.262   0.765  -4.266  0.00  0.00    +0.140 A 
ATOM     26  C   LIG    1        1.005   1.614  -3.255  0.00  0.00    -0.040 A 
ENDBRANCH  21  22
ENDBRANCH  16  21
ENDBRANCH   1  16
TORSDOF 7
