REMARK  Name = ZINCvU00000008B2.0
REMARK                            x       y       z     vdW  Elec       q    Type
REMARK                         _______ _______ _______ _____ _____    ______ ____
ROOT
ATOM      1  C   LIG    1        5.694  -7.006  -0.091  0.00  0.00    +0.280 A 
ATOM      2  C   LIG    1        4.961  -5.815  -0.072  0.00  0.00    -0.010 A 
ATOM      3  C   LIG    1        5.638  -4.601  -0.078  0.00  0.00    -0.010 A 
ATOM      4  C   LIG    1        7.052  -4.630  -0.092  0.00  0.00    -0.180 A 
ATOM      5  C   LIG    1        8.048  -3.630  -0.097  0.00  0.00    +0.290 A 
ATOM      6  N   LIG    1        9.215  -4.208  -0.112  0.00  0.00    -0.230 NA
ATOM      7  N   LIG    1        9.056  -5.598  -0.117  0.00  0.00    -0.380 N 
ATOM      8  C   LIG    1        7.713  -5.874  -0.105  0.00  0.00    +0.320 A 
ATOM      9  N   LIG    1        7.017  -7.002  -0.104  0.00  0.00    -0.480 NA
ENDROOT
BRANCH   1  13
ATOM     10  C   LIG    1        1.996 -10.532  -0.072  0.00  0.00    +0.180 C 
ATOM     11  C   LIG    1        3.333  -9.836  -0.082  0.00  0.00    -0.000 A 
ATOM     12  C   LIG    1        3.519  -8.506  -0.071  0.00  0.00    -0.030 A 
ATOM     13  C   LIG    1        4.973  -8.301  -0.091  0.00  0.00    -0.170 A 
ATOM     14  C   LIG    1        5.521  -9.545  -0.103  0.00  0.00    +0.070 A 
ATOM     15  C   LIG    1        6.994  -9.859  -0.120  0.00  0.00    +0.200 C 
ATOM     16  O   LIG    1        4.528 -10.446  -0.098  0.00  0.00    -0.180 OA
ENDBRANCH   1  13
BRANCH   3  17
ATOM     17  C   LIG    1        4.902  -3.319  -0.063  0.00  0.00    +0.580 C 
ATOM     18  N   LIG    1        3.554  -3.315  -0.050  0.00  0.00    -0.620 N 
ATOM     19  H   LIG    1        3.067  -4.154  -0.050  0.00  0.00    +0.440 HD
ATOM     20  O   LIG    1        5.512  -2.268  -0.064  0.00  0.00    -0.510 OA
BRANCH  18  21
ATOM     21  C   LIG    1        2.866  -2.115  -0.037  0.00  0.00    +0.510 A 
ATOM     22  N   LIG    1        1.562  -1.997  -0.024  0.00  0.00    -0.510 NA
ATOM     23  C   LIG    1        1.224  -0.681  -0.013  0.00  0.00    +0.070 A 
ATOM     24  C   LIG    1        0.002  -0.004   0.002  0.00  0.00    +0.060 A 
ATOM     25  C   LIG    1       -0.017   1.373   0.010  0.00  0.00    +0.010 A 
ATOM     26  C   LIG    1        1.169   2.093   0.002  0.00  0.00    +0.030 A 
ATOM     27  C   LIG    1        2.384   1.439  -0.012  0.00  0.00    +0.010 A 
ATOM     28  C   LIG    1        2.422   0.053  -0.021  0.00  0.00    +0.050 A 
ATOM     29  N   LIG    1        3.445  -0.879  -0.035  0.00  0.00    -0.590 N 
ATOM     30  H   LIG    1        4.396  -0.689  -0.044  0.00  0.00    +0.440 HD
ENDBRANCH  18  21
ENDBRANCH   3  17
BRANCH   7  31
ATOM     31  C   LIG    1       10.136  -6.588  -0.133  0.00  0.00    +0.270 C 
ATOM     32  C   LIG    1       11.011  -6.407   1.109  0.00  0.00    +0.050 C 
ATOM     33  C   LIG    1       10.987  -6.393  -1.390  0.00  0.00    +0.050 C 
ENDBRANCH   7  31
TORSDOF 4
