REMARK  Name = ZINCtj000000pQCw.1
REMARK                            x       y       z     vdW  Elec       q    Type
REMARK                         _______ _______ _______ _____ _____    ______ ____
ROOT
ATOM      1  C   LIG    1       -2.706   2.941   4.743  0.00  0.00    +0.570 C 
ATOM      2  N   LIG    1       -2.293   4.069   5.354  0.00  0.00    -0.620 N 
ATOM      3  C   LIG    1       -1.226   4.896   4.772  0.00  0.00    +0.310 C 
ATOM      4  C   LIG    1       -1.724   6.349   4.703  0.00  0.00    +0.230 C 
ATOM      5  N   LIG    1       -2.179   6.769   6.035  0.00  0.00    -0.450 NA
ATOM      6  C   LIG    1       -3.324   5.967   6.485  0.00  0.00    +0.230 C 
ATOM      7  C   LIG    1       -2.895   4.503   6.625  0.00  0.00    +0.310 C 
ATOM      8  O   LIG    1       -3.655   2.324   5.184  0.00  0.00    -0.520 OA
ENDROOT
BRANCH   5   9
ATOM      9  C   LIG    1       -2.481   8.121   6.053  0.00  0.00    +0.460 C 
ATOM     10  C   LIG    1       -1.530   9.065   5.661  0.00  0.00    -0.050 C 
ATOM     11  C   LIG    1       -1.875  10.402   5.694  0.00  0.00    +0.430 C 
ATOM     12  N   LIG    1       -3.090  10.748   6.094  0.00  0.00    -0.570 NA
ATOM     13  C   LIG    1       -3.973   9.830   6.460  0.00  0.00    +0.630 C 
ATOM     14  H   LIG    1       -3.336  11.685   6.119  0.00  0.00    +0.440 HD
ATOM     15  N   LIG    1       -3.683   8.538   6.438  0.00  0.00    -0.560 NA
BRANCH  13  16
ATOM     16  N   LIG    1       -5.232  10.232   6.871  0.00  0.00    -0.560 NA
ATOM     17  C   LIG    1       -6.223   9.233   7.279  0.00  0.00    +0.350 C 
ATOM     18  C   LIG    1       -5.575  11.656   6.897  0.00  0.00    +0.340 C 
ENDBRANCH  13  16
ENDBRANCH   5   9
BRANCH   1  22
ATOM     19  C   LIG    1       -0.686   1.545   1.277  0.00  0.00    -0.080 A 
ATOM     20  C   LIG    1        0.039   2.072   2.331  0.00  0.00    +0.040 A 
ATOM     21  C   LIG    1       -0.611   2.532   3.458  0.00  0.00    +0.030 A 
ATOM     22  C   LIG    1       -2.003   2.455   3.537  0.00  0.00    -0.130 A 
ATOM     23  C   LIG    1       -2.728   1.917   2.472  0.00  0.00    +0.080 A 
ATOM     24  C   LIG    1       -2.065   1.466   1.349  0.00  0.00    +0.040 A 
BRANCH  19  25
ATOM     25  C   LIG    1        0.031   1.049   0.047  0.00  0.00    +0.310 C 
BRANCH  25  27
ATOM     26  C   LIG    1        0.773   1.933  -2.099  0.00  0.00    +0.540 C 
ATOM     27  N   LIG    1        0.161   2.145  -0.917  0.00  0.00    -0.730 N 
ATOM     28  H   LIG    1       -0.193   3.022  -0.704  0.00  0.00    +0.400 HD
ATOM     29  O   LIG    1        1.217   0.832  -2.365  0.00  0.00    -0.540 OA
BRANCH  26  31
ATOM     30  C   LIG    1        1.508   2.824  -4.233  0.00  0.00    +0.160 C 
ATOM     31  C   LIG    1        0.904   3.033  -3.067  0.00  0.00    -0.090 C 
ENDBRANCH  26  31
ENDBRANCH  25  27
ENDBRANCH  19  25
ENDBRANCH   1  22
TORSDOF 6
