REMARK  Name = ZINCqH0000002iVm.0
REMARK                            x       y       z     vdW  Elec       q    Type
REMARK                         _______ _______ _______ _____ _____    ______ ____
ROOT
ATOM      1  C   LIG    1       -0.128   0.907   2.532  0.00  0.00    +0.200 A 
ATOM      2  N   LIG    1        0.500   1.533   3.496  0.00  0.00    -0.460 NA
ATOM      3  C   LIG    1        0.727   0.599   4.447  0.00  0.00    +0.210 A 
ATOM      4  N   LIG    1        0.235  -0.530   4.005  0.00  0.00    -0.330 NA
ATOM      5  O   LIG    1       -0.258  -0.368   2.909  0.00  0.00    +0.100 OA
ENDROOT
BRANCH   1  12
ATOM      6  C   LIG    1       -2.788   1.091   2.270  0.00  0.00    +0.520 C 
ATOM      7  N   LIG    1       -2.077   1.482   1.194  0.00  0.00    -0.610 N 
ATOM      8  C   LIG    1       -2.756   1.888  -0.045  0.00  0.00    +0.280 C 
ATOM      9  C   LIG    1       -2.188   1.070  -1.209  0.00  0.00    +0.010 C 
ATOM     10  C   LIG    1       -0.666   1.230  -1.244  0.00  0.00    +0.030 C 
ATOM     11  C   LIG    1       -0.065   0.698   0.058  0.00  0.00    +0.040 C 
ATOM     12  C   LIG    1       -0.608   1.511   1.237  0.00  0.00    +0.360 C 
ATOM     13  O   LIG    1       -2.217   0.668   3.253  0.00  0.00    -0.520 OA
BRANCH   6  14
ATOM     14  C   LIG    1       -4.293   1.178   2.251  0.00  0.00    +0.070 C 
BRANCH  14  16
ATOM     15  C   LIG    1       -6.376   0.764   3.566  0.00  0.00    +0.030 C 
ATOM     16  C   LIG    1       -4.849   0.675   3.585  0.00  0.00    +0.030 C 
ENDBRANCH  14  16
ENDBRANCH   6  14
ENDBRANCH   1  12
BRANCH   3  17
ATOM     17  C   LIG    1        1.412   0.812   5.746  0.00  0.00    +0.170 A 
ATOM     18  N   LIG    1        1.863   2.019   6.062  0.00  0.00    -0.410 NA
ATOM     19  C   LIG    1        2.475   2.251   7.204  0.00  0.00    +0.230 A 
ATOM     20  C   LIG    1        2.674   1.238   8.126  0.00  0.00    +0.020 A 
ATOM     21  C   LIG    1        2.220  -0.040   7.841  0.00  0.00    -0.020 A 
ATOM     22  C   LIG    1        1.571  -0.258   6.631  0.00  0.00    +0.120 A 
BRANCH  22  23
ATOM     23  O   LIG    1        1.105  -1.492   6.311  0.00  0.00    -0.280 OA
BRANCH  23  24
ATOM     24  C   LIG    1        1.248  -2.516   7.298  0.00  0.00    +0.140 C 
ATOM     25  C   LIG    1        1.230  -3.886   6.618  0.00  0.00    +0.070 C 
ATOM     26  C   LIG    1        0.093  -2.426   8.297  0.00  0.00    +0.030 C 
ENDBRANCH  23  24
ENDBRANCH  22  23
ENDBRANCH   3  17
TORSDOF 6
