REMARK  Name = ZINCb70000003YPP.0
REMARK                            x       y       z     vdW  Elec       q    Type
REMARK                         _______ _______ _______ _____ _____    ______ ____
ROOT
ATOM      1  C   LIG    1        1.375   0.716  -2.260  0.00  0.00    +0.110 C 
ATOM      2  C   LIG    1       -0.110   0.996  -2.499  0.00  0.00    -0.520 C 
ATOM      3  C   LIG    1       -0.753   1.593  -1.232  0.00  0.00    +0.010 C 
ATOM      4  C   LIG    1       -0.653   3.127  -1.303  0.00  0.00    +0.060 C 
ATOM      5  C   LIG    1       -1.121   3.536  -2.723  0.00  0.00    -0.290 C 
ATOM      6  C   LIG    1       -0.833  -0.289  -2.907  0.00  0.00    +0.110 C 
ATOM      7  S   LIG    1       -0.315   2.279  -3.786  0.00  0.00    +2.390 S 
ATOM      8  O   LIG    1       -1.239   1.823  -4.764  0.00  0.00    -0.910 OA
ATOM      9  O   LIG    1        0.964   2.752  -4.188  0.00  0.00    -0.910 OA
ENDROOT
BRANCH   3  10
ATOM     10  C   LIG    1       -0.013   1.086   0.008  0.00  0.00    +0.290 C 
BRANCH  10  11
ATOM     11  N   LIG    1       -0.700   1.560   1.217  0.00  0.00    -0.640 N 
ATOM     12  H   LIG    1       -0.714   2.568   1.222  0.00  0.00    +0.430 HD
ATOM     13  H   LIG    1       -0.212   1.225   2.034  0.00  0.00    +0.440 HD
ATOM     14  H   LIG    1       -1.647   1.210   1.224  0.00  0.00    +0.440 HD
ENDBRANCH  10  11
ENDBRANCH   3  10
TORSDOF 2
