REMARK  Name = ZINCrH000004srb4.0
REMARK                            x       y       z     vdW  Elec       q    Type
REMARK                         _______ _______ _______ _____ _____    ______ ____
ROOT
ATOM      1  C   LIG    1       -2.966   2.812  -1.157  0.00  0.00    +0.110 C 
ATOM      2  C   LIG    1       -2.149   1.526  -1.307  0.00  0.00    +0.040 C 
ATOM      3  C   LIG    1       -0.992   1.542  -0.304  0.00  0.00    +0.280 C 
ATOM      4  N   LIG    1       -1.533   1.758   1.044  0.00  0.00    -0.610 N 
ATOM      5  C   LIG    1       -2.409   2.916   1.276  0.00  0.00    +0.290 C 
ATOM      6  C   LIG    1       -1.235   0.910   2.049  0.00  0.00    +0.520 C 
ATOM      7  O   LIG    1       -0.594  -0.094   1.824  0.00  0.00    -0.540 OA
ATOM      8  C   LIG    1       -3.551   2.885   0.255  0.00  0.00    +0.020 C 
ENDROOT
BRANCH   1  14
ATOM      9  C   LIG    1       -5.585   3.679  -5.340  0.00  0.00    +0.140 C 
ATOM     10  C   LIG    1       -5.220   3.185  -3.964  0.00  0.00    +0.000 A 
ATOM     11  C   LIG    1       -6.013   2.469  -3.144  0.00  0.00    -0.030 A 
ATOM     12  N   LIG    1       -5.293   2.235  -2.003  0.00  0.00    -0.560 N 
ATOM     13  H   LIG    1       -5.595   1.743  -1.224  0.00  0.00    +0.420 HD
ATOM     14  C   LIG    1       -4.085   2.816  -2.166  0.00  0.00    +0.220 A 
ATOM     15  C   LIG    1       -7.421   2.013  -3.428  0.00  0.00    +0.130 C 
ATOM     16  N   LIG    1       -4.051   3.387  -3.339  0.00  0.00    -0.480 NA
ENDBRANCH   1  14
BRANCH   6  17
ATOM     17  C   LIG    1       -1.699   1.211   3.451  0.00  0.00    +0.000 C 
ATOM     18  C   LIG    1       -0.750   2.222   4.096  0.00  0.00    +0.050 C 
BRANCH  17  19
ATOM     19  C   LIG    1       -1.706  -0.080   4.273  0.00  0.00    +0.060 C 
BRANCH  19  20
ATOM     20  C   LIG    1       -2.285   0.196   5.636  0.00  0.00    +0.400 C 
ATOM     21  O   LIG    1       -2.656   1.315   5.922  0.00  0.00    -0.440 OA
BRANCH  20  22
ATOM     22  C   LIG    1       -2.400  -0.890   6.620  0.00  0.00    -0.210 A 
ATOM     23  C   LIG    1       -1.974  -2.182   6.294  0.00  0.00    +0.100 A 
ATOM     24  C   LIG    1       -2.085  -3.195   7.221  0.00  0.00    +0.000 A 
ATOM     25  C   LIG    1       -2.618  -2.939   8.473  0.00  0.00    +0.080 A 
ATOM     26  C   LIG    1       -3.042  -1.666   8.806  0.00  0.00    -0.030 A 
ATOM     27  C   LIG    1       -2.933  -0.636   7.891  0.00  0.00    +0.160 A 
ATOM     28  F   LIG    1       -3.343   0.608   8.218  0.00  0.00    -0.120 F 
ENDBRANCH  20  22
ENDBRANCH  19  20
ENDBRANCH  17  19
ENDBRANCH   6  17
TORSDOF 5
