REMARK  Name = ZINCqH0000005nNN.1
REMARK                            x       y       z     vdW  Elec       q    Type
REMARK                         _______ _______ _______ _____ _____    ______ ____
ROOT
ATOM      1  C   LIG    1        1.169   1.791   0.017  0.00  0.00    +0.090 A 
ATOM      2  C   LIG    1       -0.026   1.087   0.034  0.00  0.00    +0.010 A 
ATOM      3  C   LIG    1       -1.229   1.768   0.046  0.00  0.00    +0.070 A 
ATOM      4  C   LIG    1       -1.246   3.150   0.052  0.00  0.00    -0.170 A 
ATOM      5  C   LIG    1       -0.059   3.860   0.036  0.00  0.00    +0.090 A 
ATOM      6  C   LIG    1        1.152   3.186   0.018  0.00  0.00    +0.170 A 
ENDROOT
BRANCH   1  11
ATOM      7  C   LIG    1        5.326  -1.929  -0.084  0.00  0.00    +0.190 C 
ATOM      8  N   LIG    1        4.046  -1.208  -0.065  0.00  0.00    -0.550 NA
ATOM      9  C   LIG    1        3.903  -0.422   1.168  0.00  0.00    +0.180 C 
ATOM     10  C   LIG    1        2.527   0.248   1.185  0.00  0.00    +0.190 C 
ATOM     11  N   LIG    1        2.388   1.105  -0.001  0.00  0.00    -0.510 N 
ATOM     12  C   LIG    1        2.531   0.319  -1.234  0.00  0.00    +0.190 C 
ATOM     13  C   LIG    1        3.907  -0.352  -1.251  0.00  0.00    +0.180 C 
ENDBRANCH   1  11
BRANCH   4  14
ATOM     14  C   LIG    1       -2.561   3.885   0.072  0.00  0.00    +0.510 C 
ATOM     15  F   LIG    1       -2.402   5.110   0.730  0.00  0.00    -0.170 F 
ATOM     16  F   LIG    1       -3.516   3.115   0.744  0.00  0.00    -0.180 F 
ATOM     17  F   LIG    1       -2.987   4.114  -1.241  0.00  0.00    -0.170 F 
ENDBRANCH   4  14
BRANCH   6  18
ATOM     18  N   LIG    1        2.355   3.904   0.000  0.00  0.00    -0.660 N 
ATOM     19  H   LIG    1        3.133   3.558   0.466  0.00  0.00    +0.420 HD
ATOM     20  C   LIG    1        2.433   5.074  -0.664  0.00  0.00    +0.520 C 
ATOM     21  O   LIG    1        1.440   5.546  -1.179  0.00  0.00    -0.520 OA
BRANCH  20  22
ATOM     22  C   LIG    1        3.751   5.796  -0.768  0.00  0.00    +0.000 C 
ATOM     23  C   LIG    1        4.258   6.144   0.633  0.00  0.00    +0.080 C 
ATOM     24  C   LIG    1        5.423   7.086   0.541  0.00  0.00    -0.050 C 
ATOM     25  C   LIG    1        5.718   7.774  -0.514  0.00  0.00    -0.040 C 
ATOM     26  C   LIG    1        4.942   7.720  -1.798  0.00  0.00    +0.070 C 
ATOM     27  C   LIG    1        3.566   7.097  -1.559  0.00  0.00    +0.050 C 
ENDBRANCH  20  22
ENDBRANCH   6  18
TORSDOF 4
