REMARK  Name = ZINCpk00000y6yZX.0
REMARK                            x       y       z     vdW  Elec       q    Type
REMARK                         _______ _______ _______ _____ _____    ______ ____
ROOT
ATOM      1  N   LIG    1       -2.852   1.610   0.036  0.00  0.00    -0.530 NA
ATOM      2  C   LIG    1       -2.207   1.109  -1.184  0.00  0.00    +0.190 C 
ATOM      3  C   LIG    1       -0.756   1.594  -1.230  0.00  0.00    +0.050 C 
ATOM      4  C   LIG    1       -0.013   1.086   0.008  0.00  0.00    -0.030 C 
ATOM      5  C   LIG    1       -0.732   1.581   1.266  0.00  0.00    +0.030 C 
ATOM      6  C   LIG    1       -2.185   1.096   1.239  0.00  0.00    +0.160 C 
ENDROOT
BRANCH   1   7
ATOM      7  C   LIG    1       -4.284   1.280   0.048  0.00  0.00    +0.310 C 
BRANCH   7  17
ATOM      8  C   LIG    1       -4.447  -0.680   2.433  0.00  0.00    +0.330 C 
ATOM      9  N   LIG    1       -4.920   0.706   2.442  0.00  0.00    -0.490 N 
ATOM     10  C   LIG    1       -5.509   1.363   3.505  0.00  0.00    +0.050 A 
ATOM     11  C   LIG    1       -5.834   1.001   4.804  0.00  0.00    +0.010 A 
ATOM     12  C   LIG    1       -6.439   1.918   5.637  0.00  0.00    +0.030 A 
ATOM     13  C   LIG    1       -6.725   3.198   5.185  0.00  0.00    +0.000 A 
ATOM     14  C   LIG    1       -6.411   3.572   3.908  0.00  0.00    +0.070 A 
ATOM     15  C   LIG    1       -5.798   2.660   3.047  0.00  0.00    +0.040 A 
ATOM     16  N   LIG    1       -5.375   2.727   1.758  0.00  0.00    -0.470 NA
ATOM     17  C   LIG    1       -4.859   1.585   1.406  0.00  0.00    +0.280 A 
ENDBRANCH   7  17
ENDBRANCH   1   7
BRANCH   4  18
ATOM     18  C   LIG    1        1.422   1.617  -0.003  0.00  0.00    +0.230 C 
BRANCH  18  19
ATOM     19  C   LIG    1        2.187   1.020   1.151  0.00  0.00    +0.490 C 
ATOM     20  N   LIG    1        2.422  -0.306   1.190  0.00  0.00    -0.700 N 
ATOM     21  H   LIG    1        2.098  -0.877   0.475  0.00  0.00    +0.400 HD
ATOM     22  O   LIG    1        2.591   1.734   2.044  0.00  0.00    -0.530 OA
BRANCH  20  23
ATOM     23  C   LIG    1        3.166  -0.886   2.311  0.00  0.00    +0.220 C 
ATOM     24  C   LIG    1        4.238  -1.927   1.984  0.00  0.00    +0.010 C 
ATOM     25  C   LIG    1        2.921  -2.361   2.633  0.00  0.00    +0.010 C 
ENDBRANCH  20  23
ENDBRANCH  18  19
BRANCH  18  26
ATOM     26  O   LIG    1        1.404   3.040   0.122  0.00  0.00    -0.530 OA
ATOM     27  H   LIG    1        0.989   3.358   0.935  0.00  0.00    +0.380 HD
ENDBRANCH  18  26
ENDBRANCH   4  18
TORSDOF 6
