REMARK  Name = ZINCrH000004nyaB.0
REMARK                            x       y       z     vdW  Elec       q    Type
REMARK                         _______ _______ _______ _____ _____    ______ ____
ROOT
ATOM      1  C   LIG    1        4.860   4.189   0.070  0.00  0.00    +0.180 A 
ATOM      2  C   LIG    1        6.048   3.469   0.053  0.00  0.00    +0.040 A 
ATOM      3  C   LIG    1        7.257   4.132   0.133  0.00  0.00    +0.050 A 
ATOM      4  C   LIG    1        7.285   5.515   0.238  0.00  0.00    +0.040 A 
ATOM      5  C   LIG    1        6.098   6.233   0.260  0.00  0.00    +0.080 A 
ATOM      6  C   LIG    1        4.889   5.573   0.176  0.00  0.00    +0.010 A 
ENDROOT
BRANCH   1   8
ATOM      7  C   LIG    1        3.531   2.390  -0.745  0.00  0.00    +0.560 C 
ATOM      8  N   LIG    1        3.634   3.518  -0.015  0.00  0.00    -0.670 N 
ATOM      9  H   LIG    1        2.858   3.865   0.452  0.00  0.00    +0.410 HD
ATOM     10  O   LIG    1        4.476   2.007  -1.408  0.00  0.00    -0.490 OA
BRANCH   7  16
ATOM     11  C   LIG    1        2.163   0.446  -1.499  0.00  0.00    +0.190 A 
ATOM     12  C   LIG    1        0.975  -0.270  -1.487  0.00  0.00    -0.080 A 
ATOM     13  C   LIG    1       -0.093   0.172  -0.732  0.00  0.00    +0.090 A 
ATOM     14  C   LIG    1        0.013   1.331   0.019  0.00  0.00    -0.040 A 
ATOM     15  C   LIG    1        1.185   2.055   0.019  0.00  0.00    +0.080 A 
ATOM     16  C   LIG    1        2.273   1.620  -0.741  0.00  0.00    -0.180 A 
BRANCH  11  18
ATOM     17  C   LIG    1        3.026  -1.191  -2.988  0.00  0.00    +0.250 C 
ATOM     18  O   LIG    1        3.212   0.013  -2.241  0.00  0.00    -0.280 OA
ENDBRANCH  11  18
ENDBRANCH   7  16
ENDBRANCH   1   8
BRANCH   4  19
ATOM     19  O   LIG    1        8.476   6.166   0.321  0.00  0.00    -0.650 OA
BRANCH  19  20
ATOM     20  S   LIG    1        8.979   6.356   1.745  0.00  0.00    +2.680 S 
ATOM     21  O   LIG    1        7.837   6.650   2.538  0.00  0.00    -0.950 OA
ATOM     22  O   LIG    1       10.108   7.215   1.660  0.00  0.00    -0.930 OA
BRANCH  20  23
ATOM     23  C   LIG    1        9.581   4.796   2.299  0.00  0.00    -0.700 A 
ATOM     24  C   LIG    1        8.732   3.916   2.942  0.00  0.00    +0.120 A 
ATOM     25  C   LIG    1        9.203   2.689   3.372  0.00  0.00    -0.010 A 
ATOM     26  C   LIG    1       10.527   2.348   3.168  0.00  0.00    +0.070 A 
ATOM     27  C   LIG    1       11.378   3.231   2.530  0.00  0.00    +0.000 A 
ATOM     28  C   LIG    1       10.905   4.455   2.095  0.00  0.00    +0.120 A 
ENDBRANCH  20  23
ENDBRANCH  19  20
ENDBRANCH   4  19
TORSDOF 6
