REMARK  Name = ZINCpe00000gLUb7.0
REMARK                            x       y       z     vdW  Elec       q    Type
REMARK                         _______ _______ _______ _____ _____    ______ ____
ROOT
ATOM      1  C   LIG    1        1.259  -0.681  -0.016  0.00  0.00    -0.280 C 
ATOM      2  C   LIG    1        0.050  -0.080   0.019  0.00  0.00    +0.260 C 
ATOM      3  N   LIG    1       -0.060   1.282   0.029  0.00  0.00    -0.640 N 
ATOM      4  H   LIG    1       -0.949   1.669   0.049  0.00  0.00    +0.440 HD
ATOM      5  C   LIG    1        0.990   2.112   0.006  0.00  0.00    +0.710 C 
ATOM      6  N   LIG    1        2.260   1.661  -0.028  0.00  0.00    -0.720 N 
ATOM      7  H   LIG    1        3.006   2.280  -0.044  0.00  0.00    +0.430 HD
ATOM      8  O   LIG    1        0.792   3.311   0.017  0.00  0.00    -0.560 OA
ATOM      9  C   LIG    1        2.487   0.206  -0.042  0.00  0.00    +0.330 C 
ENDROOT
BRANCH   1  10
ATOM     10  C   LIG    1        1.374  -2.091  -0.026  0.00  0.00    +0.530 C 
ATOM     11  O   LIG    1        0.376  -2.782  -0.108  0.00  0.00    -0.520 OA
BRANCH  10  12
ATOM     12  O   LIG    1        2.591  -2.668   0.055  0.00  0.00    -0.350 OA
BRANCH  12  14
ATOM     13  C   LIG    1        4.086  -4.565   0.138  0.00  0.00    +0.070 C 
ATOM     14  C   LIG    1        2.633  -4.097   0.039  0.00  0.00    +0.200 C 
ENDBRANCH  12  14
ENDBRANCH  10  12
ENDBRANCH   1  10
BRANCH   2  15
ATOM     15  C   LIG    1       -1.198  -0.924   0.046  0.00  0.00    +0.360 C 
BRANCH  15  16
ATOM     16  O   LIG    1       -2.360  -0.067   0.193  0.00  0.00    -0.360 OA
BRANCH  16  17
ATOM     17  C   LIG    1       -3.564  -0.670   0.235  0.00  0.00    +0.570 C 
ATOM     18  O   LIG    1       -3.641  -1.880   0.151  0.00  0.00    -0.480 OA
BRANCH  17  19
ATOM     19  C   LIG    1       -4.787   0.137   0.384  0.00  0.00    +0.000 A 
ATOM     20  N   LIG    1       -4.861   1.447   0.485  0.00  0.00    -0.170 NA
ATOM     21  N   LIG    1       -6.073   1.852   0.603  0.00  0.00    -0.400 N 
ATOM     22  H   LIG    1       -6.333   2.783   0.691  0.00  0.00    +0.450 HD
ATOM     23  C   LIG    1       -6.952   0.801   0.589  0.00  0.00    +0.060 A 
ATOM     24  C   LIG    1       -8.335   0.681   0.680  0.00  0.00    +0.010 A 
ATOM     25  C   LIG    1       -8.917  -0.566   0.615  0.00  0.00    +0.060 A 
ATOM     26  C   LIG    1       -8.138  -1.706   0.471  0.00  0.00    +0.000 A 
ATOM     27  C   LIG    1       -6.776  -1.611   0.384  0.00  0.00    +0.090 A 
ATOM     28  C   LIG    1       -6.169  -0.360   0.440  0.00  0.00    -0.100 A 
ENDBRANCH  17  19
ENDBRANCH  16  17
ENDBRANCH  15  16
ENDBRANCH   2  15
TORSDOF 7
