REMARK  Name = ZINCrg000000smUp.0
REMARK                            x       y       z     vdW  Elec       q    Type
REMARK                         _______ _______ _______ _____ _____    ______ ____
ROOT
ATOM      1  N   LIG    1        2.409   1.892  -0.010  0.00  0.00    -0.430 N 
ATOM      2  C   LIG    1        2.715   0.999   1.115  0.00  0.00    +0.200 C 
ATOM      3  C   LIG    1        4.141   0.461   0.963  0.00  0.00    +0.310 C 
ATOM      4  N   LIG    1        5.057   1.601   0.808  0.00  0.00    -0.610 N 
ATOM      5  C   LIG    1        4.740   2.614  -0.211  0.00  0.00    +0.320 C 
ATOM      6  C   LIG    1        6.157   1.716   1.578  0.00  0.00    +0.540 C 
ATOM      7  O   LIG    1        6.901   2.663   1.436  0.00  0.00    -0.520 OA
ATOM      8  C   LIG    1        3.290   3.067  -0.013  0.00  0.00    +0.210 C 
ENDROOT
BRANCH   1  13
ATOM      9  C   LIG    1       -1.660   4.658   0.043  0.00  0.00    +0.240 C 
ATOM     10  C   LIG    1       -0.739   3.466   0.028  0.00  0.00    +0.210 A 
ATOM     11  N   LIG    1       -1.122   2.226   0.019  0.00  0.00    -0.430 NA
ATOM     12  C   LIG    1       -0.017   1.428   0.010  0.00  0.00    +0.020 A 
ATOM     13  C   LIG    1        1.082   2.269   0.004  0.00  0.00    +0.220 A 
ATOM     14  O   LIG    1        0.603   3.526   0.015  0.00  0.00    -0.210 OA
BRANCH  12  15
ATOM     15  C   LIG    1        0.002  -0.004   0.002  0.00  0.00    +0.300 C 
ATOM     16  N   LIG    1        0.018  -1.140  -0.004  0.00  0.00    -0.390 NA
ENDBRANCH  12  15
ENDBRANCH   1  13
BRANCH   6  17
ATOM     17  C   LIG    1        6.462   0.666   2.616  0.00  0.00    +0.090 C 
BRANCH  17  18
ATOM     18  S   LIG    1        7.993   1.099   3.479  0.00  0.00    +0.120 S 
BRANCH  18  19
ATOM     19  C   LIG    1        8.106  -0.256   4.600  0.00  0.00    +0.190 A 
ATOM     20  N   LIG    1        7.256  -1.254   4.707  0.00  0.00    -0.340 NA
ATOM     21  N   LIG    1        7.637  -2.073   5.620  0.00  0.00    -0.030 NA
ATOM     22  N   LIG    1        8.732  -1.663   6.161  0.00  0.00    -0.070 NA
ATOM     23  N   LIG    1        9.080  -0.463   5.517  0.00  0.00    -0.350 N 
BRANCH  23  24
ATOM     24  C   LIG    1       10.247   0.383   5.781  0.00  0.00    +0.170 C 
ATOM     25  C   LIG    1       11.097   0.490   4.513  0.00  0.00    +0.070 C 
ATOM     26  C   LIG    1       11.082  -0.236   6.904  0.00  0.00    +0.080 C 
ATOM     27  C   LIG    1        9.781   1.778   6.201  0.00  0.00    +0.070 C 
ENDBRANCH  23  24
ENDBRANCH  18  19
ENDBRANCH  17  18
ENDBRANCH   6  17
TORSDOF 6
