REMARK  Name = ZINCvU0000000Etw.0
REMARK                            x       y       z     vdW  Elec       q    Type
REMARK                         _______ _______ _______ _____ _____    ______ ____
ROOT
ATOM      1  C   LIG    1        0.429   1.284   5.211  0.00  0.00    +0.160 A 
ATOM      2  N   LIG    1        1.536   0.599   5.031  0.00  0.00    -0.280 NA
ATOM      3  N   LIG    1        2.001   0.204   6.162  0.00  0.00    -0.260 NA
ATOM      4  C   LIG    1        1.216   0.604   7.136  0.00  0.00    +0.240 A 
ATOM      5  N   LIG    1        0.183   1.309   6.557  0.00  0.00    -0.410 N 
ENDROOT
BRANCH   4   6
ATOM      6  C   LIG    1        1.405   0.347   8.579  0.00  0.00    -0.080 A 
ATOM      7  C   LIG    1        0.339   0.499   9.474  0.00  0.00    +0.080 A 
ATOM      8  C   LIG    1        0.568   0.246  10.815  0.00  0.00    -0.030 A 
ATOM      9  C   LIG    1        1.830  -0.145  11.224  0.00  0.00    +0.280 A 
ATOM     10  N   LIG    1        2.816  -0.281  10.358  0.00  0.00    -0.480 NA
ATOM     11  C   LIG    1        2.647  -0.057   9.071  0.00  0.00    +0.320 A 
ENDBRANCH   4   6
BRANCH   5  12
ATOM     12  C   LIG    1       -0.894   1.924   7.211  0.00  0.00    +0.090 A 
ATOM     13  C   LIG    1       -0.675   3.027   8.025  0.00  0.00    +0.030 A 
ATOM     14  C   LIG    1       -1.739   3.633   8.664  0.00  0.00    +0.040 A 
ATOM     15  C   LIG    1       -3.019   3.137   8.502  0.00  0.00    +0.040 A 
ATOM     16  C   LIG    1       -3.239   2.035   7.695  0.00  0.00    +0.040 A 
ATOM     17  C   LIG    1       -2.180   1.428   7.049  0.00  0.00    +0.030 A 
ENDBRANCH   5  12
BRANCH   1  18
ATOM     18  S   LIG    1       -0.558   2.025   3.954  0.00  0.00    +0.060 S 
BRANCH  18  19
ATOM     19  C   LIG    1        0.400   1.563   2.489  0.00  0.00    +0.070 C 
BRANCH  19  20
ATOM     20  C   LIG    1       -0.286   2.114   1.237  0.00  0.00    +0.250 C 
BRANCH  20  21
ATOM     21  O   LIG    1       -1.603   1.569   1.136  0.00  0.00    -0.540 OA
ATOM     22  H   LIG    1       -1.625   0.604   1.073  0.00  0.00    +0.380 HD
ENDBRANCH  20  21
BRANCH  20  23
ATOM     23  C   LIG    1        0.524   1.724  -0.001  0.00  0.00    +0.190 C 
BRANCH  23  24
ATOM     24  O   LIG    1       -0.051   2.335  -1.158  0.00  0.00    -0.280 OA
BRANCH  24  25
ATOM     25  C   LIG    1        0.553   2.088  -2.350  0.00  0.00    +0.150 A 
ATOM     26  C   LIG    1        1.679   1.280  -2.405  0.00  0.00    -0.040 A 
ATOM     27  C   LIG    1        2.289   1.027  -3.620  0.00  0.00    +0.010 A 
ATOM     28  C   LIG    1        1.783   1.588  -4.779  0.00  0.00    +0.010 A 
ATOM     29  C   LIG    1        0.664   2.398  -4.726  0.00  0.00    +0.090 A 
ATOM     30 CL   LIG    1        3.694   0.010  -3.689  0.00  0.00    -0.050 Cl
ATOM     31  C   LIG    1        0.048   2.650  -3.515  0.00  0.00    -0.070 A 
ATOM     32 CL   LIG    1       -1.357   3.668  -3.450  0.00  0.00    -0.040 Cl
ENDBRANCH  24  25
ENDBRANCH  23  24
ENDBRANCH  20  23
ENDBRANCH  19  20
ENDBRANCH  18  19
ENDBRANCH   1  18
TORSDOF 9
