REMARK  Name = ZINCpk00000y6wQM.0
REMARK                            x       y       z     vdW  Elec       q    Type
REMARK                         _______ _______ _______ _____ _____    ______ ____
ROOT
ATOM      1  N   LIG    1       -6.357   2.121   1.506  0.00  0.00    -0.490 NA
ATOM      2  C   LIG    1       -5.766   3.468   1.655  0.00  0.00    +0.170 C 
ATOM      3  C   LIG    1       -5.842   3.832   3.150  0.00  0.00    +0.170 C 
ATOM      4  C   LIG    1       -6.479   2.600   3.833  0.00  0.00    +0.200 C 
ATOM      5  C   LIG    1       -6.194   1.458   2.825  0.00  0.00    +0.180 C 
ENDROOT
BRANCH   3   6
ATOM      6  O   LIG    1       -6.665   4.985   3.338  0.00  0.00    -0.560 OA
ATOM      7  H   LIG    1       -6.337   5.779   2.894  0.00  0.00    +0.380 HD
ENDBRANCH   3   6
BRANCH   1   8
ATOM      8  C   LIG    1       -5.677   1.362   0.448  0.00  0.00    +0.330 C 
BRANCH   8  11
ATOM      9  N   LIG    1       -2.103   1.072   1.277  0.00  0.00    -0.400 N 
ATOM     10  N   LIG    1       -3.212   1.723   0.727  0.00  0.00    -0.240 NA
ATOM     11  C   LIG    1       -4.285   1.005   0.902  0.00  0.00    +0.060 A 
ATOM     12  C   LIG    1       -3.898  -0.205   1.620  0.00  0.00    -0.170 A 
ATOM     13  C   LIG    1       -4.597  -1.325   2.086  0.00  0.00    +0.090 A 
ATOM     14  C   LIG    1       -3.925  -2.315   2.741  0.00  0.00    -0.030 A 
ATOM     15  C   LIG    1       -2.554  -2.223   2.950  0.00  0.00    +0.060 A 
ATOM     16  C   LIG    1       -1.850  -1.139   2.505  0.00  0.00    -0.020 A 
ATOM     17  C   LIG    1       -2.509  -0.113   1.833  0.00  0.00    +0.130 A 
BRANCH   9  19
ATOM     18  C   LIG    1       -0.013   1.086   0.008  0.00  0.00    +0.030 C 
ATOM     19  C   LIG    1       -0.729   1.579   1.267  0.00  0.00    +0.320 C 
ENDBRANCH   9  19
ENDBRANCH   8  11
ENDBRANCH   1   8
BRANCH   4  20
ATOM     20  O   LIG    1       -5.850   2.336   5.088  0.00  0.00    -0.290 OA
BRANCH  20  21
ATOM     21  C   LIG    1       -6.617   1.761   6.056  0.00  0.00    -0.030 A 
ATOM     22  C   LIG    1       -6.209   1.428   7.305  0.00  0.00    +0.200 A 
ATOM     23  N   LIG    1       -7.272   0.885   7.953  0.00  0.00    -0.370 N 
ATOM     24  N   LIG    1       -8.358   0.880   7.068  0.00  0.00    -0.270 NA
ATOM     25  C   LIG    1       -7.280   0.387   9.331  0.00  0.00    +0.370 C 
ATOM     26  C   LIG    1       -7.967   1.404   5.935  0.00  0.00    +0.190 A 
ENDBRANCH  20  21
ENDBRANCH   4  20
TORSDOF 6
