REMARK  Name = ZINCrg000000nvup.0
REMARK                            x       y       z     vdW  Elec       q    Type
REMARK                         _______ _______ _______ _____ _____    ______ ____
ROOT
ATOM      1  N   LIG    1        2.568   0.723   4.098  0.00  0.00    -0.740 N 
ATOM      2  H   LIG    1        2.654  -0.243   4.089  0.00  0.00    +0.400 HD
ATOM      3  C   LIG    1        3.245   1.468   3.202  0.00  0.00    +0.710 C 
ATOM      4  N   LIG    1        4.118   0.881   2.360  0.00  0.00    -0.630 N 
ATOM      5  C   LIG    1        4.262  -0.581   2.332  0.00  0.00    +0.270 C 
ATOM      6  C   LIG    1        4.032  -1.064   0.890  0.00  0.00    +0.280 C 
ATOM      7  N   LIG    1        4.860  -0.253  -0.014  0.00  0.00    -0.610 N 
ATOM      8  C   LIG    1        4.720   1.209   0.018  0.00  0.00    +0.290 C 
ATOM      9  C   LIG    1        5.733  -0.841  -0.857  0.00  0.00    +0.560 C 
ATOM     10  O   LIG    1        6.490  -0.159  -1.519  0.00  0.00    -0.520 OA
ATOM     11  C   LIG    1        4.946   1.692   1.456  0.00  0.00    +0.300 C 
ATOM     12  O   LIG    1        3.069   2.671   3.155  0.00  0.00    -0.580 OA
ENDROOT
BRANCH   9  13
ATOM     13  C   LIG    1        5.769  -2.314  -0.975  0.00  0.00    -0.110 A 
ATOM     14  C   LIG    1        4.579  -3.038  -1.067  0.00  0.00    +0.030 A 
ATOM     15  C   LIG    1        4.617  -4.413  -1.182  0.00  0.00    +0.030 A 
ATOM     16  C   LIG    1        5.829  -5.077  -1.196  0.00  0.00    +0.020 A 
ATOM     17  C   LIG    1        7.017  -4.365  -1.101  0.00  0.00    +0.110 A 
ATOM     18  C   LIG    1        6.992  -2.986  -0.990  0.00  0.00    +0.050 A 
BRANCH  17  19
ATOM     19  O   LIG    1        8.206  -5.024  -1.115  0.00  0.00    -0.490 OA
ATOM     20  H   LIG    1        8.522  -5.285  -0.239  0.00  0.00    +0.390 HD
ENDBRANCH  17  19
ENDBRANCH   9  13
BRANCH   1  21
ATOM     21  C   LIG    1        1.698   1.372   5.082  0.00  0.00    +0.320 C 
BRANCH  21  26
ATOM     22  C   LIG    1       -0.113  -1.740   9.472  0.00  0.00    +0.080 C 
ATOM     23  C   LIG    1        0.537  -0.676   8.586  0.00  0.00    +0.070 C 
ATOM     24  C   LIG    1        1.535  -1.342   7.634  0.00  0.00    +0.210 C 
ATOM     25  O   LIG    1        2.055  -0.358   6.735  0.00  0.00    -0.370 OA
ATOM     26  C   LIG    1        1.047   0.307   5.968  0.00  0.00    +0.120 C 
ATOM     27  C   LIG    1        0.050   0.974   6.920  0.00  0.00    +0.210 C 
ATOM     28  C   LIG    1        1.269   0.343   9.462  0.00  0.00    +0.040 C 
ATOM     29  O   LIG    1       -0.471  -0.011   7.819  0.00  0.00    -0.370 OA
ENDBRANCH  21  26
ENDBRANCH   1  21
TORSDOF 4
