REMARK  Name = ZINCpe00000MAy3X.2
REMARK                            x       y       z     vdW  Elec       q    Type
REMARK                         _______ _______ _______ _____ _____    ______ ____
ROOT
ATOM      1  C   LIG    1        0.120   0.921   1.718  0.00  0.00    +0.190 C 
ATOM      2  N   LIG    1       -0.692   1.559   0.674  0.00  0.00    -0.550 NA
ATOM      3  C   LIG    1       -0.227   1.174  -0.663  0.00  0.00    +0.170 C 
ATOM      4  C   LIG    1       -1.158   1.756  -1.733  0.00  0.00    +0.050 C 
ATOM      5  C   LIG    1       -1.183   3.275  -1.581  0.00  0.00    +0.140 C 
ATOM      6  O   LIG    1       -2.044   3.890  -2.535  0.00  0.00    -0.370 OA
ATOM      7  C   LIG    1       -2.022   5.321  -2.479  0.00  0.00    +0.220 C 
ATOM      8  C   LIG    1       -2.495   5.800  -1.104  0.00  0.00    +0.250 C 
ATOM      9  N   LIG    1       -1.744   5.079  -0.059  0.00  0.00    -0.590 N 
ATOM     10  C   LIG    1       -1.141   5.733   0.953  0.00  0.00    +0.580 C 
ATOM     11  O   LIG    1       -0.604   5.108   1.847  0.00  0.00    -0.530 OA
ATOM     12  C   LIG    1       -1.683   3.617  -0.171  0.00  0.00    +0.210 C 
ATOM     13  C   LIG    1       -0.715   3.020   0.848  0.00  0.00    +0.220 C 
ENDROOT
BRANCH  10  14
ATOM     14  C   LIG    1       -1.134   7.212   0.977  0.00  0.00    -0.090 A 
ATOM     15  C   LIG    1       -2.330   7.921   0.860  0.00  0.00    +0.030 A 
ATOM     16  C   LIG    1       -2.316   9.300   0.883  0.00  0.00    +0.020 A 
ATOM     17  C   LIG    1       -1.119   9.980   1.021  0.00  0.00    +0.030 A 
ATOM     18  C   LIG    1        0.070   9.283   1.138  0.00  0.00    +0.030 A 
ATOM     19  C   LIG    1        0.070   7.904   1.122  0.00  0.00    -0.070 A 
BRANCH  19  20
ATOM     20  C   LIG    1        1.366   7.146   1.255  0.00  0.00    +0.380 C 
BRANCH  20  21
ATOM     21  N   LIG    1        1.885   6.830  -0.078  0.00  0.00    -0.370 N 
ATOM     22  C   LIG    1        3.100   7.140  -0.563  0.00  0.00    +0.470 A 
ATOM     23  N   LIG    1        3.178   6.682  -1.786  0.00  0.00    -0.540 NA
ATOM     24  C   LIG    1        2.035   6.084  -2.118  0.00  0.00    +0.400 A 
ATOM     25  N   LIG    1        1.212   6.149  -1.104  0.00  0.00    -0.310 NA
ENDBRANCH  20  21
ENDBRANCH  19  20
ENDBRANCH  10  14
TORSDOF 3
