REMARK  Name = ZINCpe00000MJMyf.0
REMARK                            x       y       z     vdW  Elec       q    Type
REMARK                         _______ _______ _______ _____ _____    ______ ____
ROOT
ATOM      1  C   LIG    1       -2.528   3.863   0.044  0.00  0.00    +0.560 C 
ATOM      2  N   LIG    1       -3.685   3.172   0.050  0.00  0.00    -0.720 N 
ATOM      3  H   LIG    1       -3.670   2.202   0.045  0.00  0.00    +0.400 HD
ATOM      4  O   LIG    1       -2.547   5.079   0.050  0.00  0.00    -0.530 OA
ENDROOT
BRANCH   1  12
ATOM      5  O   LIG    1        4.579   3.797  -0.310  0.00  0.00    -0.500 OA
ATOM      6  C   LIG    1        3.512   3.221  -0.327  0.00  0.00    +0.490 C 
ATOM      7  C   LIG    1        3.443   1.766  -0.716  0.00  0.00    +0.310 C 
ATOM      8  O   LIG    1        2.370   1.131  -0.015  0.00  0.00    -0.300 OA
ATOM      9  C   LIG    1        1.179   1.785   0.000  0.00  0.00    +0.110 A 
ATOM     10  C   LIG    1       -0.013   1.076   0.008  0.00  0.00    +0.040 A 
ATOM     11  C   LIG    1       -1.216   1.748   0.017  0.00  0.00    +0.070 A 
ATOM     12  C   LIG    1       -1.239   3.145   0.029  0.00  0.00    -0.130 A 
ATOM     13  C   LIG    1       -0.038   3.861   0.022  0.00  0.00    +0.090 A 
ATOM     14  C   LIG    1        1.163   3.182   0.008  0.00  0.00    +0.090 A 
ATOM     15  N   LIG    1        2.380   3.881   0.002  0.00  0.00    -0.660 N 
ATOM     16  H   LIG    1        2.407   4.823   0.230  0.00  0.00    +0.420 HD
ENDBRANCH   1  12
BRANCH   2  17
ATOM     17  C   LIG    1       -4.965   3.885   0.065  0.00  0.00    +0.300 C 
BRANCH  17  18
ATOM     18  C   LIG    1       -6.112   2.873   0.070  0.00  0.00    +0.160 C 
ATOM     19  C   LIG    1       -7.448   3.614  -0.040  0.00  0.00    +0.170 C 
ATOM     20  N   LIG    1       -8.549   2.643   0.043  0.00  0.00    -0.530 NA
ATOM     21  C   LIG    1       -8.490   1.896   1.307  0.00  0.00    +0.150 C 
ATOM     22  C   LIG    1       -7.144   1.172   1.404  0.00  0.00    +0.220 C 
ATOM     23  O   LIG    1       -6.086   2.127   1.290  0.00  0.00    -0.380 OA
BRANCH  20  24
ATOM     24  C   LIG    1       -9.849   3.308  -0.116  0.00  0.00    +0.180 C 
BRANCH  24  25
ATOM     25  C   LIG    1      -10.970   2.323   0.221  0.00  0.00    +0.010 C 
BRANCH  25  26
ATOM     26  C   LIG    1      -12.325   3.015   0.056  0.00  0.00    +0.210 C 
ATOM     27  F   LIG    1      -13.349   2.114   0.364  0.00  0.00    -0.220 F 
ENDBRANCH  25  26
ENDBRANCH  24  25
ENDBRANCH  20  24
ENDBRANCH  17  18
ENDBRANCH   2  17
TORSDOF 6
