REMARK  Name = ZINCvU00000004r9.0
REMARK                            x       y       z     vdW  Elec       q    Type
REMARK                         _______ _______ _______ _____ _____    ______ ____
ROOT
ATOM      1  C   LIG    1       -1.239   3.123   0.010  0.00  0.00    +0.230 A 
ATOM      2  C   LIG    1       -1.211   1.734  -0.007  0.00  0.00    -0.090 A 
ATOM      3  C   LIG    1       -0.001   1.066  -0.012  0.00  0.00    +0.060 A 
ATOM      4  C   LIG    1        1.184   1.776  -0.012  0.00  0.00    -0.030 A 
ATOM      5  C   LIG    1        1.163   3.166   0.000  0.00  0.00    +0.190 A 
ATOM      6  C   LIG    1       -0.050   3.840   0.011  0.00  0.00    -0.190 A 
ATOM      7  C   LIG    1       -0.076   5.347   0.024  0.00  0.00    +0.080 C 
ENDROOT
BRANCH   5   8
ATOM      8  N   LIG    1        2.363   3.884   0.001  0.00  0.00    -0.670 N 
ATOM      9  H   LIG    1        2.422   4.729  -0.471  0.00  0.00    +0.410 HD
ATOM     10  C   LIG    1        3.437   3.401   0.657  0.00  0.00    +0.560 C 
ATOM     11  O   LIG    1        3.388   2.305   1.179  0.00  0.00    -0.510 OA
BRANCH  10  12
ATOM     12  C   LIG    1        4.673   4.206   0.743  0.00  0.00    -0.140 A 
ATOM     13  C   LIG    1        4.735   5.463   0.140  0.00  0.00    +0.030 A 
ATOM     14  C   LIG    1        5.891   6.211   0.226  0.00  0.00    +0.000 A 
ATOM     15  C   LIG    1        6.992   5.713   0.901  0.00  0.00    +0.040 A 
ATOM     16  C   LIG    1        6.939   4.465   1.497  0.00  0.00    +0.000 A 
ATOM     17  C   LIG    1        5.787   3.709   1.421  0.00  0.00    +0.080 A 
ENDBRANCH  10  12
ENDBRANCH   5   8
BRANCH   1  18
ATOM     18  N   LIG    1       -2.462   3.798   0.021  0.00  0.00    -0.740 N 
ATOM     19  H   LIG    1       -2.480   4.768   0.029  0.00  0.00    +0.400 HD
BRANCH  18  20
ATOM     20  C   LIG    1       -3.716   3.041   0.019  0.00  0.00    +0.310 C 
BRANCH  20  24
ATOM     21  C   LIG    1       -7.018   5.754   0.057  0.00  0.00    +0.160 A 
ATOM     22  C   LIG    1       -6.485   5.323  -1.150  0.00  0.00    +0.030 A 
ATOM     23  C   LIG    1       -5.418   4.446  -1.159  0.00  0.00    +0.050 A 
ATOM     24  C   LIG    1       -4.880   3.998   0.033  0.00  0.00    -0.110 A 
ATOM     25  C   LIG    1       -5.412   4.421   1.237  0.00  0.00    +0.060 A 
ATOM     26  C   LIG    1       -6.475   5.302   1.253  0.00  0.00    -0.010 A 
BRANCH  21  33
ATOM     27  C   LIG    1       -9.271   5.718   2.138  0.00  0.00    +0.150 C 
ATOM     28  C   LIG    1       -9.110   6.656   0.970  0.00  0.00    +0.090 A 
ATOM     29  C   LIG    1       -9.949   7.663   0.633  0.00  0.00    -0.110 A 
ATOM     30  C   LIG    1       -9.437   8.287  -0.510  0.00  0.00    +0.080 A 
ATOM     31  N   LIG    1       -8.327   7.681  -0.845  0.00  0.00    -0.290 NA
ATOM     32  C   LIG    1      -10.054   9.460  -1.227  0.00  0.00    +0.160 C 
ATOM     33  N   LIG    1       -8.101   6.644   0.070  0.00  0.00    -0.330 N 
ENDBRANCH  21  33
ENDBRANCH  20  24
ENDBRANCH  18  20
ENDBRANCH   1  18
TORSDOF 6
