REMARK  Name = ZINCrH00000tj157.0
REMARK                            x       y       z     vdW  Elec       q    Type
REMARK                         _______ _______ _______ _____ _____    ______ ____
ROOT
ATOM      1  O   LIG    1        2.306   2.905   3.187  0.00  0.00    -0.430 OA
ATOM      2  C   LIG    1        3.058   3.210   2.293  0.00  0.00    +0.380 C 
ATOM      3  C   LIG    1        4.305   2.399   2.019  0.00  0.00    +0.030 C 
ATOM      4  C   LIG    1        5.502   3.355   1.962  0.00  0.00    +0.060 C 
ATOM      5  C   LIG    1        5.227   4.450   0.930  0.00  0.00    +0.010 C 
ATOM      6  C   LIG    1        4.028   5.291   1.370  0.00  0.00    +0.360 C 
ATOM      7  N   LIG    1        3.815   6.379   0.414  0.00  0.00    -0.630 N 
ATOM      8  C   LIG    1        2.999   6.233  -0.640  0.00  0.00    +0.720 C 
ATOM      9  O   LIG    1        2.866   7.165  -1.409  0.00  0.00    -0.580 OA
ATOM     10  N   LIG    1        2.324   5.099  -0.880  0.00  0.00    -0.730 N 
ATOM     11  H   LIG    1        1.738   5.048  -1.652  0.00  0.00    +0.420 HD
ATOM     12  C   LIG    1        2.452   3.936  -0.000  0.00  0.00    +0.300 C 
ATOM     13  C   LIG    1        2.774   4.411   1.420  0.00  0.00    -0.020 C 
ENDROOT
BRANCH  12  14
ATOM     14  C   LIG    1        1.157   3.165   0.008  0.00  0.00    -0.110 A 
ATOM     15  C   LIG    1        1.175   1.783   0.000  0.00  0.00    +0.040 A 
ATOM     16  C   LIG    1       -0.013   1.076   0.008  0.00  0.00    +0.030 A 
ATOM     17  C   LIG    1       -1.219   1.750   0.017  0.00  0.00    +0.060 A 
ATOM     18  C   LIG    1       -1.237   3.134   0.030  0.00  0.00    -0.090 A 
ATOM     19 BR   LIG    1       -2.887   4.057   0.051  0.00  0.00    -0.040 Br
ATOM     20  C   LIG    1       -0.049   3.841   0.023  0.00  0.00    +0.060 A 
ENDBRANCH  12  14
BRANCH   6  21
ATOM     21  O   LIG    1        4.279   5.838   2.666  0.00  0.00    -0.540 OA
ATOM     22  H   LIG    1        5.058   6.410   2.708  0.00  0.00    +0.380 HD
ENDBRANCH   6  21
BRANCH   7  23
ATOM     23  C   LIG    1        4.508   7.654   0.614  0.00  0.00    +0.350 C 
BRANCH  23  24
ATOM     24  C   LIG    1        3.655   8.562   1.461  0.00  0.00    -0.110 A 
ATOM     25  C   LIG    1        2.750   9.418   0.862  0.00  0.00    +0.040 A 
ATOM     26  C   LIG    1        1.964  10.248   1.640  0.00  0.00    -0.010 A 
ATOM     27  C   LIG    1        2.090  10.228   3.016  0.00  0.00    +0.010 A 
ATOM     28  C   LIG    1        2.999   9.376   3.615  0.00  0.00    -0.010 A 
ATOM     29  C   LIG    1        3.781   8.543   2.838  0.00  0.00    +0.020 A 
ENDBRANCH  23  24
ENDBRANCH   7  23
TORSDOF 4
