REMARK  Name = ZINCvU0000000DP1.0
REMARK                            x       y       z     vdW  Elec       q    Type
REMARK                         _______ _______ _______ _____ _____    ______ ____
ROOT
ATOM      1  C   LIG    1        4.851   2.500   1.137  0.00  0.00    +0.160 C 
ATOM      2  N   LIG    1        4.761   2.828  -0.105  0.00  0.00    -0.240 NA
ATOM      3  N   LIG    1        4.051   1.917  -0.885  0.00  0.00    -0.470 N 
ATOM      4  C   LIG    1        3.596   0.810  -0.028  0.00  0.00    +0.330 C 
ATOM      5  C   LIG    1        3.818   2.031  -2.208  0.00  0.00    +0.560 C 
ATOM      6  O   LIG    1        3.185   1.175  -2.788  0.00  0.00    -0.480 OA
ATOM      7  C   LIG    1        4.134   1.188   1.366  0.00  0.00    +0.100 C 
ENDROOT
BRANCH   1  12
ATOM      8  C   LIG    1        7.555   5.556   5.189  0.00  0.00    +0.100 C 
ATOM      9  C   LIG    1        6.847   4.755   4.127  0.00  0.00    -0.060 A 
ATOM     10  C   LIG    1        6.821   5.213   2.822  0.00  0.00    +0.010 A 
ATOM     11  C   LIG    1        6.174   4.486   1.845  0.00  0.00    +0.060 A 
ATOM     12  C   LIG    1        5.544   3.283   2.176  0.00  0.00    -0.050 A 
ATOM     13  C   LIG    1        5.570   2.829   3.497  0.00  0.00    +0.050 A 
ATOM     14  C   LIG    1        6.225   3.565   4.463  0.00  0.00    +0.010 A 
ENDBRANCH   1  12
BRANCH   4  15
ATOM     15  C   LIG    1        2.091   0.734  -0.014  0.00  0.00    -0.030 A 
ATOM     16  C   LIG    1        1.361  -0.395  -0.013  0.00  0.00    -0.030 A 
ATOM     17  C   LIG    1        0.002  -0.004   0.002  0.00  0.00    -0.060 A 
ATOM     18  C   LIG    1       -0.016   1.341   0.009  0.00  0.00    +0.170 A 
ATOM     19  O   LIG    1        1.252   1.783  -0.000  0.00  0.00    -0.170 OA
ENDBRANCH   4  15
BRANCH   5  20
ATOM     20  C   LIG    1        4.345   3.223  -2.965  0.00  0.00    +0.260 C 
BRANCH  20  21
ATOM     21  O   LIG    1        3.971   3.116  -4.340  0.00  0.00    -0.290 OA
BRANCH  21  22
ATOM     22  C   LIG    1        4.370   4.117  -5.168  0.00  0.00    +0.130 A 
ATOM     23  C   LIG    1        5.103   5.185  -4.665  0.00  0.00    -0.080 A 
ATOM     24  C   LIG    1        5.517   6.204  -5.503  0.00  0.00    +0.050 A 
ATOM     25  C   LIG    1        5.195   6.174  -6.846  0.00  0.00    -0.010 A 
ATOM     26  C   LIG    1        4.455   5.110  -7.356  0.00  0.00    -0.020 A 
ATOM     27  C   LIG    1        4.095   5.052  -8.789  0.00  0.00    +0.000 C 
ATOM     28  C   LIG    1        3.102   4.267  -9.180  0.00  0.00    -0.010 C 
ATOM     29  C   LIG    1        2.329   3.442  -8.189  0.00  0.00    +0.060 C 
ATOM     30  C   LIG    1        3.245   2.934  -7.077  0.00  0.00    +0.100 C 
ATOM     31  C   LIG    1        4.043   4.079  -6.511  0.00  0.00    -0.100 A 
ENDBRANCH  21  22
ENDBRANCH  20  21
ENDBRANCH   5  20
TORSDOF 5
