REMARK  Name = ZINCnE000001UaVQ.0
REMARK                            x       y       z     vdW  Elec       q    Type
REMARK                         _______ _______ _______ _____ _____    ______ ____
ROOT
ATOM      1  C   LIG    1        5.066   3.949  -1.738  0.00  0.00    +0.300 A 
ATOM      2  C   LIG    1        6.105   4.057  -0.826  0.00  0.00    -0.120 A 
ATOM      3  C   LIG    1        7.196   4.859  -1.111  0.00  0.00    +0.030 A 
ATOM      4  C   LIG    1        7.253   5.555  -2.306  0.00  0.00    -0.070 A 
ATOM      5  C   LIG    1        6.222   5.453  -3.220  0.00  0.00    +0.040 A 
ATOM      6 CL   LIG    1        8.495   4.993   0.032  0.00  0.00    -0.100 Cl
ATOM      7  C   LIG    1        5.128   4.647  -2.945  0.00  0.00    +0.070 A 
ENDROOT
BRANCH   7   8
ATOM      8  N   LIG    1        4.082   4.537  -3.875  0.00  0.00    -0.280 N 
ATOM      9  C   LIG    1        4.015   5.161  -5.072  0.00  0.00    +0.180 A 
ATOM     10  C   LIG    1        2.855   4.791  -5.664  0.00  0.00    -0.140 A 
ATOM     11  C   LIG    1        2.187   3.921  -4.796  0.00  0.00    +0.160 A 
ATOM     12  N   LIG    1        2.922   3.768  -3.723  0.00  0.00    -0.200 NA
ENDBRANCH   7   8
BRANCH   1  13
ATOM     13  N   LIG    1        3.963   3.140  -1.452  0.00  0.00    -1.030 NA
BRANCH  13  15
ATOM     14  O   LIG    1        3.789   3.283   1.005  0.00  0.00    -1.020 OA
ATOM     15  S   LIG    1        3.896   2.308  -0.022  0.00  0.00    +2.600 S 
ATOM     16  O   LIG    1        4.936   1.341  -0.071  0.00  0.00    -1.020 OA
BRANCH  15  17
ATOM     17  C   LIG    1        2.381   1.408  -0.013  0.00  0.00    -0.650 A 
ATOM     18  C   LIG    1        2.397   0.027  -0.020  0.00  0.00    +0.150 A 
ATOM     19  C   LIG    1        1.208  -0.679  -0.013  0.00  0.00    -0.030 A 
ATOM     20  C   LIG    1        0.002  -0.004   0.002  0.00  0.00    +0.080 A 
ATOM     21  C   LIG    1       -0.017   1.378   0.010  0.00  0.00    -0.040 A 
ATOM     22  C   LIG    1        1.173   2.086   0.002  0.00  0.00    +0.210 A 
ATOM     23  F   LIG    1        1.156   3.437   0.009  0.00  0.00    -0.110 F 
ENDBRANCH  15  17
ENDBRANCH  13  15
ENDBRANCH   1  13
TORSDOF 4
