REMARK  Name = ZINCpk00000y6z64.0
REMARK                            x       y       z     vdW  Elec       q    Type
REMARK                         _______ _______ _______ _____ _____    ______ ____
ROOT
ATOM      1  N   LIG    1       -2.922   0.718   1.405  0.00  0.00    -0.530 NA
ATOM      2  C   LIG    1       -1.973  -0.177   2.079  0.00  0.00    +0.160 C 
ATOM      3  C   LIG    1       -2.354  -0.308   3.555  0.00  0.00    +0.030 C 
ATOM      4  C   LIG    1       -3.775  -0.867   3.663  0.00  0.00    -0.040 C 
ATOM      5  C   LIG    1       -4.737   0.058   2.912  0.00  0.00    +0.040 C 
ATOM      6  C   LIG    1       -4.287   0.178   1.454  0.00  0.00    +0.170 C 
ENDROOT
BRANCH   1   7
ATOM      7  C   LIG    1       -2.509   0.977   0.019  0.00  0.00    +0.240 C 
BRANCH   7  11
ATOM      8  C   LIG    1        1.157   3.193   0.008  0.00  0.00    +0.180 A 
ATOM      9  C   LIG    1       -0.061   3.854   0.023  0.00  0.00    -0.070 A 
ATOM     10  C   LIG    1       -1.240   3.134   0.031  0.00  0.00    +0.120 A 
ATOM     11  C   LIG    1       -1.215   1.750   0.017  0.00  0.00    -0.120 A 
ATOM     12  C   LIG    1       -0.013   1.076   0.008  0.00  0.00    +0.110 A 
ATOM     13  C   LIG    1        1.187   1.792   0.000  0.00  0.00    -0.060 A 
BRANCH   8  15
ATOM     14  C   LIG    1        2.207   5.324   0.010  0.00  0.00    +0.250 C 
ATOM     15  O   LIG    1        2.316   3.900   0.001  0.00  0.00    -0.310 OA
ENDBRANCH   8  15
BRANCH  13  16
ATOM     16  C   LIG    1        2.439   1.098  -0.015  0.00  0.00    +0.260 C 
ATOM     17  N   LIG    1        3.433   0.547  -0.027  0.00  0.00    -0.410 NA
ENDBRANCH  13  16
ENDBRANCH   7  11
ENDBRANCH   1   7
BRANCH   4  18
ATOM     18  C   LIG    1       -4.185  -0.944   5.136  0.00  0.00    +0.220 C 
BRANCH  18  19
ATOM     19  C   LIG    1       -3.238  -1.854   5.874  0.00  0.00    +0.490 C 
ATOM     20  N   LIG    1       -3.189  -3.166   5.569  0.00  0.00    -0.700 N 
ATOM     21  H   LIG    1       -3.764  -3.524   4.874  0.00  0.00    +0.400 HD
ATOM     22  O   LIG    1       -2.520  -1.406   6.742  0.00  0.00    -0.530 OA
BRANCH  20  23
ATOM     23  C   LIG    1       -2.268  -4.051   6.286  0.00  0.00    +0.220 C 
ATOM     24  C   LIG    1       -1.474  -5.064   5.460  0.00  0.00    +0.010 C 
ATOM     25  C   LIG    1       -2.624  -5.537   6.352  0.00  0.00    +0.020 C 
ENDBRANCH  20  23
ENDBRANCH  18  19
BRANCH  18  26
ATOM     26  O   LIG    1       -4.137   0.363   5.713  0.00  0.00    -0.530 OA
ATOM     27  H   LIG    1       -3.263   0.775   5.681  0.00  0.00    +0.380 HD
ENDBRANCH  18  26
ENDBRANCH   4  18
TORSDOF 8
