REMARK  Name = ZINCrD00000eDqdS.0
REMARK                            x       y       z     vdW  Elec       q    Type
REMARK                         _______ _______ _______ _____ _____    ______ ____
ROOT
ATOM      1  C   LIG    1       -8.154  -0.250   2.774  0.00  0.00    +0.590 C 
ATOM      2  N   LIG    1       -6.996  -0.559   2.158  0.00  0.00    -0.600 N 
ATOM      3  C   LIG    1       -5.958  -1.328   2.858  0.00  0.00    +0.280 C 
ATOM      4  C   LIG    1       -4.638  -0.555   2.784  0.00  0.00    +0.020 C 
ATOM      5  C   LIG    1       -4.313  -0.247   1.320  0.00  0.00    -0.010 C 
ATOM      6  C   LIG    1       -5.419   0.627   0.723  0.00  0.00    +0.020 C 
ATOM      7  C   LIG    1       -6.748  -0.133   0.774  0.00  0.00    +0.270 C 
ATOM      8  O   LIG    1       -8.386  -0.684   3.887  0.00  0.00    -0.520 OA
ENDROOT
BRANCH   1  15
ATOM      9  C   LIG    1      -13.040   2.147   0.232  0.00  0.00    +0.070 C 
ATOM     10  C   LIG    1      -11.793   1.426  -0.284  0.00  0.00    +0.260 C 
ATOM     11  O   LIG    1      -12.113   0.064  -0.599  0.00  0.00    -0.370 OA
ATOM     12  C   LIG    1      -10.986  -0.762  -0.905  0.00  0.00    +0.150 C 
ATOM     13  C   LIG    1      -10.189  -1.052   0.378  0.00  0.00    +0.100 C 
ATOM     14  C   LIG    1       -9.992   0.257   1.092  0.00  0.00    -0.160 A 
ATOM     15  C   LIG    1       -9.139   0.612   2.101  0.00  0.00    -0.010 A 
ATOM     16  N   LIG    1       -9.394   1.934   2.360  0.00  0.00    -0.380 N 
ATOM     17  H   LIG    1       -8.943   2.468   3.034  0.00  0.00    +0.450 HD
ATOM     18  N   LIG    1      -10.319   2.362   1.571  0.00  0.00    -0.250 NA
ATOM     19  C   LIG    1      -11.472  -2.081  -1.509  0.00  0.00    +0.060 C 
ATOM     20  C   LIG    1      -10.730   1.412   0.787  0.00  0.00    +0.000 A 
ENDBRANCH   1  15
BRANCH   5  21
ATOM     21  C   LIG    1       -2.977   0.495   1.239  0.00  0.00    +0.020 C 
BRANCH  21  22
ATOM     22  C   LIG    1       -2.592   0.693  -0.228  0.00  0.00    +0.080 C 
BRANCH  22  23
ATOM     23  C   LIG    1       -1.276   1.424  -0.307  0.00  0.00    -0.130 A 
ATOM     24  C   LIG    1       -1.244   2.810  -0.350  0.00  0.00    +0.060 A 
ATOM     25  C   LIG    1       -0.011   3.439  -0.429  0.00  0.00    -0.030 A 
ATOM     26  C   LIG    1        1.137   2.671  -0.456  0.00  0.00    +0.250 A 
ATOM     27  N   LIG    1        1.069   1.355  -0.407  0.00  0.00    -0.480 NA
ATOM     28  C   LIG    1       -0.086   0.722  -0.332  0.00  0.00    +0.250 A 
ENDBRANCH  22  23
ENDBRANCH  21  22
ENDBRANCH   5  21
TORSDOF 4
