REMARK  Name = ZINCrD00000eDqdS.1
REMARK                            x       y       z     vdW  Elec       q    Type
REMARK                         _______ _______ _______ _____ _____    ______ ____
ROOT
ATOM      1  C   LIG    1       -8.154  -0.250   2.774  0.00  0.00    +0.600 C 
ATOM      2  N   LIG    1       -7.066  -0.679   2.106  0.00  0.00    -0.600 N 
ATOM      3  C   LIG    1       -6.019  -1.446   2.794  0.00  0.00    +0.270 C 
ATOM      4  C   LIG    1       -4.669  -0.762   2.556  0.00  0.00    +0.020 C 
ATOM      5  C   LIG    1       -4.442  -0.600   1.051  0.00  0.00    -0.020 C 
ATOM      6  C   LIG    1       -5.543   0.285   0.461  0.00  0.00    +0.020 C 
ATOM      7  C   LIG    1       -6.902  -0.387   0.675  0.00  0.00    +0.270 C 
ATOM      8  O   LIG    1       -8.323  -0.575   3.933  0.00  0.00    -0.530 OA
ENDROOT
BRANCH   1  15
ATOM      9  C   LIG    1      -12.200   3.933   1.336  0.00  0.00    +0.070 C 
ATOM     10  C   LIG    1      -12.278   2.482   1.817  0.00  0.00    +0.240 C 
ATOM     11  O   LIG    1      -12.616   2.451   3.211  0.00  0.00    -0.360 OA
ATOM     12  C   LIG    1      -12.507   1.162   3.820  0.00  0.00    +0.140 C 
ATOM     13  C   LIG    1      -11.026   0.772   3.943  0.00  0.00    +0.110 C 
ATOM     14  C   LIG    1      -10.371   1.046   2.617  0.00  0.00    -0.140 A 
ATOM     15  C   LIG    1       -9.143   0.615   2.099  0.00  0.00    +0.010 A 
ATOM     16  N   LIG    1       -9.038   1.140   0.888  0.00  0.00    -0.260 NA
ATOM     17  N   LIG    1      -10.086   1.840   0.615  0.00  0.00    -0.360 N 
ATOM     18  H   LIG    1      -10.235   2.316  -0.217  0.00  0.00    +0.450 HD
ATOM     19  C   LIG    1      -13.141   1.201   5.212  0.00  0.00    +0.080 C 
ATOM     20  C   LIG    1      -10.935   1.818   1.651  0.00  0.00    -0.020 A 
ENDBRANCH   1  15
BRANCH   5  21
ATOM     21  C   LIG    1       -3.079   0.052   0.808  0.00  0.00    +0.020 C 
BRANCH  21  22
ATOM     22  C   LIG    1       -2.798   0.101  -0.695  0.00  0.00    +0.080 C 
BRANCH  22  23
ATOM     23  C   LIG    1       -1.456   0.743  -0.934  0.00  0.00    -0.130 A 
ATOM     24  C   LIG    1       -1.354   2.115  -1.103  0.00  0.00    +0.050 A 
ATOM     25  C   LIG    1       -0.099   2.661  -1.326  0.00  0.00    -0.040 A 
ATOM     26  C   LIG    1        1.001   1.825  -1.368  0.00  0.00    +0.250 A 
ATOM     27  N   LIG    1        0.867   0.524  -1.197  0.00  0.00    -0.480 NA
ATOM     28  C   LIG    1       -0.310  -0.029  -0.983  0.00  0.00    +0.250 A 
ENDBRANCH  22  23
ENDBRANCH  21  22
ENDBRANCH   5  21
TORSDOF 4
