REMARK  Name = ZINCrD0000073Q3G.0
REMARK                            x       y       z     vdW  Elec       q    Type
REMARK                         _______ _______ _______ _____ _____    ______ ____
ROOT
ATOM      1  C   LIG    1       -1.259   3.422   0.128  0.00  0.00    +0.510 C 
ATOM      2  N   LIG    1       -1.240   2.079   0.019  0.00  0.00    -0.660 N 
ATOM      3  H   LIG    1       -2.072   1.586  -0.060  0.00  0.00    +0.420 HD
ATOM      4  O   LIG    1       -0.219   4.045   0.127  0.00  0.00    -0.510 OA
ENDROOT
BRANCH   2   5
ATOM      5  C   LIG    1       -0.017   1.393   0.021  0.00  0.00    +0.170 A 
ATOM      6  C   LIG    1        1.091   1.956   0.624  0.00  0.00    +0.100 A 
ATOM      7  C   LIG    1        2.310   1.272   0.618  0.00  0.00    -0.120 A 
ATOM      8  C   LIG    1        2.404   0.021   0.003  0.00  0.00    +0.030 A 
ATOM      9  C   LIG    1        1.296  -0.538  -0.597  0.00  0.00    -0.010 A 
ATOM     10  C   LIG    1        0.083   0.141  -0.593  0.00  0.00    +0.080 A 
BRANCH   7  11
ATOM     11  C   LIG    1        3.496   1.870   1.260  0.00  0.00    +0.560 C 
ATOM     12  O   LIG    1        3.413   2.959   1.795  0.00  0.00    -0.530 OA
ATOM     13  N   LIG    1        4.671   1.210   1.253  0.00  0.00    -0.850 N 
ATOM     14  H   LIG    1        5.451   1.603   1.675  0.00  0.00    +0.410 HD
ATOM     15  H   LIG    1        4.737   0.342   0.826  0.00  0.00    +0.400 HD
ENDBRANCH   7  11
BRANCH  10  16
ATOM     16  N   LIG    1       -1.033  -0.427  -1.200  0.00  0.00    -0.510 N 
ATOM     17  C   LIG    1       -1.429  -1.668  -0.520  0.00  0.00    +0.210 C 
ATOM     18  C   LIG    1       -0.791  -0.664  -2.630  0.00  0.00    +0.220 C 
ENDBRANCH  10  16
ENDBRANCH   2   5
BRANCH   1  19
ATOM     19  C   LIG    1       -2.573   4.149   0.252  0.00  0.00    +0.080 C 
BRANCH  19  21
ATOM     20  C   LIG    1       -1.565   5.950   1.660  0.00  0.00    +0.060 C 
ATOM     21  C   LIG    1       -2.316   5.653   0.360  0.00  0.00    -0.010 C 
BRANCH  21  22
ATOM     22  C   LIG    1       -3.631   6.389   0.360  0.00  0.00    +0.410 C 
ATOM     23  O   LIG    1       -4.622   5.860   0.816  0.00  0.00    -0.450 OA
BRANCH  22  24
ATOM     24  C   LIG    1       -3.712   7.750  -0.192  0.00  0.00    -0.170 A 
ATOM     25  C   LIG    1       -2.569   8.366  -0.713  0.00  0.00    +0.090 A 
ATOM     26  C   LIG    1       -2.653   9.640  -1.232  0.00  0.00    +0.020 A 
ATOM     27  C   LIG    1       -3.864  10.314  -1.230  0.00  0.00    -0.000 A 
ATOM     28  C   LIG    1       -4.999   9.711  -0.712  0.00  0.00    +0.020 A 
ATOM     29 CL   LIG    1       -3.960  11.920  -1.881  0.00  0.00    -0.060 Cl
ATOM     30  C   LIG    1       -4.931   8.436  -0.193  0.00  0.00    +0.090 A 
ENDBRANCH  22  24
ENDBRANCH  21  22
ENDBRANCH  19  21
ENDBRANCH   1  19
TORSDOF 7
