REMARK  Name = ZINCkj000005iMsm.0
REMARK                            x       y       z     vdW  Elec       q    Type
REMARK                         _______ _______ _______ _____ _____    ______ ____
ROOT
ATOM      1  C   LIG    1       -2.271  -0.136  -5.385  0.00  0.00    +0.460 A 
ATOM      2  N   LIG    1       -2.068   1.060  -5.937  0.00  0.00    -0.550 NA
ATOM      3  C   LIG    1       -1.617   2.061  -5.202  0.00  0.00    +0.600 A 
ATOM      4  N   LIG    1       -1.365   1.881  -3.917  0.00  0.00    -0.620 NA
ATOM      5  C   LIG    1       -1.565   0.690  -3.358  0.00  0.00    +0.590 A 
ATOM      6  N   LIG    1       -2.013  -0.322  -4.094  0.00  0.00    -0.600 NA
ENDROOT
BRANCH   1  12
ATOM      7  C   LIG    1       -3.049  -1.064  -7.569  0.00  0.00    +0.190 A 
ATOM      8  C   LIG    1       -3.517  -2.122  -8.333  0.00  0.00    -0.080 A 
ATOM      9  C   LIG    1       -3.724  -3.357  -7.751  0.00  0.00    +0.090 A 
ATOM     10  C   LIG    1       -3.461  -3.550  -6.406  0.00  0.00    -0.040 A 
ATOM     11  C   LIG    1       -2.990  -2.509  -5.634  0.00  0.00    +0.120 A 
ATOM     12  C   LIG    1       -2.777  -1.257  -6.209  0.00  0.00    -0.110 A 
BRANCH   7  14
ATOM     13  C   LIG    1       -3.150   0.274  -9.529  0.00  0.00    +0.250 C 
ATOM     14  O   LIG    1       -2.850   0.152  -8.137  0.00  0.00    -0.280 OA
ENDBRANCH   7  14
ENDBRANCH   1  12
BRANCH   5  15
ATOM     15  N   LIG    1       -1.301   0.504  -2.016  0.00  0.00    -0.690 N 
ATOM     16  H   LIG    1       -1.447  -0.365  -1.609  0.00  0.00    +0.420 HD
BRANCH  15  17
ATOM     17  C   LIG    1       -0.801   1.618  -1.207  0.00  0.00    +0.280 C 
ATOM     18  C   LIG    1       -0.013   1.086   0.008  0.00  0.00    +0.080 C 
ATOM     19  C   LIG    1       -0.778   1.605   1.244  0.00  0.00    +0.280 C 
ATOM     20  N   LIG    1       -1.513   2.801   0.753  0.00  0.00    -0.520 N 
ATOM     21  H   LIG    1       -2.299   3.003   1.351  0.00  0.00    +0.440 HD
ATOM     22  H   LIG    1       -0.894   3.596   0.700  0.00  0.00    +0.440 HD
ATOM     23  C   LIG    1       -1.978   2.413  -0.604  0.00  0.00    +0.260 C 
ENDBRANCH  15  17
ENDBRANCH   5  15
TORSDOF 4
