REMARK  Name = ZINCqH00000356kU.0
REMARK                            x       y       z     vdW  Elec       q    Type
REMARK                         _______ _______ _______ _____ _____    ______ ____
ROOT
ATOM      1  C   LIG    1       -3.372  -3.500   0.064  0.00  0.00    -0.130 A 
ATOM      2  C   LIG    1       -4.719  -3.825   0.069  0.00  0.00    +0.140 A 
ATOM      3  C   LIG    1       -5.677  -2.802   0.023  0.00  0.00    -0.070 A 
ATOM      4  C   LIG    1       -7.053  -3.096   0.027  0.00  0.00    +0.050 A 
ATOM      5  C   LIG    1       -7.959  -2.081  -0.018  0.00  0.00    +0.020 A 
ATOM      6  C   LIG    1       -7.544  -0.752  -0.069  0.00  0.00    +0.040 A 
ATOM      7  C   LIG    1       -6.222  -0.429  -0.074  0.00  0.00    +0.030 A 
ATOM      8  C   LIG    1       -5.255  -1.448  -0.029  0.00  0.00    -0.020 A 
ATOM      9  C   LIG    1       -3.883  -1.145  -0.028  0.00  0.00    +0.040 A 
ATOM     10  C   LIG    1       -2.963  -2.150   0.012  0.00  0.00    +0.140 A 
ENDROOT
BRANCH   1  11
ATOM     11  C   LIG    1       -2.360  -4.571   0.113  0.00  0.00    +0.510 C 
ATOM     12  O   LIG    1       -1.178  -4.290   0.109  0.00  0.00    -0.500 OA
BRANCH  11  14
ATOM     13  C   LIG    1       -1.695  -6.862   0.208  0.00  0.00    +0.290 C 
ATOM     14  O   LIG    1       -2.745  -5.861   0.162  0.00  0.00    -0.350 OA
ENDBRANCH  11  14
ENDBRANCH   1  11
BRANCH  10  15
ATOM     15  O   LIG    1       -1.639  -1.849   0.008  0.00  0.00    -0.280 OA
BRANCH  15  16
ATOM     16  C   LIG    1       -1.025  -1.819  -1.186  0.00  0.00    +0.470 C 
ATOM     17  O   LIG    1       -1.626  -2.143  -2.183  0.00  0.00    -0.470 OA
BRANCH  16  18
ATOM     18  C   LIG    1        0.414  -1.382  -1.282  0.00  0.00    +0.300 C 
BRANCH  18  19
ATOM     19  O   LIG    1        0.838  -1.435  -2.646  0.00  0.00    -0.290 OA
BRANCH  19  20
ATOM     20  C   LIG    1        2.121  -1.069  -2.908  0.00  0.00    +0.090 A 
ATOM     21  C   LIG    1        2.954  -0.668  -1.875  0.00  0.00    -0.040 A 
ATOM     22  C   LIG    1        4.258  -0.297  -2.143  0.00  0.00    +0.050 A 
ATOM     23  C   LIG    1        4.733  -0.324  -3.441  0.00  0.00    +0.020 A 
ATOM     24  C   LIG    1        3.905  -0.723  -4.475  0.00  0.00    +0.030 A 
ATOM     25  C   LIG    1        2.602  -1.102  -4.211  0.00  0.00    +0.080 A 
ATOM     26  F   LIG    1        1.795  -1.497  -5.220  0.00  0.00    -0.130 F 
ENDBRANCH  19  20
ENDBRANCH  18  19
ENDBRANCH  16  18
ENDBRANCH  15  16
ENDBRANCH  10  15
TORSDOF 7
