REMARK  Name = ZINCrD000000AOtE.0
REMARK                            x       y       z     vdW  Elec       q    Type
REMARK                         _______ _______ _______ _____ _____    ______ ____
ROOT
ATOM      1  C   LIG    1        8.849  -3.303  -1.192  0.00  0.00    +0.520 C 
ATOM      2  N   LIG    1        7.978  -2.739  -0.332  0.00  0.00    -0.610 N 
ATOM      3  C   LIG    1        8.310  -1.495   0.380  0.00  0.00    +0.300 C 
ATOM      4  C   LIG    1        7.359  -0.388  -0.079  0.00  0.00    +0.130 C 
ATOM      5  C   LIG    1        5.931  -0.916  -0.061  0.00  0.00    +0.090 A 
ATOM      6  C   LIG    1        5.640  -2.232  -0.063  0.00  0.00    -0.250 A 
ATOM      7  S   LIG    1        3.892  -2.435  -0.048  0.00  0.00    +0.110 S 
ATOM      8  C   LIG    1        3.696  -0.685  -0.037  0.00  0.00    +0.130 A 
ATOM      9  N   LIG    1        4.867  -0.128  -0.050  0.00  0.00    -0.470 NA
ATOM     10  C   LIG    1        6.662  -3.347  -0.073  0.00  0.00    +0.390 C 
ATOM     11  O   LIG    1        9.928  -2.784  -1.389  0.00  0.00    -0.530 OA
ENDROOT
BRANCH   8  12
ATOM     12  C   LIG    1        2.403   0.034  -0.021  0.00  0.00    -0.030 A 
ATOM     13  C   LIG    1        1.204  -0.681  -0.013  0.00  0.00    +0.020 A 
ATOM     14  C   LIG    1        0.002  -0.004   0.002  0.00  0.00    +0.010 A 
ATOM     15  C   LIG    1       -0.017   1.379   0.010  0.00  0.00    +0.030 A 
ATOM     16  C   LIG    1        1.168   2.093   0.002  0.00  0.00    +0.010 A 
ATOM     17  C   LIG    1        2.377   1.429  -0.013  0.00  0.00    +0.070 A 
ENDBRANCH   8  12
BRANCH   1  18
ATOM     18  C   LIG    1        8.483  -4.577  -1.908  0.00  0.00    +0.300 C 
BRANCH  18  21
ATOM     19  O   LIG    1        8.477  -6.773  -3.470  0.00  0.00    -0.540 OA
ATOM     20  C   LIG    1        9.486  -6.102  -3.522  0.00  0.00    +0.520 C 
ATOM     21  N   LIG    1        9.589  -4.983  -2.779  0.00  0.00    -0.720 N 
ATOM     22  H   LIG    1       10.396  -4.446  -2.820  0.00  0.00    +0.410 HD
BRANCH  20  23
ATOM     23  C   LIG    1       10.623  -6.520  -4.418  0.00  0.00    +0.000 C 
ATOM     24  C   LIG    1       10.895  -5.418  -5.444  0.00  0.00    +0.030 C 
ATOM     25  C   LIG    1       12.050  -5.842  -6.354  0.00  0.00    +0.020 C 
ATOM     26  C   LIG    1       11.678  -7.136  -7.081  0.00  0.00    +0.000 C 
ATOM     27  C   LIG    1       11.406  -8.237  -6.055  0.00  0.00    +0.010 C 
ATOM     28  C   LIG    1       10.251  -7.813  -5.145  0.00  0.00    +0.040 C 
ENDBRANCH  20  23
ENDBRANCH  18  21
ENDBRANCH   1  18
TORSDOF 4
