REMARK  Name = ZINCrg000000rkoM.0
REMARK                            x       y       z     vdW  Elec       q    Type
REMARK                         _______ _______ _______ _____ _____    ______ ____
ROOT
ATOM      1  C   LIG    1       -0.604  -2.453  -0.999  0.00  0.00    +0.570 C 
ATOM      2  N   LIG    1       -1.222  -1.670  -0.093  0.00  0.00    -0.700 N 
ATOM      3  H   LIG    1       -0.822  -1.529   0.779  0.00  0.00    +0.410 HD
ATOM      4  O   LIG    1       -1.105  -2.630  -2.093  0.00  0.00    -0.540 OA
ENDROOT
BRANCH   1  12
ATOM      5  C   LIG    1        5.869  -6.746  -0.100  0.00  0.00    +0.090 C 
ATOM      6  C   LIG    1        4.440  -6.236  -0.296  0.00  0.00    +0.190 C 
ATOM      7  C   LIG    1        4.127  -6.183  -1.769  0.00  0.00    +0.490 C 
ATOM      8  N   LIG    1        3.178  -5.330  -2.215  0.00  0.00    -0.670 N 
ATOM      9  H   LIG    1        2.952  -5.289  -3.157  0.00  0.00    +0.410 HD
ATOM     10  C   LIG    1        2.526  -4.507  -1.284  0.00  0.00    +0.120 A 
ATOM     11  C   LIG    1        1.324  -3.909  -1.603  0.00  0.00    +0.060 A 
ATOM     12  C   LIG    1        0.681  -3.096  -0.664  0.00  0.00    -0.100 A 
ATOM     13  C   LIG    1        1.262  -2.890   0.590  0.00  0.00    +0.050 A 
ATOM     14  C   LIG    1        2.459  -3.492   0.905  0.00  0.00    +0.060 A 
ATOM     15  C   LIG    1        3.102  -4.301  -0.027  0.00  0.00    +0.080 A 
ATOM     16  O   LIG    1        4.720  -6.899  -2.548  0.00  0.00    -0.510 OA
ATOM     17  N   LIG    1        4.316  -4.899   0.292  0.00  0.00    -0.480 N 
ATOM     18  C   LIG    1        5.444  -4.044  -0.100  0.00  0.00    +0.220 C 
ENDBRANCH   1  12
BRANCH   2  19
ATOM     19  C   LIG    1       -2.497  -1.031  -0.426  0.00  0.00    +0.310 C 
BRANCH  19  20
ATOM     20  C   LIG    1       -3.033  -0.316   0.788  0.00  0.00    -0.010 A 
ATOM     21  C   LIG    1       -3.997  -0.917   1.575  0.00  0.00    +0.020 A 
ATOM     22  C   LIG    1       -4.492  -0.259   2.685  0.00  0.00    +0.080 A 
ATOM     23  C   LIG    1       -4.019   0.998   3.011  0.00  0.00    +0.010 A 
ATOM     24  C   LIG    1       -3.051   1.598   2.227  0.00  0.00    +0.130 A 
ATOM     25  C   LIG    1       -2.556   0.939   1.117  0.00  0.00    -0.670 A 
BRANCH  25  26
ATOM     26  S   LIG    1       -1.322   1.703   0.117  0.00  0.00    +2.700 S 
ATOM     27  O   LIG    1       -1.096   2.991   0.673  0.00  0.00    -0.960 OA
ATOM     28  O   LIG    1       -0.292   0.739  -0.056  0.00  0.00    -0.950 OA
BRANCH  26  29
ATOM     29  N   LIG    1       -1.987   1.950  -1.379  0.00  0.00    -1.250 NA
ATOM     30  H   LIG    1       -1.426   1.923  -2.170  0.00  0.00    +0.420 HD
ATOM     31  H   LIG    1       -2.938   2.125  -1.464  0.00  0.00    +0.420 HD
ENDBRANCH  26  29
ENDBRANCH  25  26
ENDBRANCH  19  20
ENDBRANCH   2  19
TORSDOF 5
