REMARK  Name = ZINCrH000004rpcp.0
REMARK                            x       y       z     vdW  Elec       q    Type
REMARK                         _______ _______ _______ _____ _____    ______ ____
ROOT
ATOM      1  C   LIG    1        2.452   4.341  -0.094  0.00  0.00    +0.100 C 
ATOM      2  C   LIG    1        1.366   3.298  -0.154  0.00  0.00    +0.010 A 
ATOM      3  C   LIG    1        0.119   3.568   0.377  0.00  0.00    +0.020 A 
ATOM      4  C   LIG    1       -0.878   2.613   0.324  0.00  0.00    +0.040 A 
ATOM      5  C   LIG    1       -0.625   1.379  -0.259  0.00  0.00    +0.140 A 
ATOM      6  C   LIG    1        0.628   1.113  -0.798  0.00  0.00    +0.140 A 
ATOM      7  C   LIG    1        1.620   2.071  -0.741  0.00  0.00    -0.660 A 
ENDROOT
BRANCH   5   8
ATOM      8  N   LIG    1       -1.631   0.407  -0.309  0.00  0.00    -0.690 N 
ATOM      9  H   LIG    1       -2.555   0.673  -0.436  0.00  0.00    +0.410 HD
ATOM     10  C   LIG    1       -1.315  -0.897  -0.182  0.00  0.00    +0.700 C 
ATOM     11  N   LIG    1       -2.291  -1.824  -0.131  0.00  0.00    -0.730 N 
ATOM     12  H   LIG    1       -3.221  -1.554  -0.186  0.00  0.00    +0.400 HD
ATOM     13  O   LIG    1       -0.149  -1.236  -0.113  0.00  0.00    -0.570 OA
BRANCH  11  14
ATOM     14  C   LIG    1       -1.948  -3.242   0.007  0.00  0.00    +0.260 C 
ATOM     15  C   LIG    1       -1.659  -3.834  -1.373  0.00  0.00    +0.010 C 
ATOM     16  C   LIG    1       -1.301  -5.314  -1.229  0.00  0.00    +0.030 C 
ATOM     17  C   LIG    1       -2.472  -6.062  -0.588  0.00  0.00    -0.070 C 
ATOM     18  C   LIG    1       -2.761  -5.470   0.793  0.00  0.00    +0.040 C 
ATOM     19  C   LIG    1       -2.114  -7.543  -0.444  0.00  0.00    +0.030 C 
ATOM     20  C   LIG    1       -3.712  -5.922  -1.473  0.00  0.00    +0.010 C 
ATOM     21  C   LIG    1       -3.119  -3.990   0.648  0.00  0.00    -0.020 C 
ATOM     22  C   LIG    1       -3.408  -3.398   2.029  0.00  0.00    +0.020 C 
ENDBRANCH  11  14
ENDBRANCH   5   8
BRANCH   7  23
ATOM     23  S   LIG    1        3.212   1.731  -1.417  0.00  0.00    +2.700 S 
ATOM     24  O   LIG    1        3.526   2.822  -2.271  0.00  0.00    -0.950 OA
ATOM     25  O   LIG    1        3.179   0.382  -1.860  0.00  0.00    -0.950 OA
BRANCH  23  26
ATOM     26  N   LIG    1        4.297   1.788  -0.168  0.00  0.00    -1.090 NA
ATOM     27  H   LIG    1        4.979   2.478  -0.149  0.00  0.00    +0.420 HD
BRANCH  26  28
ATOM     28  C   LIG    1        4.227   0.797   0.909  0.00  0.00    +0.220 C 
ATOM     29  C   LIG    1        4.600   1.259   2.320  0.00  0.00    +0.010 C 
ATOM     30  C   LIG    1        5.546   0.343   1.538  0.00  0.00    +0.020 C 
ENDBRANCH  26  28
ENDBRANCH  23  26
ENDBRANCH   7  23
TORSDOF 5
