REMARK  Name = ZINCrH000004t2Mc.0
REMARK                            x       y       z     vdW  Elec       q    Type
REMARK                         _______ _______ _______ _____ _____    ______ ____
ROOT
ATOM      1  C   LIG    1        1.609   3.246   0.115  0.00  0.00    +0.310 C 
ATOM      2  C   LIG    1        2.046   3.568  -1.317  0.00  0.00    +0.030 C 
ATOM      3  C   LIG    1        2.696   4.954  -1.348  0.00  0.00    +0.010 C 
ATOM      4  C   LIG    1        3.937   4.957  -0.452  0.00  0.00    +0.010 C 
ATOM      5  C   LIG    1        3.522   4.649   0.990  0.00  0.00    +0.260 C 
ATOM      6  N   LIG    1        2.768   3.388   1.006  0.00  0.00    -0.620 N 
ATOM      7  C   LIG    1        3.134   2.381   1.824  0.00  0.00    +0.710 C 
ATOM      8  N   LIG    1        4.133   2.560   2.710  0.00  0.00    -0.740 N 
ATOM      9  H   LIG    1        4.537   3.436   2.815  0.00  0.00    +0.400 HD
ATOM     10  O   LIG    1        2.562   1.310   1.762  0.00  0.00    -0.560 OA
ENDROOT
BRANCH   8  11
ATOM     11  C   LIG    1        4.611   1.433   3.514  0.00  0.00    +0.310 C 
ATOM     12  C   LIG    1        5.634   0.629   2.713  0.00  0.00    +0.020 C 
ATOM     13  C   LIG    1        6.491   1.545   1.853  0.00  0.00    +0.010 C 
ATOM     14  C   LIG    1        7.411   2.441   2.657  0.00  0.00    +0.230 C 
ATOM     15  O   LIG    1        6.658   3.368   3.446  0.00  0.00    -0.330 OA
ATOM     16  C   LIG    1        6.262   2.916   4.667  0.00  0.00    +0.130 A 
ATOM     17  C   LIG    1        6.857   3.423   5.815  0.00  0.00    -0.020 A 
ATOM     18  C   LIG    1        6.472   2.945   7.055  0.00  0.00    +0.120 A 
ATOM     19  C   LIG    1        5.498   1.965   7.152  0.00  0.00    -0.020 A 
ATOM     20  C   LIG    1        4.899   1.469   6.008  0.00  0.00    +0.080 A 
ATOM     21  F   LIG    1        7.049   3.435   8.174  0.00  0.00    -0.130 F 
ATOM     22  C   LIG    1        5.275   1.953   4.776  0.00  0.00    -0.140 A 
ENDBRANCH   8  11
BRANCH   1  26
ATOM     23  C   LIG    1       -1.311  -0.738   0.969  0.00  0.00    +0.340 C 
ATOM     24  N   LIG    1       -0.183   0.100   0.554  0.00  0.00    -0.380 N 
ATOM     25  C   LIG    1       -0.102   1.441   0.680  0.00  0.00    +0.210 A 
ATOM     26  C   LIG    1        1.093   1.831   0.179  0.00  0.00    -0.200 A 
ATOM     27  C   LIG    1        1.765   0.689  -0.269  0.00  0.00    +0.280 A 
ATOM     28  N   LIG    1        1.001  -0.349  -0.045  0.00  0.00    -0.300 NA
ENDBRANCH   1  26
TORSDOF 2
