REMARK  Name = ZINCqH0000003bLI.0
REMARK                            x       y       z     vdW  Elec       q    Type
REMARK                         _______ _______ _______ _____ _____    ______ ____
ROOT
ATOM      1  N   LIG    1       -2.411   1.805   3.330  0.00  0.00    -0.730 N 
ATOM      2  H   LIG    1       -3.025   1.378   3.947  0.00  0.00    +0.400 HD
ATOM      3  C   LIG    1       -2.881   2.402   2.217  0.00  0.00    +0.510 C 
ATOM      4  O   LIG    1       -2.126   3.014   1.492  0.00  0.00    -0.510 OA
ENDROOT
BRANCH   1   5
ATOM      5  C   LIG    1       -0.973   1.801   3.607  0.00  0.00    +0.160 C 
ATOM      6  C   LIG    1       -0.477   3.242   3.848  0.00  0.00    +0.050 C 
ATOM      7  C   LIG    1       -0.498   3.398   5.390  0.00  0.00    +0.020 C 
ATOM      8  C   LIG    1       -0.027   2.006   5.881  0.00  0.00    +0.020 C 
ATOM      9  C   LIG    1       -0.687   1.016   4.899  0.00  0.00    +0.040 C 
BRANCH   5  12
ATOM     10  N   LIG    1       -0.778   0.169   1.759  0.00  0.00    -0.730 N 
ATOM     11  H   LIG    1       -1.621  -0.213   2.047  0.00  0.00    +0.400 HD
ATOM     12  C   LIG    1       -0.226   1.185   2.453  0.00  0.00    +0.520 C 
ATOM     13  O   LIG    1        0.871   1.602   2.148  0.00  0.00    -0.530 OA
BRANCH  10  15
ATOM     14  C   LIG    1       -0.933  -1.496  -0.025  0.00  0.00    +0.040 C 
ATOM     15  C   LIG    1       -0.103  -0.357   0.570  0.00  0.00    +0.250 C 
ENDBRANCH  10  15
ENDBRANCH   5  12
ENDBRANCH   1   5
BRANCH   3  16
ATOM     16  C   LIG    1       -4.346   2.309   1.873  0.00  0.00    +0.070 C 
BRANCH  16  17
ATOM     17  C   LIG    1       -4.613   3.067   0.571  0.00  0.00    +0.050 C 
ATOM     18  C   LIG    1       -4.340   4.558   0.783  0.00  0.00    +0.040 C 
BRANCH  17  19
ATOM     19  C   LIG    1       -6.050   2.872   0.162  0.00  0.00    -0.050 A 
ATOM     20  C   LIG    1       -7.069   3.276   1.004  0.00  0.00    +0.010 A 
ATOM     21  C   LIG    1       -8.387   3.102   0.627  0.00  0.00    +0.070 A 
ATOM     22  C   LIG    1       -8.687   2.514  -0.587  0.00  0.00    -0.190 A 
ATOM     23  C   LIG    1       -7.668   2.105  -1.427  0.00  0.00    +0.070 A 
ATOM     24  C   LIG    1       -6.350   2.284  -1.052  0.00  0.00    +0.020 A 
BRANCH  22  25
ATOM     25  C   LIG    1      -10.124   2.318  -0.996  0.00  0.00    +0.510 C 
ATOM     26  F   LIG    1      -10.225   2.376  -2.390  0.00  0.00    -0.180 F 
ATOM     27  F   LIG    1      -10.911   3.327  -0.430  0.00  0.00    -0.180 F 
ATOM     28  F   LIG    1      -10.571   1.071  -0.547  0.00  0.00    -0.180 F 
ENDBRANCH  22  25
ENDBRANCH  17  19
ENDBRANCH  16  17
ENDBRANCH   3  16
TORSDOF 7
