REMARK  Name = ZINCpk000000oEVF.0
REMARK                            x       y       z     vdW  Elec       q    Type
REMARK                         _______ _______ _______ _____ _____    ______ ____
ROOT
ATOM      1  C   LIG    1       -0.068   1.408  -0.541  0.00  0.00    +0.160 A 
ATOM      2  C   LIG    1        1.124   2.096  -0.763  0.00  0.00    +0.020 A 
ATOM      3  C   LIG    1        1.082   3.453  -1.044  0.00  0.00    +0.070 A 
ATOM      4  C   LIG    1       -0.164   4.072  -1.092  0.00  0.00    -0.230 A 
ATOM      5  C   LIG    1       -0.307   5.511  -1.383  0.00  0.00    +0.570 A 
ATOM      6  N   LIG    1       -1.552   6.035  -1.409  0.00  0.00    -0.660 N 
ATOM      7  H   LIG    1       -1.668   6.980  -1.598  0.00  0.00    +0.440 HD
ATOM      8  C   LIG    1       -2.632   5.272  -1.179  0.00  0.00    +0.720 A 
ATOM      9  N   LIG    1       -2.555   3.958  -0.910  0.00  0.00    -0.630 N 
ATOM     10  H   LIG    1       -3.368   3.453  -0.751  0.00  0.00    +0.440 HD
ATOM     11  O   LIG    1       -3.729   5.793  -1.215  0.00  0.00    -0.530 OA
ATOM     12  O   LIG    1        0.668   6.206  -1.592  0.00  0.00    -0.480 OA
ATOM     13  C   LIG    1       -1.329   3.316  -0.857  0.00  0.00    +0.400 A 
ATOM     14  C   LIG    1        2.347   4.234  -1.291  0.00  0.00    +0.140 C 
ATOM     15  N   LIG    1       -1.241   2.025  -0.598  0.00  0.00    -0.490 NA
ENDROOT
BRANCH   1  17
ATOM     16  N   LIG    1       -1.150  -0.694   0.111  0.00  0.00    -0.590 N 
ATOM     17  C   LIG    1       -0.023  -0.044  -0.240  0.00  0.00    +0.570 C 
ATOM     18  O   LIG    1        1.029  -0.647  -0.310  0.00  0.00    -0.510 OA
BRANCH  16  20
ATOM     19  C   LIG    1       -3.012   0.053  -1.288  0.00  0.00    +0.020 C 
ATOM     20  C   LIG    1       -2.431   0.017   0.127  0.00  0.00    +0.280 C 
ENDBRANCH  16  20
BRANCH  16  21
ATOM     21  C   LIG    1       -1.095  -2.112   0.477  0.00  0.00    +0.310 C 
BRANCH  21  22
ATOM     22  C   LIG    1       -0.856  -2.241   1.982  0.00  0.00    +0.130 C 
BRANCH  22  23
ATOM     23  C   LIG    1       -0.799  -3.700   2.358  0.00  0.00    +0.050 A 
ATOM     24  N   LIG    1        0.274  -4.417   2.371  0.00  0.00    -0.470 NA
ATOM     25  C   LIG    1        0.147  -5.679   2.730  0.00  0.00    +0.220 A 
ATOM     26  C   LIG    1       -1.102  -6.049   3.026  0.00  0.00    -0.080 A 
ATOM     27  S   LIG    1       -2.146  -4.644   2.822  0.00  0.00    +0.120 S 
ENDBRANCH  22  23
ENDBRANCH  21  22
ENDBRANCH  16  21
ENDBRANCH   1  17
TORSDOF 5
