REMARK  Name = ZINCvU0000000Edp.0
REMARK                            x       y       z     vdW  Elec       q    Type
REMARK                         _______ _______ _______ _____ _____    ______ ____
ROOT
ATOM      1  C   LIG    1        7.410   1.277   2.276  0.00  0.00    +0.610 C 
ATOM      2  N   LIG    1        6.731   1.850   1.263  0.00  0.00    -0.710 N 
ATOM      3  H   LIG    1        7.209   2.327   0.566  0.00  0.00    +0.410 HD
ATOM      4  O   LIG    1        6.810   0.679   3.148  0.00  0.00    -0.530 OA
ENDROOT
BRANCH   1   7
ATOM      5  C   LIG    1        9.257   0.055   4.489  0.00  0.00    +0.220 C 
ATOM      6  C   LIG    1        9.693   0.846   3.283  0.00  0.00    +0.060 A 
ATOM      7  C   LIG    1        8.880   1.374   2.325  0.00  0.00    -0.080 A 
ATOM      8  N   LIG    1        9.677   2.001   1.422  0.00  0.00    -0.440 NA
ATOM      9  C   LIG    1       10.921   1.874   1.809  0.00  0.00    +0.240 A 
ATOM     10  O   LIG    1       10.954   1.164   2.950  0.00  0.00    -0.190 OA
BRANCH   9  11
ATOM     11  C   LIG    1       12.100   2.418   1.102  0.00  0.00    -0.020 A 
ATOM     12  C   LIG    1       11.936   3.137  -0.083  0.00  0.00    +0.090 A 
ATOM     13  C   LIG    1       13.039   3.647  -0.735  0.00  0.00    +0.040 A 
ATOM     14  C   LIG    1       14.308   3.438  -0.222  0.00  0.00    -0.020 A 
ATOM     15  C   LIG    1       14.477   2.721   0.950  0.00  0.00    +0.030 A 
ATOM     16 CL   LIG    1       15.692   4.076  -1.053  0.00  0.00    -0.060 Cl
ATOM     17  C   LIG    1       13.382   2.210   1.614  0.00  0.00    +0.070 A 
ENDBRANCH   9  11
ENDBRANCH   1   7
BRANCH   2  18
ATOM     18  C   LIG    1        5.269   1.754   1.213  0.00  0.00    +0.290 C 
BRANCH  18  19
ATOM     19  C   LIG    1        4.752   2.484  -0.028  0.00  0.00    +0.070 C 
ATOM     20  C   LIG    1        5.248   1.767  -1.285  0.00  0.00    +0.070 C 
BRANCH  19  21
ATOM     21  C   LIG    1        3.245   2.491  -0.015  0.00  0.00    +0.310 A 
ATOM     22  N   LIG    1        2.495   1.428  -0.013  0.00  0.00    -0.460 NA
ATOM     23  C   LIG    1        1.187   1.792   0.000  0.00  0.00    +0.050 A 
ATOM     24  C   LIG    1       -0.013   1.076   0.008  0.00  0.00    +0.080 A 
ATOM     25  C   LIG    1       -1.204   1.744   0.017  0.00  0.00    +0.020 A 
ATOM     26  C   LIG    1       -1.238   3.131   0.030  0.00  0.00    +0.050 A 
ATOM     27  C   LIG    1       -0.067   3.858   0.022  0.00  0.00    +0.020 A 
ATOM     28  C   LIG    1        1.153   3.197   0.008  0.00  0.00    +0.060 A 
ATOM     29  N   LIG    1        2.471   3.609  -0.002  0.00  0.00    -0.540 N 
BRANCH  29  30
ATOM     30  C   LIG    1        2.947   4.995   0.001  0.00  0.00    +0.640 C 
ATOM     31  F   LIG    1        3.712   5.228  -1.147  0.00  0.00    -0.180 F 
ATOM     32  F   LIG    1        3.732   5.215   1.138  0.00  0.00    -0.180 F 
ENDBRANCH  29  30
ENDBRANCH  19  21
ENDBRANCH  18  19
ENDBRANCH   2  18
TORSDOF 6
