REMARK  Name = ZINCpe000000YwAY.0
REMARK                            x       y       z     vdW  Elec       q    Type
REMARK                         _______ _______ _______ _____ _____    ______ ____
ROOT
ATOM      1  C   LIG    1       -5.450   4.298   3.210  0.00  0.00    +0.560 C 
ATOM      2  N   LIG    1       -4.216   4.002   3.663  0.00  0.00    -0.600 N 
ATOM      3  C   LIG    1       -3.950   3.910   5.105  0.00  0.00    +0.270 C 
ATOM      4  C   LIG    1       -3.301   2.554   5.401  0.00  0.00    +0.030 C 
ATOM      5  C   LIG    1       -2.060   2.385   4.521  0.00  0.00    +0.060 C 
ATOM      6  C   LIG    1       -2.471   2.412   3.047  0.00  0.00    -0.470 C 
ATOM      7  C   LIG    1       -3.111   3.766   2.725  0.00  0.00    +0.330 C 
ATOM      8  O   LIG    1       -5.642   4.440   2.018  0.00  0.00    -0.520 OA
ENDROOT
BRANCH   1  13
ATOM      9  C   LIG    1       -8.814   3.910   4.859  0.00  0.00    -0.020 A 
ATOM     10  C   LIG    1       -8.666   4.751   5.964  0.00  0.00    +0.090 A 
ATOM     11  C   LIG    1       -7.482   5.433   6.163  0.00  0.00    +0.020 A 
ATOM     12  C   LIG    1       -6.437   5.289   5.273  0.00  0.00    +0.080 A 
ATOM     13  C   LIG    1       -6.571   4.451   4.163  0.00  0.00    -0.130 A 
ATOM     14  C   LIG    1       -7.764   3.764   3.953  0.00  0.00    +0.120 A 
BRANCH   9  16
ATOM     15  N   LIG    1      -11.017   2.643   4.490  0.00  0.00    -0.400 NA
ATOM     16  C   LIG    1      -10.042   3.204   4.653  0.00  0.00    +0.250 C 
ENDBRANCH   9  16
ENDBRANCH   1  13
BRANCH   6  17
ATOM     17  S   LIG    1       -1.005   2.172   2.006  0.00  0.00    +2.610 S 
ATOM     18  O   LIG    1       -0.088   3.243   2.181  0.00  0.00    -0.940 OA
ATOM     19  O   LIG    1       -0.571   0.819   2.060  0.00  0.00    -0.940 OA
BRANCH  17  20
ATOM     20  N   LIG    1       -1.562   2.360   0.458  0.00  0.00    -1.000 NA
ATOM     21  C   LIG    1       -2.063   1.210  -0.311  0.00  0.00    +0.260 C 
ATOM     22  C   LIG    1       -1.367   1.203  -1.678  0.00  0.00    +0.220 C 
ATOM     23  O   LIG    1       -1.513   2.488  -2.287  0.00  0.00    -0.380 OA
ATOM     24  C   LIG    1       -0.898   3.554  -1.560  0.00  0.00    +0.220 C 
ATOM     25  C   LIG    1       -1.571   3.682  -0.188  0.00  0.00    +0.260 C 
ENDBRANCH  17  20
ENDBRANCH   6  17
TORSDOF 4
