REMARK  Name = ZINCrm000000OVNd.0
REMARK                            x       y       z     vdW  Elec       q    Type
REMARK                         _______ _______ _______ _____ _____    ______ ____
ROOT
ATOM      1  N   LIG    1        6.504   2.103  -0.239  0.00  0.00    -0.670 N 
ATOM      2  H   LIG    1        6.308   3.017   0.019  0.00  0.00    +0.420 HD
ENDROOT
BRANCH   1   7
ATOM      3  C   LIG    1        3.376   0.517   0.388  0.00  0.00    +0.560 A 
ATOM      4  N   LIG    1        3.651  -0.735   0.032  0.00  0.00    -0.630 NA
ATOM      5  C   LIG    1        4.857  -1.049  -0.409  0.00  0.00    +0.620 A 
ATOM      6  N   LIG    1        5.793  -0.121  -0.499  0.00  0.00    -0.610 NA
ATOM      7  C   LIG    1        5.525   1.134  -0.145  0.00  0.00    +0.620 A 
ATOM      8  N   LIG    1        4.313   1.454   0.294  0.00  0.00    -0.610 NA
BRANCH   3  12
ATOM      9  C   LIG    1        0.002  -0.004   0.002  0.00  0.00    +0.160 C 
ATOM     10  C   LIG    1       -0.019   1.547   0.011  0.00  0.00    +0.080 C 
ATOM     11  C   LIG    1        1.494   1.881  -0.002  0.00  0.00    +0.250 C 
ATOM     12  N   LIG    1        2.116   0.844   0.848  0.00  0.00    -0.440 N 
ATOM     13  C   LIG    1        1.237  -0.340   0.865  0.00  0.00    +0.270 C 
BRANCH   9  14
ATOM     14  N   LIG    1       -1.220  -0.543   0.612  0.00  0.00    -0.630 N 
ATOM     15  H   LIG    1       -1.289  -0.224   1.567  0.00  0.00    +0.440 HD
ATOM     16  H   LIG    1       -1.187  -1.552   0.597  0.00  0.00    +0.440 HD
ATOM     17  H   LIG    1       -2.025  -0.226   0.092  0.00  0.00    +0.440 HD
ENDBRANCH   9  14
ENDBRANCH   3  12
ENDBRANCH   1   7
BRANCH   1  18
ATOM     18  C   LIG    1        7.839   1.750  -0.729  0.00  0.00    +0.300 C 
BRANCH  18  19
ATOM     19  C   LIG    1        8.726   2.997  -0.735  0.00  0.00    +0.040 C 
BRANCH  19  20
ATOM     20  C   LIG    1       10.152   2.606  -1.127  0.00  0.00    +0.010 C 
ATOM     21  C   LIG    1       10.703   1.597  -0.115  0.00  0.00    +0.060 C 
ATOM     22  C   LIG    1       12.157   1.273  -0.466  0.00  0.00    +0.260 C 
ATOM     23  N   LIG    1       12.961   2.500  -0.425  0.00  0.00    -0.510 N 
ATOM     24  C   LIG    1       12.482   3.443  -1.444  0.00  0.00    +0.260 C 
ATOM     25  H   LIG    1       12.880   2.923   0.487  0.00  0.00    +0.430 HD
ATOM     26  H   LIG    1       13.927   2.274  -0.606  0.00  0.00    +0.430 HD
ATOM     27  C   LIG    1       11.042   3.852  -1.129  0.00  0.00    +0.070 C 
ENDBRANCH  19  20
BRANCH  19  28
ATOM     28  C   LIG    1        8.186   3.992  -1.729  0.00  0.00    -0.100 A 
ATOM     29  C   LIG    1        8.089   3.651  -3.065  0.00  0.00    +0.010 A 
ATOM     30  C   LIG    1        7.590   4.563  -3.977  0.00  0.00    +0.020 A 
ATOM     31  C   LIG    1        7.197   5.819  -3.554  0.00  0.00    +0.020 A 
ATOM     32  C   LIG    1        7.299   6.162  -2.219  0.00  0.00    +0.020 A 
ATOM     33  C   LIG    1        7.794   5.248  -1.307  0.00  0.00    +0.000 A 
ENDBRANCH  19  28
ENDBRANCH  18  19
ENDBRANCH   1  18
TORSDOF 7
