REMARK  Name = ZINCrH000004qELA.0
REMARK                            x       y       z     vdW  Elec       q    Type
REMARK                         _______ _______ _______ _____ _____    ______ ____
ROOT
ATOM      1  N   LIG    1       -6.965   2.983   5.000  0.00  0.00    -1.110 NA
ATOM      2  H   LIG    1       -7.333   2.517   4.233  0.00  0.00    +0.420 HD
ENDROOT
BRANCH   1   3
ATOM      3  S   LIG    1       -7.958   3.451   6.240  0.00  0.00    +2.690 S 
ATOM      4  O   LIG    1       -7.330   3.024   7.440  0.00  0.00    -0.930 OA
ATOM      5  O   LIG    1       -9.273   3.060   5.869  0.00  0.00    -0.940 OA
BRANCH   3  11
ATOM      6  C   LIG    1       -6.173   8.001   8.097  0.00  0.00    +0.120 C 
ATOM      7  C   LIG    1       -7.100   7.268   7.162  0.00  0.00    -0.090 A 
ATOM      8  C   LIG    1       -7.946   7.978   6.331  0.00  0.00    +0.110 A 
ATOM      9  C   LIG    1       -8.797   7.305   5.472  0.00  0.00    -0.060 A 
ATOM     10  C   LIG    1       -8.797   5.922   5.441  0.00  0.00    +0.040 A 
ATOM     11  C   LIG    1       -7.954   5.212   6.275  0.00  0.00    -0.670 A 
ATOM     12  C   LIG    1       -9.719   5.190   4.500  0.00  0.00    +0.140 C 
ATOM     13 CL   LIG    1       -9.860   8.197   4.428  0.00  0.00    -0.040 Cl
ATOM     14  C   LIG    1       -7.104   5.885   7.135  0.00  0.00    +0.050 A 
ATOM     15 CL   LIG    1       -6.041   4.993   8.178  0.00  0.00    -0.010 Cl
ENDBRANCH   3  11
ENDBRANCH   1   3
BRANCH   1  16
ATOM     16  C   LIG    1       -5.530   3.274   5.061  0.00  0.00    +0.320 C 
BRANCH  16  17
ATOM     17  C   LIG    1       -4.806   2.447   4.031  0.00  0.00    -0.090 A 
ATOM     18  C   LIG    1       -4.617   2.944   2.754  0.00  0.00    +0.030 A 
ATOM     19  C   LIG    1       -3.952   2.185   1.809  0.00  0.00    +0.050 A 
ATOM     20  C   LIG    1       -3.477   0.930   2.140  0.00  0.00    -0.110 A 
ATOM     21  C   LIG    1       -3.671   0.431   3.414  0.00  0.00    +0.030 A 
ATOM     22  C   LIG    1       -4.330   1.192   4.361  0.00  0.00    +0.030 A 
BRANCH  20  23
ATOM     23  C   LIG    1       -2.753   0.103   1.109  0.00  0.00    +0.380 C 
BRANCH  23  24
ATOM     24  N   LIG    1       -1.318   0.393   1.169  0.00  0.00    -0.380 N 
ATOM     25  C   LIG    1       -0.323  -0.495   1.337  0.00  0.00    +0.470 A 
ATOM     26  N   LIG    1        0.810   0.159   1.330  0.00  0.00    -0.550 NA
ATOM     27  C   LIG    1        0.579   1.461   1.167  0.00  0.00    +0.420 A 
ATOM     28  N   LIG    1       -0.710   1.655   1.067  0.00  0.00    -0.310 NA
ENDBRANCH  23  24
ENDBRANCH  20  23
ENDBRANCH  16  17
ENDBRANCH   1  16
TORSDOF 6
