REMARK  Name = ZINCrm00000IZ4F0.1
REMARK                            x       y       z     vdW  Elec       q    Type
REMARK                         _______ _______ _______ _____ _____    ______ ____
ROOT
ATOM      1  C   LIG    1        2.072  -4.269  -0.058  0.00  0.00    +0.170 C 
ATOM      2  C   LIG    1        3.224  -4.907   0.757  0.00  0.00    +0.100 C 
ATOM      3  C   LIG    1        3.438  -3.853   1.875  0.00  0.00    +0.170 C 
ATOM      4  C   LIG    1        3.178  -2.517   1.148  0.00  0.00    +0.230 C 
ATOM      5  N   LIG    1        2.352  -2.818  -0.036  0.00  0.00    -0.460 NA
ENDROOT
BRANCH   5   6
ATOM      6  C   LIG    1        1.176  -2.084  -0.020  0.00  0.00    +0.390 C 
ATOM      7  C   LIG    1        1.211  -0.694  -0.013  0.00  0.00    -0.060 C 
ATOM      8  C   LIG    1        0.002  -0.004   0.002  0.00  0.00    +0.500 C 
ATOM      9  N   LIG    1       -1.136  -0.695   0.015  0.00  0.00    -0.560 NA
ATOM     10  C   LIG    1       -1.127  -2.013   0.002  0.00  0.00    +0.690 C 
ATOM     11  H   LIG    1       -1.983  -0.222   0.029  0.00  0.00    +0.460 HD
ATOM     12  N   LIG    1       -0.005  -2.701  -0.013  0.00  0.00    -0.560 NA
BRANCH   8  13
ATOM     13  N   LIG    1       -0.017   1.382   0.010  0.00  0.00    -0.780 NA
ATOM     14  H   LIG    1       -0.863   1.856   0.016  0.00  0.00    +0.430 HD
ATOM     15  H   LIG    1        0.817   1.878   0.004  0.00  0.00    +0.450 HD
ENDBRANCH   8  13
ENDBRANCH   5   6
BRANCH   3  16
ATOM     16  O   LIG    1        4.777  -3.906   2.371  0.00  0.00    -0.540 OA
ATOM     17  H   LIG    1        4.984  -3.218   3.018  0.00  0.00    +0.400 HD
ENDBRANCH   3  16
BRANCH   1  18
ATOM     18  C   LIG    1        2.084  -4.792  -1.496  0.00  0.00    +0.300 C 
BRANCH  18  19
ATOM     19  N   LIG    1        1.141  -4.012  -2.309  0.00  0.00    -0.510 N 
ATOM     20  H   LIG    1        1.414  -3.041  -2.302  0.00  0.00    +0.410 HD
ATOM     21  H   LIG    1        0.212  -4.103  -1.926  0.00  0.00    +0.420 HD
BRANCH  19  22
ATOM     22  C   LIG    1        1.153  -4.514  -3.689  0.00  0.00    +0.170 C 
ATOM     23  C   LIG    1        2.528  -4.262  -4.312  0.00  0.00    +0.100 C 
BRANCH  22  24
ATOM     24  C   LIG    1        0.082  -3.787  -4.506  0.00  0.00    +0.060 C 
BRANCH  24  25
ATOM     25  C   LIG    1       -1.302  -4.139  -3.959  0.00  0.00    +0.060 C 
BRANCH  25  29
ATOM     26  C   LIG    1       -4.293  -2.108  -6.238  0.00  0.00    +0.150 A 
ATOM     27  C   LIG    1       -3.867  -3.372  -6.620  0.00  0.00    +0.000 A 
ATOM     28  C   LIG    1       -2.900  -4.026  -5.882  0.00  0.00    +0.060 A 
ATOM     29  C   LIG    1       -2.357  -3.423  -4.763  0.00  0.00    -0.150 A 
ATOM     30  C   LIG    1       -2.784  -2.166  -4.377  0.00  0.00    +0.030 A 
ATOM     31  C   LIG    1       -3.746  -1.505  -5.115  0.00  0.00    -0.080 A 
BRANCH  26  33
ATOM     32  C   LIG    1       -5.635  -0.165  -6.511  0.00  0.00    +0.250 C 
ATOM     33  O   LIG    1       -5.244  -1.463  -6.963  0.00  0.00    -0.310 OA
ENDBRANCH  26  33
ENDBRANCH  25  29
ENDBRANCH  24  25
ENDBRANCH  22  24
ENDBRANCH  19  22
ENDBRANCH  18  19
ENDBRANCH   1  18
TORSDOF 10
