REMARK  Name = ZINCpe00000c2qcK.0
REMARK                            x       y       z     vdW  Elec       q    Type
REMARK                         _______ _______ _______ _____ _____    ______ ____
ROOT
ATOM      1  C   LIG    1       -0.456   3.843  -2.151  0.00  0.00    +0.600 C 
ATOM      2  N   LIG    1        0.012   3.194  -1.067  0.00  0.00    -0.610 N 
ATOM      3  C   LIG    1        0.413   3.937   0.136  0.00  0.00    +0.260 C 
ATOM      4  C   LIG    1        1.843   3.535   0.510  0.00  0.00    +0.020 C 
ATOM      5  C   LIG    1        1.920   2.013   0.657  0.00  0.00    -0.010 C 
ATOM      6  C   LIG    1        1.564   1.352  -0.677  0.00  0.00    -0.010 C 
ATOM      7  C   LIG    1        2.530   1.835  -1.760  0.00  0.00    +0.030 C 
ATOM      8  C   LIG    1        0.131   1.729  -1.064  0.00  0.00    +0.290 C 
ATOM      9  O   LIG    1       -0.687   3.229  -3.175  0.00  0.00    -0.530 OA
ENDROOT
BRANCH   1  16
ATOM     10  C   LIG    1        0.231   5.920  -4.450  0.00  0.00    +0.170 C 
ATOM     11  C   LIG    1       -0.386   6.234  -3.112  0.00  0.00    +0.130 A 
ATOM     12  N   LIG    1       -0.739   7.416  -2.688  0.00  0.00    -0.290 NA
ATOM     13  N   LIG    1       -1.266   7.296  -1.397  0.00  0.00    -0.460 N 
ATOM     14  H   LIG    1       -1.600   8.026  -0.852  0.00  0.00    +0.450 HD
ATOM     15  C   LIG    1       -1.231   6.002  -1.041  0.00  0.00    +0.290 A 
ATOM     16  C   LIG    1       -0.687   5.298  -2.096  0.00  0.00    -0.280 A 
ENDBRANCH   1  16
BRANCH   5  17
ATOM     17  C   LIG    1        3.338   1.610   1.063  0.00  0.00    +0.260 C 
BRANCH  17  18
ATOM     18  N   LIG    1        3.635   2.145   2.395  0.00  0.00    -0.730 N 
ATOM     19  H   LIG    1        2.967   2.665   2.868  0.00  0.00    +0.400 HD
ATOM     20  C   LIG    1        4.836   1.915   2.961  0.00  0.00    +0.510 C 
ATOM     21  O   LIG    1        5.671   1.264   2.369  0.00  0.00    -0.530 OA
BRANCH  20  22
ATOM     22  C   LIG    1        5.142   2.465   4.330  0.00  0.00    +0.140 C 
BRANCH  22  23
ATOM     23  C   LIG    1        6.539   2.068   4.731  0.00  0.00    -0.230 A 
ATOM     24  C   LIG    1        7.668   2.774   4.488  0.00  0.00    +0.240 A 
ATOM     25  N   LIG    1        8.705   2.082   5.004  0.00  0.00    -0.480 N 
ATOM     26  H   LIG    1        9.638   2.347   4.978  0.00  0.00    +0.440 HD
ATOM     27  N   LIG    1        8.197   0.912   5.584  0.00  0.00    -0.290 NA
ATOM     28  C   LIG    1        6.898   0.908   5.425  0.00  0.00    +0.250 A 
ENDBRANCH  22  23
ENDBRANCH  20  22
ENDBRANCH  17  18
ENDBRANCH   5  17
TORSDOF 5
