REMARK  Name = ZINCtj00000roFQw.1
REMARK                            x       y       z     vdW  Elec       q    Type
REMARK                         _______ _______ _______ _____ _____    ______ ____
ROOT
ATOM      1  N   LIG    1        2.265   3.942   0.001  0.00  0.00    -0.480 NA
ATOM      2  C   LIG    1        3.080   3.657  -1.208  0.00  0.00    +0.210 C 
ATOM      3  C   LIG    1        4.495   4.141  -0.805  0.00  0.00    +0.190 C 
ATOM      4  C   LIG    1        4.586   3.740   0.685  0.00  0.00    +0.260 C 
ATOM      5  C   LIG    1        3.126   3.604   1.156  0.00  0.00    +0.220 C 
ENDROOT
BRANCH   1   8
ATOM      6  C   LIG    1       -1.196   3.054   0.030  0.00  0.00    +0.630 C 
ATOM      7  N   LIG    1       -0.085   3.776   0.023  0.00  0.00    -0.500 NA
ATOM      8  C   LIG    1        1.105   3.185   0.009  0.00  0.00    +0.480 C 
ATOM      9  C   LIG    1        1.170   1.790   0.001  0.00  0.00    -0.080 C 
ATOM     10  C   LIG    1       -0.013   1.076   0.008  0.00  0.00    +0.440 C 
ATOM     11  N   LIG    1       -1.165   1.730   0.017  0.00  0.00    -0.550 NA
ATOM     12  H   LIG    1       -1.997   1.232   0.018  0.00  0.00    +0.450 HD
BRANCH   6  14
ATOM     13  C   LIG    1       -3.660   2.920   0.053  0.00  0.00    +0.330 C 
ATOM     14  N   LIG    1       -2.420   3.700   0.045  0.00  0.00    -0.660 NA
ATOM     15  H   LIG    1       -2.457   4.670   0.051  0.00  0.00    +0.450 HD
ENDBRANCH   6  14
ENDBRANCH   1   8
BRANCH   4  16
ATOM     16  N   LIG    1        5.286   2.461   0.826  0.00  0.00    -0.710 N 
ATOM     17  H   LIG    1        5.295   1.829   0.089  0.00  0.00    +0.410 HD
ATOM     18  C   LIG    1        5.917   2.160   1.978  0.00  0.00    +0.570 C 
ATOM     19  O   LIG    1        5.906   2.952   2.901  0.00  0.00    -0.530 OA
BRANCH  18  20
ATOM     20  C   LIG    1        6.623   0.872   2.119  0.00  0.00    -0.140 A 
ATOM     21  C   LIG    1        6.630  -0.042   1.057  0.00  0.00    +0.030 A 
ATOM     22  C   LIG    1        7.282  -1.232   1.172  0.00  0.00    +0.070 A 
ATOM     23  C   LIG    1        7.942  -1.558   2.363  0.00  0.00    +0.080 A 
ATOM     24  N   LIG    1        8.653  -2.638   2.768  0.00  0.00    -0.500 NA
ATOM     25  C   LIG    1        9.072  -2.457   3.988  0.00  0.00    +0.300 A 
ATOM     26  N   LIG    1        8.658  -1.248   4.449  0.00  0.00    -0.490 N 
ATOM     27  C   LIG    1        8.928  -0.685   5.774  0.00  0.00    +0.330 C 
ATOM     28  C   LIG    1        9.895  -3.444   4.774  0.00  0.00    +0.190 C 
ATOM     29  C   LIG    1        7.934  -0.648   3.436  0.00  0.00    +0.030 A 
ATOM     30  C   LIG    1        7.275   0.562   3.312  0.00  0.00    +0.110 A 
ENDBRANCH  18  20
ENDBRANCH   4  16
BRANCH   3  31
ATOM     31  O   LIG    1        5.497   3.470  -1.571  0.00  0.00    -0.370 OA
ATOM     32  C   LIG    1        5.864   4.152  -2.772  0.00  0.00    +0.230 C 
ENDBRANCH   3  31
TORSDOF 5
