REMARK  Name = ZINCvU0000000Ej3.0
REMARK                            x       y       z     vdW  Elec       q    Type
REMARK                         _______ _______ _______ _____ _____    ______ ____
ROOT
ATOM      1  C   LIG    1        2.817  -4.564   0.038  0.00  0.00    +0.140 A 
ATOM      2  N   LIG    1        1.666  -5.160  -0.169  0.00  0.00    -0.290 NA
ATOM      3  N   LIG    1        1.833  -6.433  -0.234  0.00  0.00    -0.280 NA
ATOM      4  C   LIG    1        3.101  -6.728  -0.064  0.00  0.00    +0.270 A 
ATOM      5  N   LIG    1        3.771  -5.540   0.115  0.00  0.00    -0.450 N 
ENDROOT
BRANCH   4   6
ATOM      6  C   LIG    1        3.697  -8.082  -0.065  0.00  0.00    -0.130 A 
ATOM      7  C   LIG    1        3.037  -9.269  -0.127  0.00  0.00    +0.070 A 
ATOM      8  O   LIG    1        3.941 -10.259  -0.104  0.00  0.00    -0.170 OA
ATOM      9  C   LIG    1        5.186  -9.764  -0.027  0.00  0.00    +0.190 A 
ATOM     10  C   LIG    1        1.542  -9.443  -0.210  0.00  0.00    +0.200 C 
ATOM     11  C   LIG    1        5.124  -8.422  -0.005  0.00  0.00    -0.050 A 
ENDBRANCH   4   6
BRANCH   1  12
ATOM     12  S   LIG    1        3.082  -2.829   0.194  0.00  0.00    +0.080 S 
BRANCH  12  13
ATOM     13  C   LIG    1        1.387  -2.232  -0.020  0.00  0.00    +0.110 C 
BRANCH  13  15
ATOM     14  N   LIG    1        0.205  -0.059  -0.051  0.00  0.00    -0.570 N 
ATOM     15  C   LIG    1        1.368  -0.728   0.078  0.00  0.00    +0.540 C 
ATOM     16  O   LIG    1        2.399  -0.120   0.273  0.00  0.00    -0.510 OA
BRANCH  14  17
ATOM     17  C   LIG    1        0.201   1.333  -0.067  0.00  0.00    +0.110 C 
ATOM     18  C   LIG    1       -0.431   1.955   0.890  0.00  0.00    -0.050 C 
ATOM     19  C   LIG    1       -0.524   3.449   1.000  0.00  0.00    +0.080 C 
ATOM     20  C   LIG    1        0.535   4.111   0.116  0.00  0.00    +0.020 C 
ATOM     21  C   LIG    1        0.460   3.485  -1.282  0.00  0.00    +0.030 C 
ATOM     22  C   LIG    1        0.918   2.028  -1.187  0.00  0.00    +0.070 C 
ENDBRANCH  14  17
BRANCH  14  24
ATOM     23  C   LIG    1       -1.331  -1.088  -1.652  0.00  0.00    +0.020 C 
ATOM     24  C   LIG    1       -1.055  -0.796  -0.176  0.00  0.00    +0.280 C 
ENDBRANCH  14  24
ENDBRANCH  13  15
ENDBRANCH  12  13
ENDBRANCH   1  12
BRANCH   5  25
ATOM     25  C   LIG    1        5.207  -5.359   0.342  0.00  0.00    +0.360 C 
BRANCH  25  26
ATOM     26  C   LIG    1        5.482  -5.329   1.823  0.00  0.00    -0.130 A 
ATOM     27  C   LIG    1        5.404  -4.136   2.517  0.00  0.00    +0.040 A 
ATOM     28  C   LIG    1        5.651  -4.110   3.877  0.00  0.00    +0.010 A 
ATOM     29  C   LIG    1        5.987  -5.275   4.541  0.00  0.00    +0.030 A 
ATOM     30  C   LIG    1        6.071  -6.468   3.846  0.00  0.00    +0.010 A 
ATOM     31  C   LIG    1        5.818  -6.495   2.487  0.00  0.00    +0.030 A 
ENDBRANCH  25  26
ENDBRANCH   5  25
TORSDOF 8
