REMARK  Name = ZINCpk00000y0mxz.0
REMARK                            x       y       z     vdW  Elec       q    Type
REMARK                         _______ _______ _______ _____ _____    ______ ____
ROOT
ATOM      1  C   LIG    1        1.082   1.927   0.661  0.00  0.00    +0.280 C 
ATOM      2  C   LIG    1       -0.307   1.435   0.241  0.00  0.00    +0.290 C 
ATOM      3  N   LIG    1       -0.285  -0.036   0.195  0.00  0.00    -0.610 N 
ATOM      4  C   LIG    1        0.240  -0.756   1.366  0.00  0.00    +0.260 C 
ATOM      5  C   LIG    1        1.603  -0.157   1.731  0.00  0.00    +0.230 C 
ATOM      6  C   LIG    1       -0.731  -0.703  -0.887  0.00  0.00    +0.610 C 
ATOM      7  O   LIG    1       -1.233  -0.094  -1.813  0.00  0.00    -0.530 OA
ATOM      8  O   LIG    1        1.474   1.260   1.864  0.00  0.00    -0.360 OA
ENDROOT
BRANCH   6   9
ATOM      9  C   LIG    1       -0.612  -2.163  -0.949  0.00  0.00    -0.270 A 
ATOM     10  C   LIG    1       -0.120  -2.920  -2.030  0.00  0.00    +0.100 A 
ATOM     11  C   LIG    1        0.388  -2.580  -3.289  0.00  0.00    +0.120 A 
ATOM     12  C   LIG    1        0.801  -3.574  -4.129  0.00  0.00    +0.010 A 
ATOM     13  C   LIG    1        0.719  -4.909  -3.724  0.00  0.00    +0.330 A 
ATOM     14  N   LIG    1        0.249  -5.227  -2.546  0.00  0.00    -0.210 NA
ATOM     15  N   LIG    1       -0.184  -4.234  -1.658  0.00  0.00    -0.170 N 
ATOM     16  N   LIG    1       -0.718  -4.289  -0.366  0.00  0.00    -0.250 NA
ATOM     17  C   LIG    1       -0.972  -3.075   0.056  0.00  0.00    +0.300 A 
ENDBRANCH   6   9
BRANCH   1  21
ATOM     18  C   LIG    1        1.276   5.542   0.689  0.00  0.00    +0.180 A 
ATOM     19  N   LIG    1        0.659   5.285   1.807  0.00  0.00    -0.280 NA
ATOM     20  N   LIG    1        0.516   4.013   1.934  0.00  0.00    -0.250 NA
ATOM     21  C   LIG    1        1.038   3.414   0.902  0.00  0.00    +0.160 A 
ATOM     22  O   LIG    1        1.536   4.365   0.093  0.00  0.00    -0.220 OA
BRANCH  18  24
ATOM     23  C   LIG    1        0.367   7.735  -0.025  0.00  0.00    +0.060 C 
ATOM     24  C   LIG    1        1.639   6.906   0.163  0.00  0.00    +0.100 C 
ATOM     25  C   LIG    1        2.563   7.609   1.161  0.00  0.00    +0.060 C 
ENDBRANCH  18  24
ENDBRANCH   1  21
TORSDOF 3
