REMARK  Name = ZINCpe00000MJJ8x.0
REMARK                            x       y       z     vdW  Elec       q    Type
REMARK                         _______ _______ _______ _____ _____    ______ ____
ROOT
ATOM      1  C   LIG    1        2.654   1.402  -0.257  0.00  0.00    +0.260 C 
ATOM      2  C   LIG    1        2.691   0.015  -0.903  0.00  0.00    +0.030 C 
ATOM      3  C   LIG    1        4.097  -0.575  -0.767  0.00  0.00    +0.040 C 
ATOM      4  C   LIG    1        4.442  -0.724   0.718  0.00  0.00    +0.290 C 
ATOM      5  N   LIG    1        4.269   0.578   1.376  0.00  0.00    -0.580 N 
ATOM      6  C   LIG    1        2.983   1.276   1.234  0.00  0.00    +0.300 C 
ENDROOT
BRANCH   5   7
ATOM      7  C   LIG    1        5.301   1.139   2.121  0.00  0.00    +0.400 A 
ATOM      8  N   LIG    1        6.478   0.554   2.146  0.00  0.00    -0.290 NA
ATOM      9  N   LIG    1        7.527   1.105   2.884  0.00  0.00    -0.160 N 
ATOM     10  N   LIG    1        8.859   0.728   3.099  0.00  0.00    -0.270 NA
ATOM     11  C   LIG    1        9.391   1.627   3.897  0.00  0.00    +0.230 A 
ATOM     12  N   LIG    1        8.486   2.544   4.200  0.00  0.00    -0.510 NA
ATOM     13  C   LIG    1       10.815   1.616   4.393  0.00  0.00    +0.210 C 
ATOM     14  C   LIG    1        7.337   2.255   3.598  0.00  0.00    +0.210 A 
ATOM     15  C   LIG    1        6.077   2.879   3.576  0.00  0.00    +0.170 A 
ATOM     16  C   LIG    1        5.074   2.323   2.844  0.00  0.00    +0.000 A 
ENDBRANCH   5   7
BRANCH   1  19
ATOM     17  C   LIG    1       -0.227   3.423  -0.702  0.00  0.00    -0.010 A 
ATOM     18  N   LIG    1        1.072   3.227  -0.599  0.00  0.00    -0.260 NA
ATOM     19  N   LIG    1        1.317   1.979  -0.415  0.00  0.00    -0.280 N 
ATOM     20  C   LIG    1        0.164   1.277  -0.388  0.00  0.00    +0.170 A 
ATOM     21  C   LIG    1       -0.847   2.157  -0.573  0.00  0.00    -0.010 A 
BRANCH  17  25
ATOM     22  C   LIG    1       -0.857   7.131  -1.242  0.00  0.00    +0.290 C 
ATOM     23  N   LIG    1       -0.183   5.848  -1.028  0.00  0.00    -0.720 N 
ATOM     24  H   LIG    1        0.785   5.813  -0.966  0.00  0.00    +0.410 HD
ATOM     25  C   LIG    1       -0.907   4.717  -0.918  0.00  0.00    +0.600 C 
ATOM     26  O   LIG    1       -2.119   4.761  -0.996  0.00  0.00    -0.530 OA
ENDBRANCH  17  25
ENDBRANCH   1  19
TORSDOF 3
