REMARK  Name = ZINCvU00000009kQ.0
REMARK                            x       y       z     vdW  Elec       q    Type
REMARK                         _______ _______ _______ _____ _____    ______ ____
ROOT
ATOM      1  N   LIG    1       -2.747   0.465   1.211  0.00  0.00    -0.460 N 
ATOM      2  C   LIG    1       -3.373   0.267   2.536  0.00  0.00    +0.200 C 
ATOM      3  C   LIG    1       -2.248   0.346   3.584  0.00  0.00    -0.070 C 
ATOM      4  C   LIG    1       -0.962   0.630   2.775  0.00  0.00    +0.070 C 
ATOM      5  C   LIG    1       -2.124  -0.983   4.332  0.00  0.00    +0.040 C 
ATOM      6  C   LIG    1       -2.518   1.486   4.569  0.00  0.00    +0.040 C 
ATOM      7  C   LIG    1       -1.508   1.244   1.461  0.00  0.00    +0.140 C 
ENDROOT
BRANCH   1  16
ATOM      8  C   LIG    1       -3.063  -1.853  -0.590  0.00  0.00    +0.120 C 
ATOM      9  C   LIG    1       -3.938  -0.845  -1.290  0.00  0.00    -0.040 A 
ATOM     10  C   LIG    1       -4.590  -1.121  -2.402  0.00  0.00    -0.030 A 
ATOM     11  S   LIG    1       -5.514   0.261  -2.961  0.00  0.00    +0.170 S 
ATOM     12  C   LIG    1       -4.981   1.250  -1.610  0.00  0.00    +0.090 A 
ATOM     13  N   LIG    1       -5.255   2.518  -1.282  0.00  0.00    -0.490 NA
ATOM     14  C   LIG    1       -4.737   3.066  -0.207  0.00  0.00    +0.340 A 
ATOM     15  N   LIG    1       -3.931   2.403   0.602  0.00  0.00    -0.550 NA
ATOM     16  C   LIG    1       -3.596   1.145   0.357  0.00  0.00    +0.400 A 
ATOM     17  C   LIG    1       -5.078   4.498   0.118  0.00  0.00    +0.180 C 
ATOM     18  C   LIG    1       -4.128   0.504  -0.791  0.00  0.00    -0.160 A 
ENDBRANCH   1  16
BRANCH   7  19
ATOM     19  C   LIG    1       -0.508   1.051   0.319  0.00  0.00    +0.290 C 
BRANCH  19  20
ATOM     20  N   LIG    1       -1.107   1.509  -0.937  0.00  0.00    -0.730 N 
ATOM     21  H   LIG    1       -1.974   1.945  -0.930  0.00  0.00    +0.390 HD
ATOM     22  C   LIG    1       -0.455   1.325  -2.101  0.00  0.00    +0.520 C 
ATOM     23  O   LIG    1        0.629   0.780  -2.110  0.00  0.00    -0.530 OA
BRANCH  22  24
ATOM     24  C   LIG    1       -1.071   1.796  -3.393  0.00  0.00    +0.040 C 
BRANCH  24  25
ATOM     25  C   LIG    1       -0.132   1.468  -4.556  0.00  0.00    +0.030 C 
ATOM     26  C   LIG    1       -0.007  -0.050  -4.697  0.00  0.00    +0.020 C 
ATOM     27  C   LIG    1        0.931  -0.379  -5.860  0.00  0.00    +0.000 C 
ATOM     28  C   LIG    1        0.365   0.209  -7.154  0.00  0.00    +0.000 C 
ATOM     29  C   LIG    1        0.240   1.727  -7.013  0.00  0.00    +0.010 C 
ATOM     30  C   LIG    1       -0.698   2.056  -5.850  0.00  0.00    -0.060 C 
ATOM     31  C   LIG    1       -0.823   3.574  -5.709  0.00  0.00    +0.010 C 
ATOM     32  C   LIG    1       -2.078   1.454  -6.123  0.00  0.00    +0.010 C 
ENDBRANCH  24  25
ENDBRANCH  22  24
ENDBRANCH  19  20
ENDBRANCH   7  19
TORSDOF 5
