REMARK  Name = ZINCtV000002Mw80.0
REMARK                            x       y       z     vdW  Elec       q    Type
REMARK                         _______ _______ _______ _____ _____    ______ ____
ROOT
ATOM      1  O   LIG    1        1.807   7.592  -1.175  0.00  0.00    -0.490 OA
ATOM      2  C   LIG    1        2.841   8.079  -0.769  0.00  0.00    +0.510 C 
ATOM      3  N   LIG    1        3.331   9.196  -1.344  0.00  0.00    -0.660 N 
ATOM      4  H   LIG    1        4.113   9.631  -0.970  0.00  0.00    +0.420 HD
ENDROOT
BRANCH   3   5
ATOM      5  C   LIG    1        2.710   9.728  -2.482  0.00  0.00    +0.180 A 
ATOM      6  C   LIG    1        1.964   8.908  -3.315  0.00  0.00    +0.020 A 
ATOM      7  C   LIG    1        1.352   9.436  -4.437  0.00  0.00    +0.030 A 
ATOM      8  C   LIG    1        1.483  10.780  -4.734  0.00  0.00    -0.010 A 
ATOM      9  C   LIG    1        2.225  11.604  -3.909  0.00  0.00    -0.010 A 
ATOM     10  C   LIG    1        2.837  11.085  -2.778  0.00  0.00    +0.050 A 
BRANCH  10  11
ATOM     11  N   LIG    1        3.584  11.919  -1.939  0.00  0.00    -0.500 N 
ATOM     12  C   LIG    1        2.731  12.937  -1.313  0.00  0.00    +0.170 C 
ATOM     13  C   LIG    1        3.549  13.735  -0.296  0.00  0.00    +0.020 C 
ATOM     14  C   LIG    1        4.730  14.401  -1.007  0.00  0.00    +0.010 C 
ATOM     15  C   LIG    1        5.576  13.323  -1.692  0.00  0.00    +0.020 C 
ATOM     16  C   LIG    1        4.699  12.537  -2.669  0.00  0.00    +0.180 C 
ENDBRANCH  10  11
ENDBRANCH   3   5
BRANCH   2  17
ATOM     17  C   LIG    1        3.578   7.436   0.377  0.00  0.00    +0.150 C 
BRANCH  17  18
ATOM     18  C   LIG    1        2.826   6.213   0.835  0.00  0.00    +0.080 A 
ATOM     19  C   LIG    1        3.404   5.010   0.904  0.00  0.00    -0.080 A 
ATOM     20  S   LIG    1        2.205   3.856   1.486  0.00  0.00    +0.140 S 
ATOM     21  C   LIG    1        1.010   5.147   1.570  0.00  0.00    +0.090 A 
ATOM     22  N   LIG    1        1.563   6.264   1.190  0.00  0.00    -0.410 NA
BRANCH  21  23
ATOM     23  C   LIG    1       -0.393   4.990   2.008  0.00  0.00    -0.000 A 
ATOM     24  C   LIG    1       -0.872   3.736   2.393  0.00  0.00    -0.020 A 
ATOM     25  C   LIG    1       -2.184   3.597   2.801  0.00  0.00    +0.050 A 
ATOM     26  C   LIG    1       -3.025   4.695   2.823  0.00  0.00    +0.070 A 
ATOM     27  C   LIG    1       -2.556   5.941   2.448  0.00  0.00    +0.040 A 
ATOM     28 CL   LIG    1        0.180   2.356   2.360  0.00  0.00    -0.020 Cl
ATOM     29  C   LIG    1       -1.246   6.096   2.038  0.00  0.00    +0.010 A 
ATOM     30 CL   LIG    1       -0.662   7.659   1.561  0.00  0.00    -0.010 Cl
ENDBRANCH  21  23
ENDBRANCH  17  18
ENDBRANCH   2  17
TORSDOF 5
