REMARK  Name = ZINCrg000000rUTU.1
REMARK                            x       y       z     vdW  Elec       q    Type
REMARK                         _______ _______ _______ _____ _____    ______ ____
ROOT
ATOM      1  C   LIG    1        7.221  -0.991  -0.184  0.00  0.00    +0.610 C 
ATOM      2  N   LIG    1        8.001  -2.089  -0.140  0.00  0.00    -0.720 N 
ATOM      3  H   LIG    1        7.598  -2.968  -0.059  0.00  0.00    +0.410 HD
ATOM      4  O   LIG    1        7.726   0.110  -0.285  0.00  0.00    -0.520 OA
ENDROOT
BRANCH   1   7
ATOM      5  C   LIG    1        5.172   1.370  -0.261  0.00  0.00    +0.190 C 
ATOM      6  C   LIG    1        4.854  -0.098  -0.141  0.00  0.00    +0.140 A 
ATOM      7  C   LIG    1        5.754  -1.126  -0.108  0.00  0.00    -0.110 A 
ATOM      8  N   LIG    1        5.076  -2.281   0.006  0.00  0.00    -0.200 NA
ATOM      9  N   LIG    1        3.812  -2.037   0.052  0.00  0.00    -0.040 NA
ATOM     10  N   LIG    1        3.626  -0.651  -0.045  0.00  0.00    -0.320 N 
BRANCH  10  11
ATOM     11  C   LIG    1        2.400   0.031  -0.038  0.00  0.00    +0.130 A 
ATOM     12  C   LIG    1        2.221   1.131   0.788  0.00  0.00    +0.040 A 
ATOM     13  C   LIG    1        1.013   1.802   0.792  0.00  0.00    +0.050 A 
ATOM     14  C   LIG    1       -0.018   1.377  -0.026  0.00  0.00    +0.060 A 
ATOM     15  C   LIG    1        0.156   0.280  -0.851  0.00  0.00    +0.050 A 
ATOM     16  C   LIG    1        1.363  -0.394  -0.859  0.00  0.00    -0.020 A 
ATOM     17 CL   LIG    1        1.582  -1.770  -1.895  0.00  0.00    -0.030 Cl
ENDBRANCH  10  11
ENDBRANCH   1   7
BRANCH   2  18
ATOM     18  C   LIG    1        9.458  -1.955  -0.216  0.00  0.00    +0.320 C 
BRANCH  18  19
ATOM     19  C   LIG    1       10.102  -3.341  -0.145  0.00  0.00    +0.130 C 
BRANCH  19  20
ATOM     20  C   LIG    1       11.601  -3.204  -0.223  0.00  0.00    +0.490 C 
ATOM     21  N   LIG    1       12.087  -2.003  -0.331  0.00  0.00    -0.590 NA
ATOM     22  C   LIG    1       13.404  -1.760  -0.408  0.00  0.00    +0.520 C 
ATOM     23  C   LIG    1       14.342  -2.951  -0.365  0.00  0.00    -0.060 C 
ATOM     24  C   LIG    1       13.684  -4.313  -0.238  0.00  0.00    +0.540 C 
ATOM     25  O   LIG    1       14.340  -5.332  -0.194  0.00  0.00    -0.470 OA
ATOM     26  C   LIG    1       15.292  -2.768   0.820  0.00  0.00    +0.100 C 
ATOM     27  O   LIG    1       13.829  -0.628  -0.509  0.00  0.00    -0.430 OA
ATOM     28  N   LIG    1       12.334  -4.339  -0.169  0.00  0.00    -0.670 N 
ATOM     29  H   LIG    1       11.881  -5.193  -0.084  0.00  0.00    +0.420 HD
ENDBRANCH  19  20
ENDBRANCH  18  19
ENDBRANCH   2  18
TORSDOF 5
