REMARK  Name = ZINCrH000004nMSx.0
REMARK                            x       y       z     vdW  Elec       q    Type
REMARK                         _______ _______ _______ _____ _____    ______ ____
ROOT
ATOM      1  C   LIG    1       -2.412  -0.303  -0.091  0.00  0.00    +0.590 C 
ATOM      2  N   LIG    1       -2.425   1.040   0.019  0.00  0.00    -0.670 N 
ATOM      3  H   LIG    1       -3.269   1.513   0.092  0.00  0.00    +0.410 HD
ATOM      4  O   LIG    1       -1.353  -0.903  -0.099  0.00  0.00    -0.510 OA
ENDROOT
BRANCH   2   5
ATOM      5  C   LIG    1       -1.223   1.752   0.027  0.00  0.00    +0.160 A 
ATOM      6  C   LIG    1       -0.095   1.207   0.624  0.00  0.00    +0.020 A 
ATOM      7  C   LIG    1        1.094   1.910   0.626  0.00  0.00    +0.030 A 
ATOM      8  C   LIG    1        1.167   3.161   0.040  0.00  0.00    +0.000 A 
ATOM      9  C   LIG    1        0.052   3.718  -0.553  0.00  0.00    +0.040 A 
ATOM     10  C   LIG    1       -1.153   3.020  -0.562  0.00  0.00    -0.070 A 
BRANCH  10  11
ATOM     11  C   LIG    1       -2.354   3.614  -1.197  0.00  0.00    -0.050 A 
ATOM     12  C   LIG    1       -3.096   2.876  -2.118  0.00  0.00    +0.010 A 
ATOM     13  C   LIG    1       -4.215   3.432  -2.703  0.00  0.00    +0.010 A 
ATOM     14  C   LIG    1       -4.596   4.723  -2.384  0.00  0.00    +0.000 A 
ATOM     15  C   LIG    1       -3.861   5.462  -1.474  0.00  0.00    +0.010 A 
ATOM     16  C   LIG    1       -2.742   4.914  -0.879  0.00  0.00    +0.030 A 
ENDBRANCH  10  11
ENDBRANCH   2   5
BRANCH   1  20
ATOM     17  C   LIG    1       -6.014  -1.855  -0.357  0.00  0.00    -0.190 A 
ATOM     18  C   LIG    1       -5.093  -2.826  -0.401  0.00  0.00    +0.010 A 
ATOM     19  C   LIG    1       -3.790  -2.398  -0.321  0.00  0.00    +0.120 A 
ATOM     20  C   LIG    1       -3.673  -1.041  -0.200  0.00  0.00    -0.270 A 
ATOM     21  S   LIG    1       -5.278  -0.324  -0.203  0.00  0.00    +0.200 S 
BRANCH  17  22
ATOM     22  C   LIG    1       -7.501  -2.085  -0.434  0.00  0.00    +0.130 C 
BRANCH  22  23
ATOM     23  C   LIG    1       -8.060  -2.281   0.977  0.00  0.00    +0.280 C 
BRANCH  23  24
ATOM     24  N   LIG    1       -9.506  -2.504   0.902  0.00  0.00    -1.120 NA
ATOM     25  H   LIG    1       -9.987  -2.297   0.086  0.00  0.00    +0.420 HD
BRANCH  24  27
ATOM     26  C   LIG    1      -10.161  -1.820   3.478  0.00  0.00    -0.280 C 
ATOM     27  S   LIG    1      -10.319  -3.109   2.212  0.00  0.00    +2.620 S 
ATOM     28  O   LIG    1       -9.578  -4.264   2.581  0.00  0.00    -0.950 OA
ATOM     29  O   LIG    1      -11.666  -3.212   1.771  0.00  0.00    -0.960 OA
ENDBRANCH  24  27
ENDBRANCH  23  24
ENDBRANCH  22  23
ENDBRANCH  17  22
ENDBRANCH   1  20
TORSDOF 7
