REMARK  Name = ZINCrD000000D6M9.0
REMARK                            x       y       z     vdW  Elec       q    Type
REMARK                         _______ _______ _______ _____ _____    ______ ____
ROOT
ATOM      1  N   LIG    1       -6.857   0.462   3.745  0.00  0.00    -0.990 NA
ATOM      2  C   LIG    1       -5.565   0.421   4.459  0.00  0.00    +0.280 C 
ATOM      3  C   LIG    1       -4.434   1.015   3.602  0.00  0.00    +0.030 C 
ATOM      4  C   LIG    1       -4.604   0.579   2.163  0.00  0.00    +0.190 C 
ATOM      5  N   LIG    1       -5.384   1.587   1.446  0.00  0.00    -0.550 NA
ATOM      6  C   LIG    1       -6.790   1.449   1.503  0.00  0.00    +0.170 C 
ATOM      7  C   LIG    1       -7.279   1.606   2.963  0.00  0.00    +0.310 C 
ENDROOT
BRANCH   1   9
ATOM      8  O   LIG    1       -7.511  -1.538   5.035  0.00  0.00    -0.950 OA
ATOM      9  S   LIG    1       -7.861  -0.851   3.841  0.00  0.00    +2.690 S 
ATOM     10  O   LIG    1       -9.173  -0.373   3.577  0.00  0.00    -0.950 OA
BRANCH   9  11
ATOM     11  C   LIG    1       -7.445  -1.925   2.508  0.00  0.00    -0.690 A 
ATOM     12  C   LIG    1       -8.083  -1.792   1.289  0.00  0.00    +0.160 A 
ATOM     13  C   LIG    1       -7.753  -2.630   0.240  0.00  0.00    -0.020 A 
ATOM     14  C   LIG    1       -6.792  -3.612   0.416  0.00  0.00    +0.160 A 
ATOM     15  C   LIG    1       -6.159  -3.748   1.639  0.00  0.00    -0.020 A 
ATOM     16  F   LIG    1       -6.474  -4.436  -0.606  0.00  0.00    -0.130 F 
ATOM     17  C   LIG    1       -6.486  -2.905   2.684  0.00  0.00    +0.160 A 
ENDBRANCH   9  11
ENDBRANCH   1   9
BRANCH   5  18
ATOM     18  C   LIG    1       -4.923   1.719   0.058  0.00  0.00    +0.300 C 
BRANCH  18  19
ATOM     19  C   LIG    1       -3.467   2.107   0.046  0.00  0.00    +0.100 A 
ATOM     20  N   LIG    1       -2.500   1.270   0.033  0.00  0.00    -0.470 NA
ATOM     21  C   LIG    1       -1.245   1.759   0.018  0.00  0.00    +0.080 A 
ATOM     22  C   LIG    1       -0.013   1.076   0.008  0.00  0.00    +0.070 A 
ATOM     23  C   LIG    1        1.160   1.769   0.001  0.00  0.00    +0.030 A 
ATOM     24  C   LIG    1        1.165   3.156   0.007  0.00  0.00    +0.040 A 
ATOM     25  C   LIG    1       -0.024   3.850   0.022  0.00  0.00    +0.060 A 
ATOM     26  C   LIG    1       -1.233   3.159   0.030  0.00  0.00    -0.190 A 
ATOM     27  S   LIG    1       -2.902   3.717   0.048  0.00  0.00    +0.130 S 
ENDBRANCH  18  19
ENDBRANCH   5  18
TORSDOF 4
