REMARK  Name = ZINCvU0000000Bky.0
REMARK                            x       y       z     vdW  Elec       q    Type
REMARK                         _______ _______ _______ _____ _____    ______ ____
ROOT
ATOM      1  O   LIG    1        3.408   3.050   1.350  0.00  0.00    -0.510 OA
ATOM      2  C   LIG    1        2.803   2.229   2.011  0.00  0.00    +0.570 C 
ATOM      3  N   LIG    1        1.550   1.875   1.664  0.00  0.00    -0.600 N 
ATOM      4  C   LIG    1        0.838   0.824   2.404  0.00  0.00    +0.260 C 
ATOM      5  C   LIG    1       -0.514   1.377   2.865  0.00  0.00    +0.040 C 
ATOM      6  C   LIG    1       -1.278   1.923   1.656  0.00  0.00    +0.040 C 
ATOM      7  C   LIG    1       -0.480   3.064   1.021  0.00  0.00    +0.100 C 
ATOM      8  C   LIG    1        0.872   2.531   0.538  0.00  0.00    +0.300 C 
ENDROOT
BRANCH   7   9
ATOM      9  C   LIG    1       -1.248   3.623  -0.150  0.00  0.00    +0.290 A 
ATOM     10  N   LIG    1       -2.043   4.651  -0.098  0.00  0.00    -0.480 NA
ATOM     11  C   LIG    1       -2.567   4.886  -1.328  0.00  0.00    +0.050 A 
ATOM     12  C   LIG    1       -3.454   5.841  -1.832  0.00  0.00    +0.070 A 
ATOM     13  C   LIG    1       -3.807   5.813  -3.151  0.00  0.00    +0.000 A 
ATOM     14  C   LIG    1       -3.293   4.845  -4.002  0.00  0.00    +0.030 A 
ATOM     15  C   LIG    1       -2.415   3.893  -3.527  0.00  0.00    +0.010 A 
ATOM     16  C   LIG    1       -2.046   3.905  -2.189  0.00  0.00    +0.050 A 
ATOM     17  N   LIG    1       -1.214   3.121  -1.414  0.00  0.00    -0.600 N 
ATOM     18  H   LIG    1       -0.702   2.355  -1.715  0.00  0.00    +0.420 HD
ENDBRANCH   7   9
BRANCH   2  19
ATOM     19  C   LIG    1        3.442   1.621   3.198  0.00  0.00    -0.120 A 
ATOM     20  C   LIG    1        3.457   0.233   3.351  0.00  0.00    +0.140 A 
ATOM     21  C   LIG    1        4.059  -0.329   4.458  0.00  0.00    -0.190 A 
ATOM     22  C   LIG    1        4.638   0.480   5.420  0.00  0.00    +0.160 A 
ATOM     23  C   LIG    1        4.621   1.856   5.277  0.00  0.00    -0.180 A 
ATOM     24  C   LIG    1        4.027   2.431   4.172  0.00  0.00    +0.170 A 
BRANCH  23  25
ATOM     25  C   LIG    1        5.254   2.729   6.330  0.00  0.00    +0.510 C 
ATOM     26  F   LIG    1        5.733   3.902   5.737  0.00  0.00    -0.170 F 
ATOM     27  F   LIG    1        6.315   2.043   6.929  0.00  0.00    -0.170 F 
ATOM     28  F   LIG    1        4.301   3.053   7.301  0.00  0.00    -0.170 F 
ENDBRANCH  23  25
BRANCH  21  29
ATOM     29  C   LIG    1        4.082  -1.827   4.622  0.00  0.00    +0.510 C 
ATOM     30  F   LIG    1        4.760  -2.404   3.543  0.00  0.00    -0.170 F 
ATOM     31  F   LIG    1        2.770  -2.311   4.662  0.00  0.00    -0.170 F 
ATOM     32  F   LIG    1        4.737  -2.155   5.814  0.00  0.00    -0.170 F 
ENDBRANCH  21  29
ENDBRANCH   2  19
TORSDOF 4
