REMARK  Name = ZINCqH0000050DML.2
REMARK                            x       y       z     vdW  Elec       q    Type
REMARK                         _______ _______ _______ _____ _____    ______ ____
ROOT
ATOM      1  C   LIG    1        6.404   2.630  -0.049  0.00  0.00    +0.220 C 
ENDROOT
BRANCH   1   2
ATOM      2  C   LIG    1        5.945   4.066  -0.036  0.00  0.00    +0.560 C 
ATOM      3  N   LIG    1        4.629   4.353  -0.020  0.00  0.00    -0.470 N 
ATOM      4  C   LIG    1        4.047   5.705  -0.007  0.00  0.00    +0.260 C 
ATOM      5  C   LIG    1        2.528   5.445   0.001  0.00  0.00    +0.090 C 
ATOM      6  C   LIG    1        2.416   3.937  -0.000  0.00  0.00    +0.140 C 
ATOM      7  N   LIG    1        3.595   3.418  -0.015  0.00  0.00    -0.240 NA
ATOM      8  O   LIG    1        6.762   4.963  -0.039  0.00  0.00    -0.500 OA
BRANCH   6   9
ATOM      9  C   LIG    1        1.153   3.177   0.008  0.00  0.00    -0.040 A 
ATOM     10  C   LIG    1        1.173   1.780   0.000  0.00  0.00    +0.050 A 
ATOM     11  C   LIG    1       -0.013   1.076   0.008  0.00  0.00    +0.010 A 
ATOM     12  C   LIG    1       -1.221   1.750   0.017  0.00  0.00    +0.030 A 
ATOM     13  C   LIG    1       -1.249   3.133   0.031  0.00  0.00    +0.010 A 
ATOM     14  C   LIG    1       -0.071   3.850   0.023  0.00  0.00    +0.040 A 
ENDBRANCH   6   9
ENDBRANCH   1   2
BRANCH   1  19
ATOM     15  C   LIG    1        8.364   1.202   0.164  0.00  0.00    +0.170 C 
ATOM     16  C   LIG    1        9.801   1.203  -0.402  0.00  0.00    +0.040 C 
ATOM     17  C   LIG    1        9.825   2.349  -1.433  0.00  0.00    +0.030 C 
ATOM     18  C   LIG    1        8.401   2.945  -1.405  0.00  0.00    +0.160 C 
ATOM     19  N   LIG    1        7.872   2.585  -0.064  0.00  0.00    -0.490 NA
BRANCH  15  26
ATOM     20  C   LIG    1        8.399  -1.548   1.049  0.00  0.00    +0.090 C 
ATOM     21  C   LIG    1        8.393  -0.431   2.060  0.00  0.00    -0.080 A 
ATOM     22  C   LIG    1        8.405  -0.723   3.411  0.00  0.00    +0.000 A 
ATOM     23  C   LIG    1        8.399   0.302   4.339  0.00  0.00    +0.000 A 
ATOM     24  C   LIG    1        8.383   1.618   3.916  0.00  0.00    -0.010 A 
ATOM     25  C   LIG    1        8.377   1.909   2.564  0.00  0.00    +0.040 A 
ATOM     26  C   LIG    1        8.376   0.885   1.637  0.00  0.00    -0.080 A 
ENDBRANCH  15  26
ENDBRANCH   1  19
TORSDOF 4
