REMARK  Name = ZINCvU0000000DEG.0
REMARK                            x       y       z     vdW  Elec       q    Type
REMARK                         _______ _______ _______ _____ _____    ______ ____
ROOT
ATOM      1  C   LIG    1       -1.699   5.437  -0.520  0.00  0.00    -0.000 A 
ATOM      2  C   LIG    1       -2.252   4.201  -0.639  0.00  0.00    +0.090 A 
ATOM      3  C   LIG    1       -1.221   3.299  -0.989  0.00  0.00    -0.150 A 
ATOM      4  C   LIG    1       -1.194   1.917  -1.245  0.00  0.00    +0.200 A 
ATOM      5  C   LIG    1        0.002   1.306  -1.567  0.00  0.00    -0.120 A 
ATOM      6  C   LIG    1        1.170   2.050  -1.649  0.00  0.00    +0.090 A 
ATOM      7  C   LIG    1        1.160   3.406  -1.406  0.00  0.00    -0.060 A 
ATOM      8  C   LIG    1       -0.030   4.046  -1.074  0.00  0.00    +0.150 A 
ATOM      9  N   LIG    1       -0.344   5.353  -0.784  0.00  0.00    -0.590 N 
ATOM     10  H   LIG    1        0.282   6.094  -0.766  0.00  0.00    +0.420 HD
ENDROOT
BRANCH   1  13
ATOM     11  C   LIG    1       -0.277   7.774   0.145  0.00  0.00    +0.280 C 
ATOM     12  N   LIG    1       -1.742   7.780   0.159  0.00  0.00    -0.620 N 
ATOM     13  C   LIG    1       -2.424   6.665  -0.169  0.00  0.00    +0.590 C 
ATOM     14  O   LIG    1       -3.641   6.676  -0.175  0.00  0.00    -0.510 OA
BRANCH  12  15
ATOM     15  C   LIG    1       -2.466   8.999   0.529  0.00  0.00    +0.290 C 
BRANCH  15  16
ATOM     16  C   LIG    1       -2.707   9.010   2.040  0.00  0.00    +0.070 C 
BRANCH  16  17
ATOM     17  C   LIG    1       -3.451  10.264   2.421  0.00  0.00    -0.090 A 
ATOM     18  C   LIG    1       -2.750  11.405   2.763  0.00  0.00    +0.050 A 
ATOM     19  C   LIG    1       -3.430  12.558   3.107  0.00  0.00    +0.000 A 
ATOM     20  C   LIG    1       -4.816  12.567   3.120  0.00  0.00    +0.130 A 
ATOM     21  C   LIG    1       -5.518  11.418   2.782  0.00  0.00    -0.120 A 
ATOM     22 BR   LIG    1       -7.409  11.424   2.800  0.00  0.00    -0.030 Br
ATOM     23  C   LIG    1       -4.834  10.269   2.433  0.00  0.00    +0.070 A 
BRANCH  20  24
ATOM     24  O   LIG    1       -5.487  13.698   3.464  0.00  0.00    -0.490 OA
ATOM     25  H   LIG    1       -5.674  13.772   4.410  0.00  0.00    +0.400 HD
ENDBRANCH  20  24
ENDBRANCH  16  17
ENDBRANCH  15  16
ENDBRANCH  12  15
ENDBRANCH   1  13
BRANCH   4  26
ATOM     26  O   LIG    1       -2.336   1.186  -1.171  0.00  0.00    -0.300 OA
BRANCH  26  27
ATOM     27  C   LIG    1       -2.229  -0.213  -1.440  0.00  0.00    +0.240 C 
BRANCH  27  28
ATOM     28  C   LIG    1       -3.587  -0.854  -1.312  0.00  0.00    -0.100 A 
ATOM     29  C   LIG    1       -4.000  -1.360  -0.094  0.00  0.00    +0.030 A 
ATOM     30  C   LIG    1       -5.248  -1.944   0.025  0.00  0.00    +0.010 A 
ATOM     31  C   LIG    1       -6.078  -2.031  -1.077  0.00  0.00    +0.010 A 
ATOM     32  C   LIG    1       -5.662  -1.529  -2.297  0.00  0.00    +0.010 A 
ATOM     33  C   LIG    1       -4.417  -0.941  -2.414  0.00  0.00    +0.030 A 
ENDBRANCH  27  28
ENDBRANCH  26  27
ENDBRANCH   4  26
TORSDOF 8
