REMARK  Name = ZINCpk00000xIkRb.0
REMARK                            x       y       z     vdW  Elec       q    Type
REMARK                         _______ _______ _______ _____ _____    ______ ____
ROOT
ATOM      1  O   LIG    1       -0.615   0.703  -0.216  0.00  0.00    -0.520 OA
ATOM      2  C   LIG    1       -0.147   1.813  -0.073  0.00  0.00    +0.570 C 
ATOM      3  N   LIG    1       -0.963   2.884  -0.012  0.00  0.00    -0.610 N 
ATOM      4  C   LIG    1       -0.528   4.292   0.053  0.00  0.00    +0.260 C 
ATOM      5  C   LIG    1       -1.712   5.042   0.714  0.00  0.00    +0.040 C 
ATOM      6  C   LIG    1       -2.930   4.300   0.104  0.00  0.00    +0.110 C 
ATOM      7  C   LIG    1       -2.432   2.844  -0.005  0.00  0.00    +0.310 C 
ENDROOT
BRANCH   2   8
ATOM      8  C   LIG    1        1.345   1.995   0.028  0.00  0.00    -0.150 C 
ATOM      9  C   LIG    1        2.112   1.042   0.947  0.00  0.00    +0.070 C 
ATOM     10  C   LIG    1        1.906   2.501   1.359  0.00  0.00    +0.050 C 
BRANCH   8  11
ATOM     11  C   LIG    1        2.043   2.455  -1.253  0.00  0.00    +0.140 C 
BRANCH  11  12
ATOM     12  C   LIG    1        1.717   1.501  -2.373  0.00  0.00    -0.120 A 
ATOM     13  C   LIG    1        0.666   1.772  -3.229  0.00  0.00    +0.050 A 
ATOM     14  C   LIG    1        0.367   0.897  -4.256  0.00  0.00    +0.000 A 
ATOM     15  C   LIG    1        1.119  -0.250  -4.429  0.00  0.00    +0.040 A 
ATOM     16  C   LIG    1        2.170  -0.524  -3.575  0.00  0.00    -0.010 A 
ATOM     17  C   LIG    1        2.474   0.355  -2.549  0.00  0.00    +0.110 A 
ATOM     18  F   LIG    1        3.505   0.091  -1.716  0.00  0.00    -0.140 F 
ENDBRANCH  11  12
ENDBRANCH   8  11
ENDBRANCH   2   8
BRANCH   6  19
ATOM     19  O   LIG    1       -3.244   4.821  -1.189  0.00  0.00    -0.540 OA
ATOM     20  H   LIG    1       -3.488   5.756  -1.188  0.00  0.00    +0.380 HD
ENDBRANCH   6  19
BRANCH   6  21
ATOM     21  C   LIG    1       -4.141   4.393   1.035  0.00  0.00    +0.330 C 
BRANCH  21  22
ATOM     22  N   LIG    1       -4.517   5.798   1.208  0.00  0.00    -0.300 N 
ATOM     23  C   LIG    1       -5.739   6.328   0.968  0.00  0.00    +0.150 A 
ATOM     24  C   LIG    1       -5.643   7.646   1.260  0.00  0.00    +0.140 A 
ATOM     25  N   LIG    1       -4.381   7.857   1.652  0.00  0.00    -0.270 NA
ATOM     26  N   LIG    1       -3.740   6.743   1.611  0.00  0.00    -0.090 NA
ENDBRANCH  21  22
ENDBRANCH   6  21
TORSDOF 6
