REMARK  Name = ZINCqH0000032d4q.0
REMARK                            x       y       z     vdW  Elec       q    Type
REMARK                         _______ _______ _______ _____ _____    ______ ____
ROOT
ATOM      1  C   LIG    1        6.787   2.351  -2.252  0.00  0.00    +0.210 C 
ATOM      2  C   LIG    1        8.057   2.847  -1.560  0.00  0.00    +0.220 C 
ATOM      3  O   LIG    1        8.022   4.274  -1.475  0.00  0.00    -0.380 OA
ATOM      4  C   LIG    1        6.942   4.787  -0.692  0.00  0.00    +0.220 C 
ATOM      5  C   LIG    1        5.612   4.391  -1.344  0.00  0.00    +0.240 C 
ATOM      6  N   LIG    1        5.622   2.938  -1.571  0.00  0.00    -0.630 N 
ATOM      7  C   LIG    1        4.596   2.165  -1.162  0.00  0.00    +0.710 C 
ATOM      8  N   LIG    1        3.589   2.705  -0.448  0.00  0.00    -0.740 N 
ATOM      9  H   LIG    1        3.566   3.662  -0.288  0.00  0.00    +0.390 HD
ATOM     10  O   LIG    1        4.578   0.981  -1.438  0.00  0.00    -0.570 OA
ENDROOT
BRANCH   8  11
ATOM     11  C   LIG    1        2.529   1.847   0.088  0.00  0.00    +0.320 C 
ATOM     12  C   LIG    1        2.927   1.355   1.481  0.00  0.00    +0.040 C 
BRANCH  11  13
ATOM     13  C   LIG    1        1.246   2.632   0.181  0.00  0.00    -0.060 A 
ATOM     14  C   LIG    1        1.286   4.006   0.329  0.00  0.00    +0.030 A 
ATOM     15  C   LIG    1        0.107   4.731   0.414  0.00  0.00    +0.070 A 
ATOM     16  C   LIG    1       -1.115   4.074   0.348  0.00  0.00    +0.060 A 
ATOM     17  O   LIG    1       -2.284   4.767   0.425  0.00  0.00    -0.300 OA
ATOM     18  C   LIG    1       -2.210   6.098   0.948  0.00  0.00    +0.230 C 
ATOM     19  C   LIG    1       -1.032   6.814   0.273  0.00  0.00    +0.230 C 
ATOM     20  C   LIG    1       -1.150   2.696   0.194  0.00  0.00    +0.070 A 
ATOM     21  O   LIG    1        0.164   6.083   0.565  0.00  0.00    -0.300 OA
ATOM     22  C   LIG    1        0.029   1.978   0.116  0.00  0.00    -0.080 A 
ATOM     23 BR   LIG    1       -0.022   0.098  -0.086  0.00  0.00    -0.020 Br
ENDBRANCH  11  13
ENDBRANCH   8  11
BRANCH   1  24
ATOM     24  C   LIG    1        6.719   0.825  -2.167  0.00  0.00    +0.060 C 
BRANCH  24  26
ATOM     25  C   LIG    1        7.954  -1.296  -2.634  0.00  0.00    +0.020 C 
ATOM     26  C   LIG    1        7.963   0.222  -2.823  0.00  0.00    -0.040 C 
ATOM     27  C   LIG    1        7.960   0.549  -4.318  0.00  0.00    +0.010 C 
ENDBRANCH  24  26
ENDBRANCH   1  24
TORSDOF 4
