REMARK  Name = ZINCpe000000UjJX.0
REMARK                            x       y       z     vdW  Elec       q    Type
REMARK                         _______ _______ _______ _____ _____    ______ ____
ROOT
ATOM      1  N   LIG    1       -0.721   1.571  -1.179  0.00  0.00    -0.730 N 
ATOM      2  H   LIG    1       -1.516   2.118  -1.079  0.00  0.00    +0.400 HD
ATOM      3  C   LIG    1       -0.268   1.258  -2.409  0.00  0.00    +0.520 C 
ATOM      4  O   LIG    1        0.726   0.575  -2.534  0.00  0.00    -0.510 OA
ENDROOT
BRANCH   3   5
ATOM      5  C   LIG    1       -0.997   1.758  -3.630  0.00  0.00    +0.180 C 
ATOM      6  C   LIG    1       -0.909   3.285  -3.689  0.00  0.00    +0.170 C 
ATOM      7  N   LIG    1       -1.554   3.760  -4.922  0.00  0.00    -0.530 NA
ATOM      8  C   LIG    1       -0.913   3.171  -6.106  0.00  0.00    +0.160 C 
ATOM      9  C   LIG    1       -1.002   1.645  -6.023  0.00  0.00    +0.230 C 
ATOM     10  O   LIG    1       -0.397   1.204  -4.804  0.00  0.00    -0.360 OA
BRANCH   7  11
ATOM     11  C   LIG    1       -1.540   5.228  -4.991  0.00  0.00    +0.230 C 
BRANCH  11  12
ATOM     12  C   LIG    1       -2.410   5.685  -6.133  0.00  0.00    -0.080 A 
ATOM     13  C   LIG    1       -1.864   5.857  -7.392  0.00  0.00    +0.000 A 
ATOM     14  C   LIG    1       -2.663   6.271  -8.441  0.00  0.00    +0.000 A 
ATOM     15  C   LIG    1       -4.005   6.524  -8.230  0.00  0.00    +0.000 A 
ATOM     16  C   LIG    1       -4.550   6.358  -6.970  0.00  0.00    +0.000 A 
ATOM     17  C   LIG    1       -3.752   5.938  -5.922  0.00  0.00    +0.020 A 
ENDBRANCH  11  12
ENDBRANCH   7  11
ENDBRANCH   3   5
BRANCH   1  18
ATOM     18  C   LIG    1       -0.013   1.086   0.008  0.00  0.00    +0.280 C 
BRANCH  18  19
ATOM     19  C   LIG    1       -0.729   1.579   1.267  0.00  0.00    +0.160 C 
BRANCH  19  24
ATOM     20  N   LIG    1        1.006   1.714   3.137  0.00  0.00    -0.470 N 
ATOM     21  C   LIG    1        1.355   0.905   4.167  0.00  0.00    +0.380 A 
ATOM     22  N   LIG    1        0.584  -0.147   4.113  0.00  0.00    -0.290 NA
ATOM     23  N   LIG    1       -0.225  -0.040   3.119  0.00  0.00    -0.280 NA
ATOM     24  C   LIG    1        0.000   1.080   2.488  0.00  0.00    +0.170 A 
BRANCH  20  26
ATOM     25  C   LIG    1        0.766   4.131   3.421  0.00  0.00    +0.040 C 
ATOM     26  C   LIG    1        1.598   3.010   2.795  0.00  0.00    +0.300 C 
ENDBRANCH  20  26
ENDBRANCH  19  24
ENDBRANCH  18  19
ENDBRANCH   1  18
TORSDOF 7
