REMARK  Name = ZINCrH000004nxs2.0
REMARK                            x       y       z     vdW  Elec       q    Type
REMARK                         _______ _______ _______ _____ _____    ______ ____
ROOT
ATOM      1  C   LIG    1        3.707  -0.673   0.017  0.00  0.00    +0.270 A 
ATOM      2  N   LIG    1        3.880  -1.974   0.004  0.00  0.00    -0.240 NA
ATOM      3  N   LIG    1        5.135  -2.250  -0.020  0.00  0.00    -0.280 NA
ATOM      4  C   LIG    1        5.840  -1.142  -0.024  0.00  0.00    +0.100 A 
ATOM      5  N   LIG    1        4.957  -0.099  -0.006  0.00  0.00    -0.300 N 
ENDROOT
BRANCH   1  11
ATOM      6  C   LIG    1        1.212  -0.679   0.061  0.00  0.00    +0.170 A 
ATOM      7  C   LIG    1        0.005  -0.001   0.087  0.00  0.00    -0.080 A 
ATOM      8  C   LIG    1       -0.013   1.382   0.097  0.00  0.00    +0.070 A 
ATOM      9  C   LIG    1        1.171   2.097   0.081  0.00  0.00    -0.030 A 
ATOM     10  C   LIG    1        2.382   1.436   0.056  0.00  0.00    +0.100 A 
ATOM     11  C   LIG    1        2.413   0.041   0.045  0.00  0.00    -0.070 A 
BRANCH   6  13
ATOM     12  C   LIG    1       -0.033  -2.704   0.069  0.00  0.00    +0.240 C 
ATOM     13  O   LIG    1        1.231  -2.037   0.051  0.00  0.00    -0.280 OA
ENDBRANCH   6  13
ENDBRANCH   1  11
BRANCH   5  14
ATOM     14  N   LIG    1        5.254   1.234  -0.007  0.00  0.00    -0.580 N 
ATOM     15  H   LIG    1        6.084   1.419  -0.550  0.00  0.00    +0.380 HD
ATOM     16  H   LIG    1        5.351   1.584   0.934  0.00  0.00    +0.370 HD
ENDBRANCH   5  14
BRANCH   4  17
ATOM     17  S   LIG    1        7.598  -1.022  -0.056  0.00  0.00    +0.080 S 
BRANCH  17  18
ATOM     18  C   LIG    1        8.032  -2.779  -0.076  0.00  0.00    +0.140 C 
BRANCH  18  19
ATOM     19  C   LIG    1        9.532  -2.925  -0.105  0.00  0.00    +0.540 C 
ATOM     20  N   LIG    1       10.089  -4.152  -0.124  0.00  0.00    -0.660 N 
ATOM     21  H   LIG    1        9.528  -4.941  -0.054  0.00  0.00    +0.420 HD
ATOM     22  O   LIG    1       10.238  -1.939  -0.110  0.00  0.00    -0.500 OA
BRANCH  20  23
ATOM     23  C   LIG    1       11.477  -4.289  -0.245  0.00  0.00    +0.170 A 
ATOM     24  C   LIG    1       12.322  -3.357   0.343  0.00  0.00    +0.050 A 
ATOM     25  C   LIG    1       13.691  -3.497   0.226  0.00  0.00    +0.070 A 
ATOM     26  C   LIG    1       14.222  -4.558  -0.484  0.00  0.00    +0.040 A 
ATOM     27  C   LIG    1       13.383  -5.487  -1.076  0.00  0.00    -0.010 A 
ATOM     28 CL   LIG    1       14.054  -6.817  -1.966  0.00  0.00    -0.040 Cl
ATOM     29  C   LIG    1       12.012  -5.355  -0.958  0.00  0.00    -0.060 A 
ATOM     30 CL   LIG    1       10.960  -6.520  -1.701  0.00  0.00    -0.040 Cl
ENDBRANCH  20  23
ENDBRANCH  18  19
ENDBRANCH  17  18
ENDBRANCH   4  17
TORSDOF 7
