REMARK  Name = ZINCnE000001Og9G.0
REMARK                            x       y       z     vdW  Elec       q    Type
REMARK                         _______ _______ _______ _____ _____    ______ ____
ROOT
ATOM      1  C   LIG    1        1.568   1.525   5.099  0.00  0.00    +0.050 C 
ATOM      2  C   LIG    1        0.140   0.987   4.996  0.00  0.00    +0.270 C 
ATOM      3  C   LIG    1       -0.707   1.570   6.100  0.00  0.00    -0.100 A 
ATOM      4  C   LIG    1       -0.590   1.492   7.476  0.00  0.00    +0.030 A 
ATOM      5  C   LIG    1       -1.511   2.127   8.287  0.00  0.00    +0.010 A 
ATOM      6  C   LIG    1       -2.551   2.841   7.723  0.00  0.00    +0.010 A 
ATOM      7  C   LIG    1       -2.668   2.919   6.348  0.00  0.00    +0.040 A 
ATOM      8  C   LIG    1       -1.746   2.284   5.535  0.00  0.00    -0.110 A 
ATOM      9  C   LIG    1       -1.629   2.209   4.034  0.00  0.00    +0.320 C 
ATOM     10  N   LIG    1       -0.453   1.393   3.718  0.00  0.00    -0.620 N 
ATOM     11  C   LIG    1        0.000   1.080   2.488  0.00  0.00    +0.540 C 
ATOM     12  O   LIG    1        0.994   0.397   2.363  0.00  0.00    -0.530 OA
ENDROOT
BRANCH  11  13
ATOM     13  C   LIG    1       -0.729   1.579   1.267  0.00  0.00    +0.070 C 
BRANCH  13  14
ATOM     14  C   LIG    1       -0.013   1.086   0.008  0.00  0.00    +0.100 C 
BRANCH  14  15
ATOM     15  C   LIG    1       -0.742   1.585  -1.213  0.00  0.00    -0.100 A 
ATOM     16  C   LIG    1       -1.750   0.821  -1.773  0.00  0.00    -0.020 A 
ATOM     17  C   LIG    1       -2.425   1.274  -2.887  0.00  0.00    +0.050 A 
ATOM     18  C   LIG    1       -2.081   2.502  -3.457  0.00  0.00    -0.130 A 
ATOM     19  C   LIG    1       -1.058   3.266  -2.889  0.00  0.00    +0.050 A 
ATOM     20  C   LIG    1       -0.395   2.803  -1.772  0.00  0.00    -0.020 A 
BRANCH  18  21
ATOM     21  C   LIG    1       -2.795   2.991  -4.652  0.00  0.00    +0.520 C 
ATOM     22  O   LIG    1       -3.690   2.321  -5.147  0.00  0.00    -0.690 OA
ATOM     23  O   LIG    1       -2.491   4.067  -5.148  0.00  0.00    -0.690 OA
ENDBRANCH  18  21
ENDBRANCH  14  15
ENDBRANCH  13  14
ENDBRANCH  11  13
TORSDOF 4
