REMARK  Name = ZINCrH000004shDo.0
REMARK                            x       y       z     vdW  Elec       q    Type
REMARK                         _______ _______ _______ _____ _____    ______ ____
ROOT
ATOM      1  C   LIG    1       -1.187   1.624   0.017  0.00  0.00    +0.600 C 
ATOM      2  N   LIG    1       -0.011   0.966   0.007  0.00  0.00    -0.710 N 
ATOM      3  H   LIG    1        0.002  -0.004   0.002  0.00  0.00    +0.410 HD
ATOM      4  O   LIG    1       -1.204   2.839   0.023  0.00  0.00    -0.510 OA
ENDROOT
BRANCH   1   7
ATOM      5  C   LIG    1       -4.577   0.312   0.025  0.00  0.00    -0.060 A 
ATOM      6  C   LIG    1       -3.778   1.404   0.028  0.00  0.00    +0.060 A 
ATOM      7  C   LIG    1       -2.462   0.865   0.018  0.00  0.00    -0.030 A 
ATOM      8  N   LIG    1       -2.602  -0.438   0.006  0.00  0.00    -0.320 NA
ATOM      9  O   LIG    1       -3.769  -0.756   0.016  0.00  0.00    +0.130 OA
BRANCH   5  10
ATOM     10  C   LIG    1       -6.084   0.300   0.033  0.00  0.00    +0.470 C 
BRANCH  10  14
ATOM     11  C   LIG    1       -8.520  -0.962  -4.162  0.00  0.00    +0.100 C 
ATOM     12  C   LIG    1       -7.637  -0.241  -3.177  0.00  0.00    -0.240 A 
ATOM     13  C   LIG    1       -7.425  -0.597  -1.889  0.00  0.00    +0.240 A 
ATOM     14  N   LIG    1       -6.579   0.304  -1.346  0.00  0.00    -0.380 N 
ATOM     15  N   LIG    1       -6.253   1.240  -2.337  0.00  0.00    -0.290 NA
ATOM     16  C   LIG    1       -6.888   0.912  -3.433  0.00  0.00    +0.240 A 
ENDBRANCH  10  14
ENDBRANCH   5  10
ENDBRANCH   1   7
BRANCH   2  17
ATOM     17  C   LIG    1        1.248   1.716  -0.001  0.00  0.00    +0.290 C 
ATOM     18  C   LIG    1        1.608   2.092  -1.439  0.00  0.00    +0.040 C 
BRANCH  17  19
ATOM     19  C   LIG    1        2.344   0.863   0.585  0.00  0.00    -0.100 A 
ATOM     20  C   LIG    1        2.406  -0.484   0.284  0.00  0.00    +0.050 A 
ATOM     21  C   LIG    1        3.412  -1.266   0.821  0.00  0.00    +0.030 A 
ATOM     22  C   LIG    1        4.355  -0.701   1.658  0.00  0.00    +0.070 A 
ATOM     23  C   LIG    1        4.293   0.647   1.959  0.00  0.00    -0.180 A 
ATOM     24  C   LIG    1        3.290   1.430   1.418  0.00  0.00    +0.090 A 
BRANCH  23  25
ATOM     25  C   LIG    1        5.321   1.264   2.871  0.00  0.00    +0.510 C 
ATOM     26  F   LIG    1        4.684   1.810   3.991  0.00  0.00    -0.170 F 
ATOM     27  F   LIG    1        6.006   2.274   2.187  0.00  0.00    -0.170 F 
ATOM     28  F   LIG    1        6.228   0.282   3.284  0.00  0.00    -0.180 F 
ENDBRANCH  23  25
ENDBRANCH  17  19
ENDBRANCH   2  17
TORSDOF 6
