REMARK  Name = ZINCwl0000000bVY.0
REMARK                            x       y       z     vdW  Elec       q    Type
REMARK                         _______ _______ _______ _____ _____    ______ ____
ROOT
ATOM      1  C   LIG    1      -10.353  -1.471  -0.859  0.00  0.00    -0.130 A 
ATOM      2  C   LIG    1      -10.859  -0.172  -0.918  0.00  0.00    +0.020 A 
ATOM      3  C   LIG    1       -9.998   0.898  -1.060  0.00  0.00    +0.040 A 
ATOM      4  C   LIG    1       -8.635   0.688  -1.138  0.00  0.00    +0.030 A 
ATOM      5  C   LIG    1       -8.121  -0.602  -1.085  0.00  0.00    +0.150 A 
ATOM      6  C   LIG    1       -8.977  -1.683  -0.943  0.00  0.00    +0.100 A 
ENDROOT
BRANCH   1   9
ATOM      7  N   LIG    1      -12.602  -2.412  -0.627  0.00  0.00    -0.730 N 
ATOM      8  H   LIG    1      -12.955  -1.509  -0.667  0.00  0.00    +0.410 HD
ATOM      9  C   LIG    1      -11.273  -2.619  -0.708  0.00  0.00    +0.570 C 
ATOM     10  O   LIG    1      -10.830  -3.750  -0.657  0.00  0.00    -0.510 OA
BRANCH   7  11
ATOM     11  C   LIG    1      -13.513  -3.549  -0.477  0.00  0.00    +0.280 C 
BRANCH  11  12
ATOM     12  C   LIG    1      -14.955  -3.042  -0.409  0.00  0.00    +0.250 C 
BRANCH  12  13
ATOM     13  N   LIG    1      -15.862  -4.174  -0.176  0.00  0.00    -0.380 N 
ATOM     14  H   LIG    1      -15.698  -4.885  -0.873  0.00  0.00    +0.430 HD
BRANCH  13  16
ATOM     15  C   LIG    1      -16.470  -5.985   1.356  0.00  0.00    +0.080 C 
ATOM     16  C   LIG    1      -15.615  -4.731   1.160  0.00  0.00    +0.240 C 
ENDBRANCH  13  16
BRANCH  13  17
ATOM     17  C   LIG    1      -17.253  -3.713  -0.265  0.00  0.00    +0.260 C 
ATOM     18  C   LIG    1      -17.552  -3.265  -1.697  0.00  0.00    +0.080 C 
ENDBRANCH  13  17
ENDBRANCH  12  13
ENDBRANCH  11  12
ENDBRANCH   7  11
ENDBRANCH   1   9
BRANCH   5  19
ATOM     19  N   LIG    1       -6.740  -0.810  -1.170  0.00  0.00    -0.670 N 
ATOM     20  H   LIG    1       -6.128  -0.171  -0.771  0.00  0.00    +0.410 HD
ATOM     21  C   LIG    1       -6.260  -1.897  -1.805  0.00  0.00    +0.600 C 
ATOM     22  O   LIG    1       -7.025  -2.742  -2.227  0.00  0.00    -0.520 OA
BRANCH  21  23
ATOM     23  C   LIG    1       -4.806  -2.061  -1.988  0.00  0.00    -0.300 A 
ATOM     24  C   LIG    1       -4.174  -3.113  -2.620  0.00  0.00    +0.200 A 
ATOM     25  N   LIG    1       -2.850  -2.876  -2.567  0.00  0.00    -0.310 N 
ATOM     26  N   LIG    1       -2.644  -1.661  -1.904  0.00  0.00    -0.270 NA
ATOM     27  C   LIG    1       -4.842  -4.307  -3.251  0.00  0.00    +0.200 C 
ATOM     28  C   LIG    1       -3.800  -1.168  -1.556  0.00  0.00    +0.320 A 
BRANCH  25  29
ATOM     29  C   LIG    1       -1.849  -3.703  -3.091  0.00  0.00    +0.350 A 
ATOM     30  N   LIG    1       -2.177  -4.817  -3.698  0.00  0.00    -0.240 NA
ATOM     31  N   LIG    1       -1.193  -5.661  -4.225  0.00  0.00    -0.490 N 
ATOM     32  H   LIG    1       -1.449  -6.485  -4.668  0.00  0.00    +0.450 HD
ATOM     33  C   LIG    1        0.110  -5.333  -4.119  0.00  0.00    +0.500 A 
ATOM     34  C   LIG    1        0.475  -4.133  -3.474  0.00  0.00    +0.050 A 
ATOM     35  O   LIG    1        0.969  -6.069  -4.577  0.00  0.00    -0.520 OA
ATOM     36  C   LIG    1       -0.497  -3.328  -2.969  0.00  0.00    +0.090 A 
ENDBRANCH  25  29
ENDBRANCH  21  23
ENDBRANCH   5  19
TORSDOF 9
