REMARK  Name = ZINCrD000000CUbV.0
REMARK                            x       y       z     vdW  Elec       q    Type
REMARK                         _______ _______ _______ _____ _____    ______ ____
ROOT
ATOM      1  N   LIG    1        1.062   1.146  -2.199  0.00  0.00    -0.680 N 
ATOM      2  H   LIG    1        1.617   0.725  -1.524  0.00  0.00    +0.410 HD
ATOM      3  C   LIG    1       -0.204   1.502  -1.905  0.00  0.00    +0.720 C 
ATOM      4  N   LIG    1       -0.672   1.352  -0.650  0.00  0.00    -0.630 N 
ATOM      5  C   LIG    1        0.089   0.814   0.492  0.00  0.00    +0.260 C 
ATOM      6  C   LIG    1       -0.602   1.404   1.746  0.00  0.00    +0.070 C 
ATOM      7  C   LIG    1       -2.095   1.381   1.316  0.00  0.00    +0.170 C 
ATOM      8  C   LIG    1       -2.026   1.698  -0.193  0.00  0.00    +0.260 C 
ATOM      9  O   LIG    1       -0.924   1.959  -2.771  0.00  0.00    -0.560 OA
ENDROOT
BRANCH   1  19
ATOM     10  O   LIG    1       -0.787   1.427  -6.971  0.00  0.00    -0.530 OA
ATOM     11  C   LIG    1        0.425   1.407  -7.065  0.00  0.00    +0.560 C 
ATOM     12  N   LIG    1        1.015   1.289  -8.271  0.00  0.00    -0.730 N 
ATOM     13  H   LIG    1        0.465   1.260  -9.069  0.00  0.00    +0.410 HD
ATOM     14  C   LIG    1        2.467   1.205  -8.397  0.00  0.00    +0.270 C 
ATOM     15  C   LIG    1        3.160   2.118  -7.388  0.00  0.00    +0.090 C 
ATOM     16  C   LIG    1        2.618   1.861  -6.007  0.00  0.00    -0.070 A 
ATOM     17  C   LIG    1        3.429   1.966  -4.899  0.00  0.00    +0.040 A 
ATOM     18  C   LIG    1        2.913   1.728  -3.638  0.00  0.00    +0.010 A 
ATOM     19  C   LIG    1        1.576   1.384  -3.479  0.00  0.00    +0.150 A 
ATOM     20  C   LIG    1        0.752   1.270  -4.590  0.00  0.00    +0.090 A 
ATOM     21  C   LIG    1        1.272   1.514  -5.857  0.00  0.00    -0.120 A 
ENDBRANCH   1  19
BRANCH   7  22
ATOM     22  O   LIG    1       -2.838   2.385   2.010  0.00  0.00    -0.290 OA
BRANCH  22  23
ATOM     23  C   LIG    1       -4.188   2.236   2.052  0.00  0.00    +0.130 A 
ATOM     24  C   LIG    1       -4.978   3.218   2.631  0.00  0.00    +0.000 A 
ATOM     25  C   LIG    1       -6.350   3.067   2.669  0.00  0.00    +0.070 A 
ATOM     26  C   LIG    1       -6.937   1.932   2.139  0.00  0.00    -0.070 A 
ATOM     27  C   LIG    1       -6.151   0.948   1.565  0.00  0.00    +0.070 A 
ATOM     28 CL   LIG    1       -8.662   1.741   2.193  0.00  0.00    -0.070 Cl
ATOM     29  C   LIG    1       -4.778   1.098   1.521  0.00  0.00    -0.060 A 
ENDBRANCH  22  23
ENDBRANCH   7  22
TORSDOF 3
