REMARK  Name = ZINCpk000005J6s5.0
REMARK                            x       y       z     vdW  Elec       q    Type
REMARK                         _______ _______ _______ _____ _____    ______ ____
ROOT
ATOM      1  N   LIG    1       -2.930   0.964  -2.268  0.00  0.00    -0.570 N 
ATOM      2  C   LIG    1       -2.378   1.220  -3.466  0.00  0.00    +0.710 C 
ATOM      3  N   LIG    1       -1.052   1.376  -3.611  0.00  0.00    -0.730 N 
ATOM      4  H   LIG    1       -0.693   1.642  -4.472  0.00  0.00    +0.430 HD
ATOM      5  C   LIG    1       -0.141   1.150  -2.487  0.00  0.00    +0.300 C 
ATOM      6  C   LIG    1       -0.804   1.617  -1.189  0.00  0.00    +0.000 C 
ATOM      7  O   LIG    1       -3.097   1.314  -4.442  0.00  0.00    -0.540 OA
ATOM      8  C   LIG    1       -2.215   1.087  -1.135  0.00  0.00    +0.520 C 
ATOM      9  O   LIG    1       -2.705   0.774  -0.072  0.00  0.00    -0.480 OA
ENDROOT
BRANCH   6  10
ATOM     10  C   LIG    1       -0.013   1.086   0.008  0.00  0.00    +0.000 C 
ATOM     11  C   LIG    1        1.427   1.647  -0.003  0.00  0.00    +0.020 C 
ATOM     12  C   LIG    1        1.528   2.445   1.316  0.00  0.00    +0.190 C 
ATOM     13  O   LIG    1        0.532   1.858   2.180  0.00  0.00    -0.370 OA
ATOM     14  C   LIG    1       -0.611   1.612   1.332  0.00  0.00    +0.230 C 
ENDBRANCH   6  10
BRANCH   1  15
ATOM     15  C   LIG    1       -4.331   0.542  -2.195  0.00  0.00    +0.320 C 
BRANCH  15  16
ATOM     16  C   LIG    1       -4.410  -0.983  -2.276  0.00  0.00    +0.340 C 
BRANCH  16  22
ATOM     17  C   LIG    1       -5.950  -1.656   0.329  0.00  0.00    +0.160 C 
ATOM     18  C   LIG    1       -6.494  -1.700  -1.076  0.00  0.00    +0.100 A 
ATOM     19  C   LIG    1       -7.754  -2.039  -1.434  0.00  0.00    -0.070 A 
ATOM     20  C   LIG    1       -7.842  -1.958  -2.828  0.00  0.00    -0.010 A 
ATOM     21  N   LIG    1       -6.678  -1.577  -3.289  0.00  0.00    -0.230 NA
ATOM     22  N   LIG    1       -5.812  -1.404  -2.203  0.00  0.00    -0.350 N 
BRANCH  20  23
ATOM     23  C   LIG    1       -9.066  -2.256  -3.655  0.00  0.00    +0.560 C 
ATOM     24  F   LIG    1      -10.068  -1.326  -3.358  0.00  0.00    -0.170 F 
ATOM     25  F   LIG    1       -9.525  -3.545  -3.360  0.00  0.00    -0.170 F 
ATOM     26  F   LIG    1       -8.742  -2.176  -5.013  0.00  0.00    -0.170 F 
ENDBRANCH  20  23
ENDBRANCH  16  22
ENDBRANCH  15  16
ENDBRANCH   1  15
TORSDOF 5
