REMARK  Name = ZINCqH0000003WQk.0
REMARK                            x       y       z     vdW  Elec       q    Type
REMARK                         _______ _______ _______ _____ _____    ______ ____
ROOT
ATOM      1  C   LIG    1       -3.600  -6.449  -6.107  0.00  0.00    +0.530 C 
ATOM      2  N   LIG    1       -3.755  -5.199  -5.627  0.00  0.00    -0.610 N 
ATOM      3  C   LIG    1       -3.460  -4.032  -6.469  0.00  0.00    +0.290 C 
ATOM      4  C   LIG    1       -2.473  -3.125  -5.726  0.00  0.00    +0.010 C 
ATOM      5  C   LIG    1       -3.042  -2.779  -4.349  0.00  0.00    +0.240 C 
ATOM      6  C   LIG    1       -3.227  -4.061  -3.534  0.00  0.00    +0.000 C 
ATOM      7  C   LIG    1       -4.222  -4.978  -4.252  0.00  0.00    +0.280 C 
ATOM      8  O   LIG    1       -3.305  -6.619  -7.271  0.00  0.00    -0.530 OA
ENDROOT
BRANCH   5   9
ATOM      9  N   LIG    1       -2.116  -1.885  -3.649  0.00  0.00    -0.730 N 
ATOM     10  H   LIG    1       -1.173  -1.889  -3.876  0.00  0.00    +0.400 HD
ATOM     11  C   LIG    1       -2.575  -1.057  -2.690  0.00  0.00    +0.510 C 
ATOM     12  O   LIG    1       -3.754  -1.052  -2.406  0.00  0.00    -0.530 OA
BRANCH  11  13
ATOM     13  C   LIG    1       -1.622  -0.137  -1.970  0.00  0.00    +0.040 C 
BRANCH  13  14
ATOM     14  C   LIG    1       -2.393   0.689  -0.938  0.00  0.00    +0.040 C 
ATOM     15  C   LIG    1       -3.380   1.611  -1.658  0.00  0.00    +0.020 C 
BRANCH  14  16
ATOM     16  C   LIG    1       -1.410   1.532  -0.122  0.00  0.00    -0.050 C 
ATOM     17  C   LIG    1       -0.336   0.789   0.675  0.00  0.00    +0.000 C 
ATOM     18  C   LIG    1       -1.508   1.452   1.403  0.00  0.00    +0.000 C 
ENDBRANCH  14  16
ENDBRANCH  13  14
ENDBRANCH  11  13
ENDBRANCH   5   9
BRANCH   1  19
ATOM     19  C   LIG    1       -3.794  -7.635  -5.198  0.00  0.00    +0.030 C 
BRANCH  19  20
ATOM     20  C   LIG    1       -5.213  -8.129  -5.312  0.00  0.00    -0.080 A 
ATOM     21  C   LIG    1       -5.700  -8.556  -6.533  0.00  0.00    +0.030 A 
ATOM     22  C   LIG    1       -7.001  -9.013  -6.637  0.00  0.00    +0.000 A 
ATOM     23  C   LIG    1       -7.817  -9.035  -5.521  0.00  0.00    +0.000 A 
ATOM     24  C   LIG    1       -7.331  -8.604  -4.301  0.00  0.00    +0.000 A 
ATOM     25  C   LIG    1       -6.029  -8.150  -4.196  0.00  0.00    +0.010 A 
ENDBRANCH  19  20
BRANCH  19  27
ATOM     26  C   LIG    1       -1.391  -8.299  -5.356  0.00  0.00    +0.020 C 
ATOM     27  C   LIG    1       -2.831  -8.752  -5.604  0.00  0.00    +0.040 C 
ENDBRANCH  19  27
ENDBRANCH   1  19
TORSDOF 7
