REMARK  Name = ZINCqH00000503q2.0
REMARK                            x       y       z     vdW  Elec       q    Type
REMARK                         _______ _______ _______ _____ _____    ______ ____
ROOT
ATOM      1  N   LIG    1       -2.426   9.182   1.236  0.00  0.00    -0.700 N 
ATOM      2  H   LIG    1       -1.650   8.862   1.721  0.00  0.00    +0.410 HD
ATOM      3  C   LIG    1       -2.954   8.441   0.242  0.00  0.00    +0.710 C 
ATOM      4  N   LIG    1       -2.342   7.305  -0.148  0.00  0.00    -0.740 N 
ATOM      5  H   LIG    1       -1.523   7.021   0.287  0.00  0.00    +0.390 HD
ATOM      6  O   LIG    1       -3.981   8.797  -0.303  0.00  0.00    -0.570 OA
ENDROOT
BRANCH   1  12
ATOM      7  C   LIG    1       -2.684  14.054   0.579  0.00  0.00    +0.130 C 
ATOM      8  C   LIG    1       -3.145  12.795   1.267  0.00  0.00    -0.110 A 
ATOM      9  C   LIG    1       -4.135  12.857   2.231  0.00  0.00    +0.020 A 
ATOM     10  C   LIG    1       -4.560  11.703   2.867  0.00  0.00    +0.010 A 
ATOM     11  C   LIG    1       -3.996  10.484   2.539  0.00  0.00    +0.150 A 
ATOM     12  C   LIG    1       -3.001  10.418   1.571  0.00  0.00    +0.090 A 
ATOM     13  F   LIG    1       -4.412   9.358   3.159  0.00  0.00    -0.110 F 
ATOM     14 CL   LIG    1       -4.846  14.386   2.645  0.00  0.00    -0.030 Cl
ATOM     15  C   LIG    1       -2.573  11.578   0.938  0.00  0.00    +0.150 A 
ATOM     16  F   LIG    1       -1.602  11.519   0.000  0.00  0.00    -0.110 F 
ENDBRANCH   1  12
BRANCH   4  17
ATOM     17  C   LIG    1       -2.916   6.499  -1.229  0.00  0.00    +0.260 C 
ATOM     18  C   LIG    1       -2.435   7.036  -2.581  0.00  0.00    -0.000 C 
ATOM     19  C   LIG    1       -0.913   6.890  -2.667  0.00  0.00    +0.210 C 
ATOM     20  O   LIG    1       -0.557   5.518  -2.489  0.00  0.00    -0.360 OA
ATOM     21  C   LIG    1       -0.939   4.975  -1.224  0.00  0.00    +0.250 C 
ATOM     22  C   LIG    1       -2.462   5.044  -1.080  0.00  0.00    +0.030 C 
BRANCH  21  23
ATOM     23  C   LIG    1       -0.490   3.539  -1.137  0.00  0.00    +0.200 A 
ATOM     24  N   LIG    1       -0.620   2.643  -2.077  0.00  0.00    -0.460 NA
ATOM     25  C   LIG    1       -0.113   1.477  -1.650  0.00  0.00    +0.140 A 
ATOM     26  C   LIG    1        0.357   1.660  -0.401  0.00  0.00    +0.130 A 
ATOM     27  N   LIG    1        0.118   2.967  -0.075  0.00  0.00    -0.460 N 
ATOM     28  C   LIG    1        0.458   3.624   1.190  0.00  0.00    +0.320 C 
ENDBRANCH  21  23
ENDBRANCH   4  17
TORSDOF 3
