REMARK  Name = ZINCpe000000SVfo.1
REMARK                            x       y       z     vdW  Elec       q    Type
REMARK                         _______ _______ _______ _____ _____    ______ ____
ROOT
ATOM      1  C   LIG    1        0.076   1.250  -0.161  0.00  0.00    +0.520 C 
ATOM      2  N   LIG    1        1.128   1.764  -0.829  0.00  0.00    -0.610 N 
ATOM      3  C   LIG    1        2.400   1.030  -0.910  0.00  0.00    +0.310 C 
ATOM      4  C   LIG    1        2.666   0.655  -2.379  0.00  0.00    +0.120 C 
ATOM      5  C   LIG    1        2.394   1.860  -3.245  0.00  0.00    +0.110 A 
ATOM      6  C   LIG    1        1.665   2.937  -2.856  0.00  0.00    -0.220 A 
ATOM      7  C   LIG    1        1.623   3.837  -3.917  0.00  0.00    +0.000 A 
ATOM      8  N   LIG    1        2.305   3.324  -4.912  0.00  0.00    -0.230 NA
ATOM      9  N   LIG    1        2.802   2.076  -4.507  0.00  0.00    -0.440 N 
ATOM     10  H   LIG    1        3.343   1.476  -5.043  0.00  0.00    +0.450 HD
ATOM     11  C   LIG    1        1.034   3.078  -1.492  0.00  0.00    +0.380 C 
ATOM     12  O   LIG    1        0.139   0.131   0.300  0.00  0.00    -0.530 OA
ENDROOT
BRANCH   7  13
ATOM     13  C   LIG    1        0.917   5.168  -3.921  0.00  0.00    +0.550 C 
ATOM     14  F   LIG    1       -0.195   5.109  -3.074  0.00  0.00    -0.160 F 
ATOM     15  F   LIG    1        0.496   5.469  -5.221  0.00  0.00    -0.160 F 
ATOM     16  F   LIG    1        1.793   6.162  -3.473  0.00  0.00    -0.160 F 
ENDBRANCH   7  13
BRANCH   1  17
ATOM     17  C   LIG    1       -1.180   2.066   0.007  0.00  0.00    +0.240 C 
BRANCH  17  18
ATOM     18  N   LIG    1       -2.299   1.177   0.331  0.00  0.00    -0.720 N 
ATOM     19  H   LIG    1       -2.131   0.320   0.753  0.00  0.00    +0.410 HD
ATOM     20  C   LIG    1       -3.561   1.550   0.041  0.00  0.00    +0.510 C 
ATOM     21  O   LIG    1       -3.771   2.621  -0.487  0.00  0.00    -0.510 OA
BRANCH  20  22
ATOM     22  C   LIG    1       -4.712   0.636   0.375  0.00  0.00    +0.210 C 
BRANCH  22  23
ATOM     23  N   LIG    1       -5.973   1.266  -0.037  0.00  0.00    -0.830 NA
ATOM     24  H   LIG    1       -6.080   2.175   0.389  0.00  0.00    +0.350 HD
ATOM     25  H   LIG    1       -6.761   0.672   0.176  0.00  0.00    +0.350 HD
ENDBRANCH  22  23
ENDBRANCH  20  22
ENDBRANCH  17  18
BRANCH  17  26
ATOM     26  C   LIG    1       -0.986   3.075   1.140  0.00  0.00    +0.030 C 
BRANCH  26  28
ATOM     27  C   LIG    1       -2.060   4.936   2.414  0.00  0.00    +0.010 C 
ATOM     28  C   LIG    1       -2.196   4.009   1.204  0.00  0.00    -0.010 C 
ATOM     29  C   LIG    1       -2.263   4.845  -0.075  0.00  0.00    +0.020 C 
ENDBRANCH  26  28
ENDBRANCH  17  26
ENDBRANCH   1  17
TORSDOF 7
