REMARK  Name = ZINCrH000004nfTb.0
REMARK                            x       y       z     vdW  Elec       q    Type
REMARK                         _______ _______ _______ _____ _____    ______ ____
ROOT
ATOM      1  C   LIG    1        6.063   0.614  -0.279  0.00  0.00    +0.610 C 
ATOM      2  N   LIG    1        6.611  -0.578   0.029  0.00  0.00    -0.590 N 
ATOM      3  C   LIG    1        5.787  -1.790   0.008  0.00  0.00    +0.320 C 
ATOM      4  O   LIG    1        6.760   1.611  -0.322  0.00  0.00    -0.510 OA
ENDROOT
BRANCH   1  10
ATOM      5  C   LIG    1        0.195   1.511  -1.450  0.00  0.00    +0.110 A 
ATOM      6  C   LIG    1        0.175   0.119  -1.398  0.00  0.00    -0.020 A 
ATOM      7  C   LIG    1        1.329  -0.591  -1.147  0.00  0.00    +0.070 A 
ATOM      8  C   LIG    1        2.529   0.079  -0.942  0.00  0.00    +0.040 A 
ATOM      9  O   LIG    1        3.784  -0.338  -0.682  0.00  0.00    -0.180 OA
ATOM     10  C   LIG    1        4.624   0.711  -0.561  0.00  0.00    -0.030 A 
ATOM     11  C   LIG    1        3.939   1.870  -0.740  0.00  0.00    -0.070 A 
ATOM     12  C   LIG    1        4.496   3.269  -0.688  0.00  0.00    +0.150 C 
ATOM     13  C   LIG    1        2.551   1.486  -0.993  0.00  0.00    -0.100 A 
ATOM     14  C   LIG    1        1.376   2.197  -1.249  0.00  0.00    +0.040 A 
BRANCH   5  16
ATOM     15  C   LIG    1       -2.137   1.423  -1.909  0.00  0.00    +0.250 C 
ATOM     16  O   LIG    1       -0.952   2.196  -1.705  0.00  0.00    -0.310 OA
ENDBRANCH   5  16
ENDBRANCH   1  10
BRANCH   2  17
ATOM     17  C   LIG    1        8.030  -0.663   0.383  0.00  0.00    +0.340 C 
BRANCH  17  18
ATOM     18  C   LIG    1        8.187  -0.491   1.872  0.00  0.00    +0.500 C 
ATOM     19  N   LIG    1        9.413  -0.533   2.430  0.00  0.00    -0.670 N 
ATOM     20  H   LIG    1       10.187  -0.739   1.884  0.00  0.00    +0.410 HD
ATOM     21  O   LIG    1        7.209  -0.315   2.568  0.00  0.00    -0.510 OA
BRANCH  19  22
ATOM     22  C   LIG    1        9.569  -0.279   3.797  0.00  0.00    +0.140 A 
ATOM     23  C   LIG    1       10.700   0.381   4.258  0.00  0.00    -0.010 A 
ATOM     24  C   LIG    1       10.849   0.634   5.607  0.00  0.00    +0.030 A 
ATOM     25  C   LIG    1        9.877   0.223   6.500  0.00  0.00    -0.100 A 
ATOM     26  C   LIG    1        8.751  -0.439   6.046  0.00  0.00    +0.030 A 
ATOM     27  C   LIG    1       10.045   0.496   7.973  0.00  0.00    +0.100 C 
ATOM     28  C   LIG    1        8.594  -0.691   4.697  0.00  0.00    +0.020 A 
ENDBRANCH  19  22
ENDBRANCH  17  18
ENDBRANCH   2  17
TORSDOF 5
