REMARK  Name = ZINCvU00000004KC.0
REMARK                            x       y       z     vdW  Elec       q    Type
REMARK                         _______ _______ _______ _____ _____    ______ ____
ROOT
ATOM      1  O   LIG    1        2.508  -0.122  -0.160  0.00  0.00    -0.530 OA
ATOM      2  C   LIG    1        2.482   1.082   0.005  0.00  0.00    +0.570 C 
ATOM      3  N   LIG    1        3.632   1.764   0.178  0.00  0.00    -0.720 N 
ATOM      4  H   LIG    1        3.611   2.724   0.309  0.00  0.00    +0.400 HD
ENDROOT
BRANCH   2   5
ATOM      5  C   LIG    1        1.191   1.798   0.016  0.00  0.00    -0.150 A 
ATOM      6  C   LIG    1       -0.002   1.093  -0.163  0.00  0.00    +0.100 A 
ATOM      7  C   LIG    1       -1.204   1.764  -0.158  0.00  0.00    -0.010 A 
ATOM      8  C   LIG    1       -1.232   3.142   0.036  0.00  0.00    +0.170 A 
ATOM      9  C   LIG    1       -0.045   3.847   0.214  0.00  0.00    +0.010 A 
ATOM     10  C   LIG    1        1.160   3.183   0.205  0.00  0.00    +0.070 A 
BRANCH   8  11
ATOM     11  N   LIG    1       -2.450   3.818   0.047  0.00  0.00    -0.660 N 
ATOM     12  H   LIG    1       -3.242   3.385   0.403  0.00  0.00    +0.420 HD
ATOM     13  C   LIG    1       -2.529   5.073  -0.439  0.00  0.00    +0.610 C 
ATOM     14  O   LIG    1       -1.561   5.580  -0.973  0.00  0.00    -0.490 OA
BRANCH  13  15
ATOM     15  C   LIG    1       -3.781   5.826  -0.323  0.00  0.00    -0.090 A 
ATOM     16  C   LIG    1       -3.997   7.099  -0.769  0.00  0.00    +0.050 A 
ATOM     17  C   LIG    1       -5.326   7.418  -0.452  0.00  0.00    -0.070 A 
ATOM     18  C   LIG    1       -5.857   6.341   0.167  0.00  0.00    +0.220 A 
ATOM     19  O   LIG    1       -4.925   5.382   0.238  0.00  0.00    -0.170 OA
ENDBRANCH  13  15
ENDBRANCH   8  11
ENDBRANCH   2   5
BRANCH   3  20
ATOM     20  C   LIG    1        4.913   1.053   0.167  0.00  0.00    +0.290 C 
BRANCH  20  21
ATOM     21  C   LIG    1        5.197   0.509   1.543  0.00  0.00    -0.100 A 
ATOM     22  C   LIG    1        4.907   1.270   2.660  0.00  0.00    +0.010 A 
ATOM     23  C   LIG    1        5.165   0.769   3.923  0.00  0.00    +0.000 A 
ATOM     24  C   LIG    1        5.720  -0.489   4.068  0.00  0.00    +0.000 A 
ATOM     25  C   LIG    1        6.015  -1.247   2.950  0.00  0.00    +0.000 A 
ATOM     26  C   LIG    1        5.754  -0.748   1.688  0.00  0.00    +0.020 A 
ENDBRANCH  20  21
BRANCH  20  27
ATOM     27  C   LIG    1        6.028   2.018  -0.240  0.00  0.00    +0.090 C 
BRANCH  27  28
ATOM     28  C   LIG    1        5.809   2.468  -1.662  0.00  0.00    -0.080 A 
ATOM     29  C   LIG    1        6.368   1.755  -2.706  0.00  0.00    +0.010 A 
ATOM     30  C   LIG    1        6.163   2.164  -4.011  0.00  0.00    +0.000 A 
ATOM     31  C   LIG    1        5.408   3.292  -4.271  0.00  0.00    +0.000 A 
ATOM     32  C   LIG    1        4.853   4.008  -3.226  0.00  0.00    +0.000 A 
ATOM     33  C   LIG    1        5.054   3.596  -1.922  0.00  0.00    +0.010 A 
ENDBRANCH  27  28
ENDBRANCH  20  27
ENDBRANCH   3  20
TORSDOF 7
