REMARK  Name = ZINCrD00000F5Lsf.0
REMARK                            x       y       z     vdW  Elec       q    Type
REMARK                         _______ _______ _______ _____ _____    ______ ____
ROOT
ATOM      1  C   LIG    1       -3.029   4.134  -4.347  0.00  0.00    +0.050 C 
ATOM      2  C   LIG    1       -3.323   2.866  -3.541  0.00  0.00    +0.050 C 
ATOM      3  C   LIG    1       -4.035   3.248  -2.239  0.00  0.00    +0.310 C 
ATOM      4  N   LIG    1       -3.218   4.240  -1.527  0.00  0.00    -1.000 NA
ATOM      5  C   LIG    1       -2.807   5.458  -2.238  0.00  0.00    +0.310 C 
ATOM      6  C   LIG    1       -2.104   5.049  -3.541  0.00  0.00    +0.040 C 
ENDROOT
BRANCH   4   7
ATOM      7  S   LIG    1       -2.776   3.993   0.050  0.00  0.00    +2.690 S 
ATOM      8  O   LIG    1       -2.511   5.276   0.598  0.00  0.00    -0.950 OA
ATOM      9  O   LIG    1       -3.730   3.095   0.598  0.00  0.00    -0.950 OA
BRANCH   7  10
ATOM     10  C   LIG    1       -1.238   3.133   0.031  0.00  0.00    -0.680 A 
ATOM     11  C   LIG    1       -1.219   1.751   0.017  0.00  0.00    +0.140 A 
ATOM     12  C   LIG    1       -0.013   1.076   0.008  0.00  0.00    +0.020 A 
ATOM     13  C   LIG    1        1.176   1.784   0.000  0.00  0.00    +0.020 A 
ATOM     14  C   LIG    1        1.156   3.167   0.008  0.00  0.00    +0.020 A 
ATOM     15 CL   LIG    1        2.691   0.937  -0.018  0.00  0.00    -0.050 Cl
ATOM     16  C   LIG    1       -0.050   3.841   0.023  0.00  0.00    +0.140 A 
ENDBRANCH   7  10
ENDBRANCH   4   7
BRANCH   1  18
ATOM     17  O   LIG    1       -2.139   2.595  -5.899  0.00  0.00    -0.460 OA
ATOM     18  C   LIG    1       -2.359   3.759  -5.644  0.00  0.00    +0.460 C 
BRANCH  18  19
ATOM     19  O   LIG    1       -2.006   4.715  -6.517  0.00  0.00    -0.120 OA
BRANCH  19  20
ATOM     20  N   LIG    1       -1.468   4.352  -7.548  0.00  0.00    -0.350 NA
ATOM     21  C   LIG    1       -1.104   5.225  -8.430  0.00  0.00    +0.240 C 
BRANCH  21  22
ATOM     22  C   LIG    1       -0.453   4.784  -9.680  0.00  0.00    -0.060 A 
ATOM     23  C   LIG    1       -0.223   3.426  -9.909  0.00  0.00    +0.050 A 
ATOM     24  C   LIG    1        0.382   3.021 -11.081  0.00  0.00    +0.000 A 
ATOM     25  C   LIG    1        0.771   3.957 -12.023  0.00  0.00    +0.030 A 
ATOM     26  C   LIG    1        0.551   5.305 -11.799  0.00  0.00    +0.010 A 
ATOM     27  C   LIG    1       -0.058   5.724 -10.634  0.00  0.00    +0.040 A 
ENDBRANCH  21  22
ENDBRANCH  19  20
ENDBRANCH  18  19
ENDBRANCH   1  18
TORSDOF 6
