REMARK  Name = ZINCrD00000F5LzK.0
REMARK                            x       y       z     vdW  Elec       q    Type
REMARK                         _______ _______ _______ _____ _____    ______ ____
ROOT
ATOM      1  O   LIG    1        3.386   2.944   1.732  0.00  0.00    -0.320 OA
ENDROOT
BRANCH   1   2
ATOM      2  C   LIG    1        3.344   3.924   0.806  0.00  0.00    +0.520 C 
ATOM      3  O   LIG    1        4.214   4.774   0.781  0.00  0.00    -0.510 OA
BRANCH   2   4
ATOM      4  C   LIG    1        2.250   3.965  -0.169  0.00  0.00    -0.130 C 
ATOM      5  C   LIG    1        2.207   4.968  -1.117  0.00  0.00    +0.230 C 
BRANCH   4   6
ATOM      6  C   LIG    1        1.196   2.934  -0.138  0.00  0.00    -0.160 A 
ATOM      7  C   LIG    1        1.358   1.642  -0.495  0.00  0.00    +0.050 A 
ATOM      8  C   LIG    1        0.222   0.867  -0.380  0.00  0.00    +0.010 A 
ATOM      9  C   LIG    1       -0.862   1.511   0.060  0.00  0.00    -0.030 A 
ATOM     10  S   LIG    1       -0.467   3.197   0.370  0.00  0.00    +0.130 S 
ENDBRANCH   4   6
BRANCH   5  11
ATOM     11  C   LIG    1        1.332   4.860  -2.219  0.00  0.00    -0.240 A 
ATOM     12  C   LIG    1        1.099   5.841  -3.150  0.00  0.00    +0.080 A 
ATOM     13  C   LIG    1        0.199   5.466  -4.118  0.00  0.00    -0.020 A 
ATOM     14  C   LIG    1       -0.289   4.226  -3.990  0.00  0.00    -0.100 A 
ATOM     15  S   LIG    1        0.371   3.445  -2.625  0.00  0.00    +0.260 S 
ENDBRANCH   5  11
ENDBRANCH   2   4
ENDBRANCH   1   2
BRANCH   1  16
ATOM     16  C   LIG    1        4.498   2.966   2.666  0.00  0.00    +0.250 C 
BRANCH  16  19
ATOM     17  N   LIG    1        5.306   1.622   4.579  0.00  0.00    -0.730 N 
ATOM     18  H   LIG    1        6.050   2.239   4.658  0.00  0.00    +0.400 HD
ATOM     19  C   LIG    1        4.378   1.804   3.618  0.00  0.00    +0.520 C 
ATOM     20  O   LIG    1        3.448   1.033   3.519  0.00  0.00    -0.510 OA
BRANCH  17  21
ATOM     21  C   LIG    1        5.189   0.492   5.504  0.00  0.00    +0.260 C 
BRANCH  21  22
ATOM     22  C   LIG    1        6.361   0.516   6.488  0.00  0.00    +0.040 C 
BRANCH  22  23
ATOM     23  C   LIG    1        6.239  -0.664   7.454  0.00  0.00    +0.110 C 
BRANCH  23  24
ATOM     24  C   LIG    1        7.393  -0.641   8.423  0.00  0.00    +0.460 C 
ATOM     25  O   LIG    1        8.227   0.230   8.349  0.00  0.00    -0.510 OA
BRANCH  24  26
ATOM     26  O   LIG    1        7.494  -1.587   9.370  0.00  0.00    -0.360 OA
BRANCH  26  28
ATOM     27  C   LIG    1        8.577  -2.658  11.270  0.00  0.00    +0.070 C 
ATOM     28  C   LIG    1        8.631  -1.502  10.268  0.00  0.00    +0.200 C 
ENDBRANCH  26  28
ENDBRANCH  24  26
ENDBRANCH  23  24
ENDBRANCH  22  23
ENDBRANCH  21  22
ENDBRANCH  17  21
ENDBRANCH  16  19
ENDBRANCH   1  16
TORSDOF 12
