REMARK  Name = ZINCpk00000y6wKx.0
REMARK                            x       y       z     vdW  Elec       q    Type
REMARK                         _______ _______ _______ _____ _____    ______ ____
ROOT
ATOM      1  O   LIG    1        5.875   3.591   0.658  0.00  0.00    -0.540 OA
ATOM      2  C   LIG    1        5.122   3.324   1.574  0.00  0.00    +0.720 C 
ATOM      3  N   LIG    1        5.409   3.735   2.825  0.00  0.00    -0.630 N 
ATOM      4  C   LIG    1        4.588   3.482   4.022  0.00  0.00    +0.230 C 
ATOM      5  C   LIG    1        5.578   3.574   5.209  0.00  0.00    +0.030 C 
ATOM      6  C   LIG    1        6.513   4.724   4.747  0.00  0.00    +0.030 C 
ATOM      7  C   LIG    1        6.597   4.505   3.222  0.00  0.00    +0.230 C 
ATOM      8  N   LIG    1        3.999   2.617   1.338  0.00  0.00    -0.750 N 
ATOM      9  H   LIG    1        3.397   2.404   2.069  0.00  0.00    +0.390 HD
ENDROOT
BRANCH   7  10
ATOM     10  C   LIG    1        6.605   5.857   2.505  0.00  0.00    +0.150 C 
BRANCH  10  11
ATOM     11  N   LIG    1        6.545   5.641   1.053  0.00  0.00    -0.500 NA
ATOM     12  C   LIG    1        7.769   4.987   0.567  0.00  0.00    +0.160 C 
ATOM     13  C   LIG    1        7.640   4.729  -0.937  0.00  0.00    +0.230 C 
ATOM     14  O   LIG    1        7.383   5.965  -1.608  0.00  0.00    -0.390 OA
ATOM     15  C   LIG    1        6.198   6.628  -1.159  0.00  0.00    +0.220 C 
ATOM     16  C   LIG    1        6.313   6.907   0.342  0.00  0.00    +0.130 C 
ENDBRANCH  10  11
ENDBRANCH   7  10
BRANCH   8  17
ATOM     17  C   LIG    1        3.686   2.170  -0.022  0.00  0.00    +0.350 C 
BRANCH  17  18
ATOM     18  C   LIG    1        2.387   1.407  -0.013  0.00  0.00    -0.090 A 
ATOM     19  C   LIG    1        2.398   0.024  -0.021  0.00  0.00    +0.050 A 
ATOM     20  C   LIG    1        1.208  -0.679  -0.013  0.00  0.00    +0.030 A 
ATOM     21  C   LIG    1        0.002  -0.004   0.002  0.00  0.00    +0.050 A 
ATOM     22  C   LIG    1       -0.017   1.381   0.010  0.00  0.00    +0.030 A 
ATOM     23  O   LIG    1       -1.051   2.272   0.019  0.00  0.00    -0.310 OA
ATOM     24  C   LIG    1       -0.473   3.525   0.438  0.00  0.00    +0.430 C 
ATOM     25  O   LIG    1        0.899   3.426   0.012  0.00  0.00    -0.300 OA
ATOM     26  C   LIG    1        1.182   2.090   0.002  0.00  0.00    +0.050 A 
ENDBRANCH  17  18
ENDBRANCH   8  17
TORSDOF 4
