REMARK  Name = ZINCvU0000000GA5.0
REMARK                            x       y       z     vdW  Elec       q    Type
REMARK                         _______ _______ _______ _____ _____    ______ ____
ROOT
ATOM      1  C   LIG    1        5.737   6.647   1.924  0.00  0.00    +0.150 A 
ATOM      2  N   LIG    1        6.141   7.295   0.856  0.00  0.00    -0.290 NA
ATOM      3  N   LIG    1        7.263   7.874   1.096  0.00  0.00    -0.270 NA
ATOM      4  C   LIG    1        7.639   7.632   2.319  0.00  0.00    +0.190 A 
ATOM      5  N   LIG    1        6.678   6.846   2.893  0.00  0.00    -0.450 N 
ENDROOT
BRANCH   5   6
ATOM      6  C   LIG    1        6.663   6.324   4.261  0.00  0.00    +0.240 C 
ATOM      7  C   LIG    1        6.639   4.795   4.224  0.00  0.00    +0.010 C 
ATOM      8  C   LIG    1        6.623   4.249   5.653  0.00  0.00    +0.030 C 
ATOM      9  C   LIG    1        5.378   4.761   6.380  0.00  0.00    +0.010 C 
ATOM     10  C   LIG    1        5.401   6.290   6.418  0.00  0.00    +0.030 C 
ATOM     11  C   LIG    1        5.417   6.835   4.988  0.00  0.00    +0.020 C 
ENDBRANCH   5   6
BRANCH   1  12
ATOM     12  S   LIG    1        4.257   5.703   2.079  0.00  0.00    +0.040 S 
BRANCH  12  13
ATOM     13  C   LIG    1        3.568   5.924   0.419  0.00  0.00    +0.170 C 
BRANCH  13  21
ATOM     14  C   LIG    1       -2.569   3.845   0.047  0.00  0.00    +0.150 C 
ATOM     15  C   LIG    1       -1.250   3.117   0.030  0.00  0.00    +0.140 A 
ATOM     16  C   LIG    1       -1.232   1.770  -0.085  0.00  0.00    -0.020 A 
ATOM     17  C   LIG    1       -0.011   1.080  -0.096  0.00  0.00    +0.140 A 
ATOM     18  C   LIG    1        1.155   1.778  -0.000  0.00  0.00    +0.020 A 
ATOM     19  C   LIG    1        1.116   3.179   0.114  0.00  0.00    +0.400 A 
ATOM     20  N   LIG    1        2.256   3.863   0.207  0.00  0.00    -0.540 NA
ATOM     21  C   LIG    1        2.261   5.182   0.316  0.00  0.00    +0.220 A 
ATOM     22  C   LIG    1        1.069   5.879   0.334  0.00  0.00    -0.160 A 
ATOM     23  C   LIG    1       -0.133   5.168   0.236  0.00  0.00    +0.510 A 
ATOM     24  O   LIG    1       -1.204   5.755   0.248  0.00  0.00    -0.520 OA
ATOM     25  N   LIG    1       -0.090   3.823   0.127  0.00  0.00    -0.430 N 
ENDBRANCH  13  21
ENDBRANCH  12  13
ENDBRANCH   1  12
BRANCH   4  26
ATOM     26  C   LIG    1        8.898   8.131   2.982  0.00  0.00    +0.250 C 
BRANCH  26  27
ATOM     27  C   LIG    1        8.624   9.456   3.645  0.00  0.00    -0.190 A 
ATOM     28  C   LIG    1        8.201   9.616   4.900  0.00  0.00    +0.010 A 
ATOM     29  C   LIG    1        8.022  10.931   5.292  0.00  0.00    +0.000 A 
ATOM     30  C   LIG    1        8.291  11.839   4.353  0.00  0.00    -0.040 A 
ATOM     31  S   LIG    1        8.808  11.029   2.880  0.00  0.00    +0.140 S 
ENDBRANCH  26  27
ENDBRANCH   4  26
TORSDOF 6
