REMARK  Name = ZINCtV00001bB3ej.0
REMARK                            x       y       z     vdW  Elec       q    Type
REMARK                         _______ _______ _______ _____ _____    ______ ____
ROOT
ATOM      1  C   LIG    1      -11.849   1.381  -4.032  0.00  0.00    +0.090 C 
ATOM      2  C   LIG    1      -10.879   1.634  -2.907  0.00  0.00    -0.080 A 
ATOM      3  C   LIG    1       -9.539   1.572  -3.146  0.00  0.00    +0.040 A 
ATOM      4  C   LIG    1       -8.636   1.807  -2.100  0.00  0.00    -0.090 A 
ATOM      5  C   LIG    1       -7.237   1.757  -2.312  0.00  0.00    +0.050 A 
ATOM      6  C   LIG    1       -6.400   1.999  -1.211  0.00  0.00    -0.190 A 
ATOM      7  C   LIG    1       -6.974   2.289   0.037  0.00  0.00    +0.190 A 
ATOM      8  N   LIG    1       -8.271   2.333   0.203  0.00  0.00    -0.470 NA
ATOM      9  C   LIG    1       -6.074   2.554   1.216  0.00  0.00    +0.140 C 
ATOM     10  C   LIG    1       -9.124   2.107  -0.804  0.00  0.00    +0.140 A 
ATOM     11  C   LIG    1      -10.513   2.162  -0.596  0.00  0.00    +0.050 A 
ATOM     12  C   LIG    1      -11.363   1.929  -1.635  0.00  0.00    +0.040 A 
ENDROOT
BRANCH   5  13
ATOM     13  C   LIG    1       -6.676   1.454  -3.646  0.00  0.00    -0.070 A 
ATOM     14  C   LIG    1       -6.881   2.335  -4.709  0.00  0.00    +0.040 A 
ATOM     15  C   LIG    1       -6.350   2.049  -5.950  0.00  0.00    +0.010 A 
ATOM     16  C   LIG    1       -5.626   0.886  -6.145  0.00  0.00    +0.020 A 
ATOM     17  C   LIG    1       -5.425   0.005  -5.097  0.00  0.00    +0.010 A 
ATOM     18  C   LIG    1       -5.945   0.282  -3.850  0.00  0.00    +0.040 A 
ENDBRANCH   5  13
BRANCH   6  19
ATOM     19  C   LIG    1       -4.933   1.956  -1.364  0.00  0.00    +0.450 C 
ATOM     20  O   LIG    1       -4.324   0.933  -1.105  0.00  0.00    -0.440 OA
BRANCH  19  21
ATOM     21  C   LIG    1       -4.211   3.140  -1.828  0.00  0.00    -0.100 C 
ATOM     22  C   LIG    1       -2.861   3.133  -1.875  0.00  0.00    +0.130 C 
BRANCH  22  23
ATOM     23  C   LIG    1       -2.135   4.324  -2.341  0.00  0.00    -0.090 A 
ATOM     24  C   LIG    1       -2.838   5.469  -2.731  0.00  0.00    +0.040 A 
ATOM     25  C   LIG    1       -2.151   6.580  -3.171  0.00  0.00    +0.000 A 
ATOM     26  C   LIG    1       -0.768   6.566  -3.224  0.00  0.00    +0.030 A 
ATOM     27  C   LIG    1       -0.064   5.439  -2.834  0.00  0.00    +0.000 A 
ATOM     28  C   LIG    1       -0.737   4.321  -2.391  0.00  0.00    -0.060 A 
ATOM     29  C   LIG    1        0.031   3.095  -1.967  0.00  0.00    +0.090 C 
ENDBRANCH  22  23
ENDBRANCH  19  21
ENDBRANCH   6  19
TORSDOF 4
