REMARK  Name = ZINCvU0000000Iyj.0
REMARK                            x       y       z     vdW  Elec       q    Type
REMARK                         _______ _______ _______ _____ _____    ______ ____
ROOT
ATOM      1  N   LIG    1       -0.005  -3.713  -2.109  0.00  0.00    -0.610 N 
ATOM      2  C   LIG    1        0.417  -2.548  -1.578  0.00  0.00    +0.510 C 
ATOM      3  O   LIG    1        1.222  -2.552  -0.671  0.00  0.00    -0.510 OA
ATOM      4  C   LIG    1       -0.897  -3.708  -3.271  0.00  0.00    +0.270 C 
ENDROOT
BRANCH   2   5
ATOM      5  C   LIG    1       -0.112  -1.242  -2.111  0.00  0.00    -0.010 C 
ATOM      6  C   LIG    1       -0.722  -0.434  -0.964  0.00  0.00    +0.100 C 
ATOM      7  C   LIG    1        0.357   0.066  -0.048  0.00  0.00    -0.050 C 
ATOM      8  C   LIG    1        1.611   0.117  -0.365  0.00  0.00    -0.010 C 
ATOM      9  C   LIG    1        2.163  -0.326  -1.688  0.00  0.00    +0.080 C 
ATOM     10  C   LIG    1        1.038  -0.430  -2.720  0.00  0.00    +0.120 C 
BRANCH  10  11
ATOM     11  C   LIG    1        1.547  -1.123  -3.957  0.00  0.00    +0.090 A 
ATOM     12  N   LIG    1        1.554  -0.600  -5.125  0.00  0.00    -0.460 NA
ATOM     13  C   LIG    1        2.040  -1.337  -6.142  0.00  0.00    +0.080 A 
ATOM     14  C   LIG    1        2.165  -1.014  -7.508  0.00  0.00    +0.080 A 
ATOM     15  C   LIG    1        2.690  -1.915  -8.384  0.00  0.00    +0.030 A 
ATOM     16  C   LIG    1        3.111  -3.164  -7.952  0.00  0.00    +0.040 A 
ATOM     17  C   LIG    1        3.001  -3.507  -6.622  0.00  0.00    +0.060 A 
ATOM     18  C   LIG    1        2.467  -2.599  -5.712  0.00  0.00    -0.190 A 
ATOM     19  S   LIG    1        2.186  -2.705  -3.977  0.00  0.00    +0.120 S 
ENDBRANCH  10  11
ENDBRANCH   2   5
BRANCH   1  20
ATOM     20  C   LIG    1        0.429  -4.984  -1.524  0.00  0.00    +0.290 C 
BRANCH  20  21
ATOM     21  C   LIG    1       -0.564  -5.413  -0.442  0.00  0.00    +0.060 C 
BRANCH  21  25
ATOM     22  C   LIG    1        0.705  -9.121   1.269  0.00  0.00    +0.100 A 
ATOM     23  C   LIG    1        1.136  -7.921   1.811  0.00  0.00    -0.030 A 
ATOM     24  C   LIG    1        0.724  -6.724   1.256  0.00  0.00    +0.020 A 
ATOM     25  C   LIG    1       -0.118  -6.721   0.160  0.00  0.00    -0.080 A 
ATOM     26  C   LIG    1       -0.556  -7.915  -0.383  0.00  0.00    -0.040 A 
ATOM     27  C   LIG    1       -0.143  -9.118   0.165  0.00  0.00    +0.100 A 
BRANCH  22  29
ATOM     28  C   LIG    1        1.980 -10.226   2.945  0.00  0.00    +0.250 C 
ATOM     29  O   LIG    1        1.110 -10.300   1.814  0.00  0.00    -0.310 OA
ENDBRANCH  22  29
BRANCH  27  30
ATOM     30  O   LIG    1       -0.568 -10.293  -0.371  0.00  0.00    -0.310 OA
ATOM     31  C   LIG    1       -1.437 -10.213  -1.503  0.00  0.00    +0.230 C 
ENDBRANCH  27  30
ENDBRANCH  21  25
ENDBRANCH  20  21
ENDBRANCH   1  20
TORSDOF 7
