REMARK  Name = ZINCqH0000034Z7j.0
REMARK                            x       y       z     vdW  Elec       q    Type
REMARK                         _______ _______ _______ _____ _____    ______ ____
ROOT
ATOM      1  C   LIG    1       -0.002   0.006   0.001  0.00  0.00    +0.350 C 
ENDROOT
BRANCH   1   2
ATOM      2  C   LIG    1        0.732  -0.497   1.217  0.00  0.00    -0.100 A 
ATOM      3  C   LIG    1        0.087  -0.551   2.439  0.00  0.00    +0.030 A 
ATOM      4  C   LIG    1        0.756  -1.017   3.555  0.00  0.00    -0.100 A 
ATOM      5  C   LIG    1        2.079  -1.421   3.450  0.00  0.00    +0.120 A 
ATOM      6  C   LIG    1        2.725  -1.361   2.224  0.00  0.00    -0.100 A 
ATOM      7  C   LIG    1        4.162  -1.800   2.107  0.00  0.00    +0.100 C 
ATOM      8  C   LIG    1        0.051  -1.081   4.885  0.00  0.00    +0.100 C 
ATOM      9  C   LIG    1        2.050  -0.900   1.111  0.00  0.00    +0.060 A 
BRANCH   5  10
ATOM     10  O   LIG    1        2.741  -1.875   4.547  0.00  0.00    -0.490 OA
ATOM     11  H   LIG    1        3.198  -1.183   5.045  0.00  0.00    +0.390 HD
ENDBRANCH   5  10
ENDBRANCH   1   2
BRANCH   1  12
ATOM     12  N   LIG    1       -1.375  -0.505   0.012  0.00  0.00    -0.700 N 
ATOM     13  H   LIG    1       -1.793  -0.753   0.851  0.00  0.00    +0.410 HD
ATOM     14  C   LIG    1       -2.055  -0.633  -1.144  0.00  0.00    +0.600 C 
ATOM     15  O   LIG    1       -1.565  -0.238  -2.186  0.00  0.00    -0.540 OA
BRANCH  14  16
ATOM     16  C   LIG    1       -3.387  -1.248  -1.147  0.00  0.00    -0.040 A 
ATOM     17  C   LIG    1       -4.105  -1.642  -0.038  0.00  0.00    +0.040 A 
ATOM     18  C   LIG    1       -5.314  -2.174  -0.498  0.00  0.00    -0.180 A 
ATOM     19  C   LIG    1       -5.313  -2.097  -1.851  0.00  0.00    +0.250 A 
ATOM     20 BR   LIG    1       -6.703  -2.875   0.576  0.00  0.00    -0.020 Br
ATOM     21  N   LIG    1       -4.150  -1.531  -2.257  0.00  0.00    -0.390 N 
BRANCH  21  22
ATOM     22  C   LIG    1       -3.767  -1.268  -3.647  0.00  0.00    +0.230 C 
ATOM     23  C   LIG    1       -4.707  -0.220  -4.245  0.00  0.00    +0.050 C 
ATOM     24  C   LIG    1       -3.864  -2.563  -4.456  0.00  0.00    +0.050 C 
ENDBRANCH  21  22
ENDBRANCH  14  16
ENDBRANCH   1  12
BRANCH   1  25
ATOM     25  C   LIG    1       -0.028   1.513   0.018  0.00  0.00    +0.450 C 
ATOM     26  O   LIG    1       -1.084   2.099   0.033  0.00  0.00    -0.490 OA
BRANCH  25  28
ATOM     27  C   LIG    1        1.022   3.653   0.029  0.00  0.00    +0.260 C 
ATOM     28  O   LIG    1        1.123   2.204   0.012  0.00  0.00    -0.350 OA
ENDBRANCH  25  28
ENDBRANCH   1  25
TORSDOF 7
