REMARK  Name = ZINCzw0000000eQ4.0
REMARK                            x       y       z     vdW  Elec       q    Type
REMARK                         _______ _______ _______ _____ _____    ______ ____
ROOT
ATOM      1  O   LIG    1       -0.537   7.218  -2.562  0.00  0.00    -0.490 OA
ATOM      2  C   LIG    1       -1.453   7.654  -3.229  0.00  0.00    +0.520 C 
ATOM      3  N   LIG    1       -2.284   6.807  -3.868  0.00  0.00    -0.640 N 
ATOM      4  H   LIG    1       -2.968   7.154  -4.461  0.00  0.00    +0.430 HD
ENDROOT
BRANCH   2   5
ATOM      5  C   LIG    1       -1.659   9.129  -3.341  0.00  0.00    +0.510 C 
ATOM      6  N   LIG    1       -0.751   9.978  -2.819  0.00  0.00    -0.570 N 
ATOM      7  C   LIG    1        0.392   9.470  -2.049  0.00  0.00    +0.280 C 
ATOM      8  C   LIG    1        1.683  10.040  -2.657  0.00  0.00    +0.010 C 
ATOM      9  C   LIG    1        1.586  11.566  -2.706  0.00  0.00    +0.240 C 
ATOM     10  C   LIG    1        0.411  11.977  -3.597  0.00  0.00    +0.030 C 
ATOM     11  C   LIG    1       -0.890  11.429  -3.004  0.00  0.00    +0.290 C 
ATOM     12  O   LIG    1       -2.644   9.563  -3.902  0.00  0.00    -0.510 OA
BRANCH   9  13
ATOM     13  N   LIG    1        2.829  12.117  -3.252  0.00  0.00    -0.730 N 
ATOM     14  H   LIG    1        2.893  12.323  -4.197  0.00  0.00    +0.400 HD
ATOM     15  C   LIG    1        3.882  12.337  -2.441  0.00  0.00    +0.600 C 
ATOM     16  O   LIG    1        3.801  12.078  -1.254  0.00  0.00    -0.530 OA
BRANCH  15  17
ATOM     17  C   LIG    1        5.126  12.888  -2.987  0.00  0.00    -0.280 A 
ATOM     18  C   LIG    1        6.258  13.154  -2.269  0.00  0.00    +0.100 A 
ATOM     19  C   LIG    1        7.279  13.666  -3.034  0.00  0.00    +0.000 A 
ATOM     20  C   LIG    1        6.995  13.816  -4.333  0.00  0.00    -0.050 A 
ATOM     21  S   LIG    1        5.403  13.305  -4.673  0.00  0.00    +0.200 S 
ENDBRANCH  15  17
ENDBRANCH   9  13
ENDBRANCH   2   5
BRANCH   3  22
ATOM     22  C   LIG    1       -2.159   5.429  -3.677  0.00  0.00    +0.170 A 
ATOM     23  C   LIG    1       -2.553   4.549  -4.678  0.00  0.00    -0.010 A 
ATOM     24  C   LIG    1       -2.430   3.186  -4.489  0.00  0.00    +0.070 A 
ATOM     25  C   LIG    1       -1.910   2.693  -3.308  0.00  0.00    -0.050 A 
ATOM     26  C   LIG    1       -1.520   3.567  -2.300  0.00  0.00    +0.110 A 
ATOM     27  C   LIG    1       -1.642   4.936  -2.486  0.00  0.00    +0.010 A 
BRANCH  26  28
ATOM     28  N   LIG    1       -1.000   3.067  -1.104  0.00  0.00    -0.480 N 
ATOM     29  C   LIG    1       -0.960   1.598  -1.120  0.00  0.00    +0.220 C 
ATOM     30  C   LIG    1       -0.330   1.094   0.180  0.00  0.00    +0.280 C 
ATOM     31  N   LIG    1       -1.122   1.567   1.323  0.00  0.00    -0.380 N 
ATOM     32  C   LIG    1       -1.133   3.035   1.340  0.00  0.00    +0.280 C 
ATOM     33  H   LIG    1       -2.068   1.224   1.241  0.00  0.00    +0.420 HD
ATOM     34  C   LIG    1       -1.769   3.556   0.049  0.00  0.00    +0.230 C 
BRANCH  31  35
ATOM     35  C   LIG    1       -0.527   1.067   2.570  0.00  0.00    +0.290 C 
BRANCH  35  36
ATOM     36  C   LIG    1       -1.420   1.454   3.751  0.00  0.00    -0.090 C 
ATOM     37  C   LIG    1       -0.834   2.403   4.799  0.00  0.00    +0.050 C 
ATOM     38  C   LIG    1       -1.033   0.923   5.133  0.00  0.00    +0.070 C 
ENDBRANCH  35  36
ENDBRANCH  31  35
ENDBRANCH  26  28
ENDBRANCH   3  22
TORSDOF 7
