REMARK  Name = ZINCtV000002GIbu.0
REMARK                            x       y       z     vdW  Elec       q    Type
REMARK                         _______ _______ _______ _____ _____    ______ ____
ROOT
ATOM      1  C   LIG    1        6.594   5.122   0.093  0.00  0.00    +0.530 C 
ATOM      2  N   LIG    1        6.349   6.340   0.616  0.00  0.00    -0.660 N 
ATOM      3  H   LIG    1        5.443   6.595   0.848  0.00  0.00    +0.410 HD
ATOM      4  O   LIG    1        7.709   4.839  -0.291  0.00  0.00    -0.500 OA
ENDROOT
BRANCH   2   5
ATOM      5  C   LIG    1        7.402   7.235   0.822  0.00  0.00    +0.160 A 
ATOM      6  C   LIG    1        8.695   6.763   0.995  0.00  0.00    +0.020 A 
ATOM      7  C   LIG    1        9.735   7.650   1.194  0.00  0.00    +0.040 A 
ATOM      8  C   LIG    1        9.493   9.012   1.234  0.00  0.00    +0.000 A 
ATOM      9  C   LIG    1        8.211   9.496   1.069  0.00  0.00    +0.040 A 
ATOM     10  C   LIG    1        7.155   8.613   0.862  0.00  0.00    -0.080 A 
BRANCH  10  11
ATOM     11  C   LIG    1        5.776   9.128   0.684  0.00  0.00    -0.050 A 
ATOM     12  C   LIG    1        5.004   8.700  -0.395  0.00  0.00    +0.000 A 
ATOM     13  C   LIG    1        3.719   9.180  -0.553  0.00  0.00    +0.010 A 
ATOM     14  C   LIG    1        3.202  10.090   0.350  0.00  0.00    +0.000 A 
ATOM     15  C   LIG    1        3.966  10.522   1.420  0.00  0.00    +0.010 A 
ATOM     16  C   LIG    1        5.250  10.045   1.591  0.00  0.00    +0.030 A 
ENDBRANCH  10  11
ENDBRANCH   2   5
BRANCH   1  17
ATOM     17  C   LIG    1        5.481   4.111  -0.015  0.00  0.00    +0.020 C 
ATOM     18  C   LIG    1        4.700   4.348  -1.310  0.00  0.00    +0.100 C 
BRANCH  17  19
ATOM     19  S   LIG    1        6.182   2.442  -0.031  0.00  0.00    +0.020 S 
BRANCH  19  23
ATOM     20  C   LIG    1        3.718  -2.168   0.001  0.00  0.00    +0.120 C 
ATOM     21  C   LIG    1        3.650  -0.662   0.004  0.00  0.00    -0.000 A 
ATOM     22  C   LIG    1        4.787   0.088  -0.013  0.00  0.00    -0.020 A 
ATOM     23  C   LIG    1        4.700   1.488  -0.009  0.00  0.00    +0.140 A 
ATOM     24  N   LIG    1        3.537   2.107   0.012  0.00  0.00    -0.490 NA
ATOM     25  C   LIG    1        2.387   1.422   0.030  0.00  0.00    +0.150 A 
ATOM     26  C   LIG    1        1.150   2.087   0.051  0.00  0.00    +0.030 A 
ATOM     27  C   LIG    1       -0.005   1.366   0.068  0.00  0.00    +0.040 A 
ATOM     28  C   LIG    1        0.018  -0.026   0.065  0.00  0.00    +0.010 A 
ATOM     29  C   LIG    1        1.199  -0.705   0.045  0.00  0.00    +0.040 A 
ATOM     30  C   LIG    1        2.408   0.006   0.026  0.00  0.00    -0.110 A 
ENDBRANCH  19  23
ENDBRANCH  17  19
ENDBRANCH   1  17
TORSDOF 5
