REMARK  Name = ZINCrH000004speE.0
REMARK                            x       y       z     vdW  Elec       q    Type
REMARK                         _______ _______ _______ _____ _____    ______ ____
ROOT
ATOM      1  C   LIG    1       -1.515  -1.149   0.357  0.00  0.00    +0.620 C 
ATOM      2  N   LIG    1       -1.187  -2.405  -0.008  0.00  0.00    -0.600 N 
ATOM      3  C   LIG    1        0.222  -2.790  -0.122  0.00  0.00    +0.300 C 
ATOM      4  O   LIG    1       -2.682  -0.849   0.518  0.00  0.00    -0.500 OA
ENDROOT
BRANCH   1   8
ATOM      5  C   LIG    1        2.952   1.008   0.841  0.00  0.00    +0.210 C 
ATOM      6  C   LIG    1        1.464   0.778   0.766  0.00  0.00    +0.220 A 
ATOM      7  N   LIG    1        0.870  -0.368   0.549  0.00  0.00    -0.470 NA
ATOM      8  C   LIG    1       -0.456  -0.138   0.561  0.00  0.00    +0.150 A 
ATOM      9  N   LIG    1       -0.644   1.145   0.785  0.00  0.00    -0.250 NA
ATOM     10  N   LIG    1        0.505   1.714   0.912  0.00  0.00    -0.250 N 
BRANCH  10  11
ATOM     11  C   LIG    1        0.721   3.077   1.159  0.00  0.00    +0.110 A 
ATOM     12  C   LIG    1       -0.084   3.756   2.064  0.00  0.00    +0.090 A 
ATOM     13  C   LIG    1        0.133   5.097   2.310  0.00  0.00    +0.010 A 
ATOM     14  C   LIG    1        1.147   5.768   1.646  0.00  0.00    +0.120 A 
ATOM     15  C   LIG    1        1.947   5.095   0.739  0.00  0.00    +0.010 A 
ATOM     16  F   LIG    1        1.355   7.082   1.884  0.00  0.00    -0.130 F 
ATOM     17  C   LIG    1        1.736   3.752   0.494  0.00  0.00    +0.070 A 
ENDBRANCH  10  11
ENDBRANCH   1   8
BRANCH   2  18
ATOM     18  C   LIG    1       -2.239  -3.384  -0.291  0.00  0.00    +0.420 C 
BRANCH  18  19
ATOM     19  C   LIG    1       -2.602  -3.323  -1.752  0.00  0.00    -0.040 A 
ATOM     20  C   LIG    1       -2.033  -4.044  -2.735  0.00  0.00    -0.040 A 
ATOM     21  C   LIG    1       -2.674  -3.674  -3.939  0.00  0.00    -0.060 A 
ATOM     22  C   LIG    1       -3.596  -2.749  -3.621  0.00  0.00    +0.030 A 
ATOM     23  O   LIG    1       -3.553  -2.544  -2.294  0.00  0.00    -0.160 OA
BRANCH  22  24
ATOM     24  C   LIG    1       -4.526  -2.062  -4.588  0.00  0.00    +0.040 C 
ATOM     25  C   LIG    1       -5.362  -0.896  -4.057  0.00  0.00    +0.040 C 
ATOM     26  C   LIG    1       -6.030  -2.237  -4.368  0.00  0.00    -0.030 C 
ATOM     27  C   LIG    1       -6.922  -2.311  -5.609  0.00  0.00    +0.070 C 
ENDBRANCH  22  24
ENDBRANCH  18  19
ENDBRANCH   2  18
TORSDOF 5
