REMARK  Name = ZINCrD00000F5LDj.0
REMARK                            x       y       z     vdW  Elec       q    Type
REMARK                         _______ _______ _______ _____ _____    ______ ____
ROOT
ATOM      1  N   LIG    1        3.494   1.443   0.161  0.00  0.00    -0.550 N 
ENDROOT
BRANCH   1   2
ATOM      2  C   LIG    1        2.193   0.983   0.260  0.00  0.00    +0.350 A 
ATOM      3  N   LIG    1        1.089   1.699   0.281  0.00  0.00    -0.580 NA
ATOM      4  C   LIG    1       -0.042   1.040   0.383  0.00  0.00    +0.310 A 
ATOM      5  N   LIG    1        0.015  -0.258   0.454  0.00  0.00    -0.490 NA
ATOM      6  S   LIG    1        1.666  -0.653   0.384  0.00  0.00    +0.170 S 
BRANCH   4   7
ATOM      7  C   LIG    1       -1.364   1.763   0.410  0.00  0.00    +0.100 C 
ATOM      8  C   LIG    1       -2.098   1.441   1.715  0.00  0.00    +0.010 C 
ATOM      9  C   LIG    1       -3.472   2.116   1.698  0.00  0.00    +0.210 C 
ATOM     10  O   LIG    1       -4.207   1.670   0.557  0.00  0.00    -0.380 OA
ATOM     11  C   LIG    1       -3.591   1.986  -0.694  0.00  0.00    +0.210 C 
ATOM     12  C   LIG    1       -2.222   1.306  -0.773  0.00  0.00    +0.010 C 
ENDBRANCH   4   7
ENDBRANCH   1   2
BRANCH   1  13
ATOM     13  C   LIG    1        3.756   2.881   0.064  0.00  0.00    +0.400 C 
BRANCH  13  15
ATOM     14  C   LIG    1        5.050   3.390   2.209  0.00  0.00    +0.270 A 
ATOM     15  C   LIG    1        3.926   3.455   1.447  0.00  0.00    -0.260 A 
ATOM     16  C   LIG    1        2.957   4.155   2.173  0.00  0.00    +0.270 A 
ATOM     17  N   LIG    1        3.471   4.490   3.328  0.00  0.00    -0.280 NA
ATOM     18  N   LIG    1        4.791   4.023   3.375  0.00  0.00    -0.380 N 
ATOM     19  C   LIG    1        5.725   4.191   4.490  0.00  0.00    +0.360 C 
BRANCH  14  21
ATOM     20  C   LIG    1        7.228   3.635   1.292  0.00  0.00    +0.250 C 
ATOM     21  O   LIG    1        6.220   2.797   1.862  0.00  0.00    -0.310 OA
ENDBRANCH  14  21
ENDBRANCH  13  15
ENDBRANCH   1  13
BRANCH   1  22
ATOM     22  C   LIG    1        4.609   0.493   0.153  0.00  0.00    +0.300 C 
BRANCH  22  23
ATOM     23  C   LIG    1        4.916   0.080  -1.287  0.00  0.00    +0.010 C 
BRANCH  23  24
ATOM     24  C   LIG    1        6.081  -0.913  -1.296  0.00  0.00    -0.020 C 
ATOM     25  C   LIG    1        7.463  -0.240  -1.310  0.00  0.00    +0.010 C 
ATOM     26  C   LIG    1        7.897  -1.336  -2.300  0.00  0.00    +0.010 C 
ATOM     27  C   LIG    1        6.416  -1.457  -2.694  0.00  0.00    +0.010 C 
ENDBRANCH  23  24
ENDBRANCH  22  23
ENDBRANCH   1  22
TORSDOF 8
