REMARK  Name = ZINCvU0000000FZN.0
REMARK                            x       y       z     vdW  Elec       q    Type
REMARK                         _______ _______ _______ _____ _____    ______ ____
ROOT
ATOM      1  N   LIG    1        1.259  -2.119  -0.109  0.00  0.00    -0.590 N 
ATOM      2  C   LIG    1        1.075  -2.706   1.090  0.00  0.00    +0.610 C 
ATOM      3  O   LIG    1        1.000  -3.918   1.169  0.00  0.00    -0.500 OA
ENDROOT
BRANCH   2   4
ATOM      4  C   LIG    1        0.965  -1.885   2.298  0.00  0.00    -0.080 A 
ATOM      5  C   LIG    1        0.873  -2.355   3.590  0.00  0.00    +0.060 A 
ATOM      6  C   LIG    1        0.789  -1.234   4.422  0.00  0.00    -0.030 A 
ATOM      7  C   LIG    1        0.825  -0.132   3.616  0.00  0.00    +0.050 A 
ATOM      8  O   LIG    1        0.931  -0.536   2.339  0.00  0.00    -0.150 OA
BRANCH   7   9
ATOM      9  C   LIG    1        0.758   1.271   4.072  0.00  0.00    -0.020 A 
ATOM     10  C   LIG    1       -0.249   1.676   4.951  0.00  0.00    +0.060 A 
ATOM     11  C   LIG    1       -0.301   2.987   5.378  0.00  0.00    +0.030 A 
ATOM     12  C   LIG    1        0.634   3.902   4.929  0.00  0.00    +0.050 A 
ATOM     13  C   LIG    1        1.631   3.510   4.054  0.00  0.00    +0.030 A 
ATOM     14  C   LIG    1        1.700   2.201   3.623  0.00  0.00    -0.020 A 
ATOM     15 CL   LIG    1        2.952   1.710   2.525  0.00  0.00    -0.060 Cl
ENDBRANCH   7   9
ENDBRANCH   2   4
BRANCH   1  16
ATOM     16  C   LIG    1        1.251  -2.929  -1.330  0.00  0.00    +0.290 C 
BRANCH  16  18
ATOM     17  C   LIG    1        2.677  -4.152  -2.977  0.00  0.00    +0.030 C 
ATOM     18  C   LIG    1        2.686  -3.306  -1.702  0.00  0.00    -0.010 C 
ENDBRANCH  16  18
ENDBRANCH   1  16
BRANCH   1  19
ATOM     19  C   LIG    1        1.468  -0.672  -0.192  0.00  0.00    +0.330 C 
BRANCH  19  20
ATOM     20  C   LIG    1        0.134   0.028  -0.214  0.00  0.00    +0.510 C 
ATOM     21  N   LIG    1        0.079   1.373  -0.288  0.00  0.00    -0.670 N 
ATOM     22  H   LIG    1        0.896   1.893  -0.261  0.00  0.00    +0.420 HD
ATOM     23  O   LIG    1       -0.891  -0.619  -0.166  0.00  0.00    -0.500 OA
BRANCH  21  24
ATOM     24  C   LIG    1       -1.159   2.018  -0.411  0.00  0.00    +0.140 A 
ATOM     25  C   LIG    1       -2.279   1.498   0.224  0.00  0.00    +0.100 A 
ATOM     26  C   LIG    1       -3.500   2.135   0.103  0.00  0.00    +0.050 A 
ATOM     27  C   LIG    1       -3.608   3.291  -0.651  0.00  0.00    +0.080 A 
ATOM     28  C   LIG    1       -2.492   3.814  -1.287  0.00  0.00    +0.050 A 
ATOM     29  F   LIG    1       -2.599   4.942  -2.021  0.00  0.00    -0.110 F 
ATOM     30  F   LIG    1       -4.803   3.911  -0.767  0.00  0.00    -0.120 F 
ATOM     31  C   LIG    1       -1.266   3.182  -1.163  0.00  0.00    +0.070 A 
ATOM     32  F   LIG    1       -0.177   3.693  -1.777  0.00  0.00    -0.120 F 
ENDBRANCH  21  24
ENDBRANCH  19  20
ENDBRANCH   1  19
TORSDOF 7
