REMARK  Name = ZINCrH000004nNKM.0
REMARK                            x       y       z     vdW  Elec       q    Type
REMARK                         _______ _______ _______ _____ _____    ______ ____
ROOT
ATOM      1  C   LIG    1        0.533   3.947   4.733  0.00  0.00    +0.560 C 
ATOM      2  N   LIG    1        0.055   4.268   5.952  0.00  0.00    -0.720 N 
ATOM      3  H   LIG    1       -0.853   4.030   6.195  0.00  0.00    +0.400 HD
ATOM      4  O   LIG    1        1.671   4.246   4.429  0.00  0.00    -0.520 OA
ENDROOT
BRANCH   1   7
ATOM      5  C   LIG    1       -0.642   2.232   1.606  0.00  0.00    -0.660 A 
ATOM      6  C   LIG    1        0.167   2.894   2.506  0.00  0.00    +0.220 A 
ATOM      7  C   LIG    1       -0.327   3.233   3.767  0.00  0.00    -0.150 A 
ATOM      8  C   LIG    1       -1.635   2.889   4.114  0.00  0.00    +0.130 A 
ATOM      9  C   LIG    1       -2.433   2.222   3.208  0.00  0.00    +0.020 A 
ATOM     10  C   LIG    1       -1.939   1.894   1.956  0.00  0.00    +0.070 A 
ATOM     11 CL   LIG    1       -2.949   1.054   0.821  0.00  0.00    -0.030 Cl
BRANCH   5  13
ATOM     12  C   LIG    1        0.002  -0.004   0.002  0.00  0.00    -0.240 C 
ATOM     13  S   LIG    1       -0.022   1.810   0.012  0.00  0.00    +2.490 S 
ATOM     14  O   LIG    1       -1.007   2.300  -0.888  0.00  0.00    -0.920 OA
ATOM     15  O   LIG    1        1.301   2.326   0.002  0.00  0.00    -0.930 OA
ENDBRANCH   5  13
ENDBRANCH   1   7
BRANCH   2  16
ATOM     16  C   LIG    1        0.908   4.977   6.910  0.00  0.00    +0.310 C 
BRANCH  16  17
ATOM     17  C   LIG    1        0.129   5.217   8.205  0.00  0.00    +0.200 C 
BRANCH  17  18
ATOM     18  O   LIG    1       -0.170   3.963   8.821  0.00  0.00    -0.310 OA
BRANCH  18  19
ATOM     19  C   LIG    1       -0.863   3.999   9.989  0.00  0.00    +0.130 A 
ATOM     20  C   LIG    1       -1.177   2.830  10.623  0.00  0.00    -0.020 A 
ATOM     21  C   LIG    1       -1.893   2.866  11.830  0.00  0.00    -0.010 A 
ATOM     22  C   LIG    1       -2.234   1.685  12.511  0.00  0.00    +0.010 A 
ATOM     23  C   LIG    1       -2.928   1.757  13.680  0.00  0.00    +0.020 A 
ATOM     24  C   LIG    1       -3.308   2.987  14.213  0.00  0.00    -0.010 A 
ATOM     25  C   LIG    1       -2.996   4.152  13.582  0.00  0.00    +0.040 A 
ATOM     26  C   LIG    1       -2.279   4.118  12.374  0.00  0.00    -0.080 A 
ATOM     27  C   LIG    1       -1.939   5.301  11.694  0.00  0.00    +0.070 A 
ATOM     28  C   LIG    1       -1.240   5.232  10.530  0.00  0.00    -0.060 A 
ENDBRANCH  18  19
ENDBRANCH  17  18
ENDBRANCH  16  17
ENDBRANCH   2  16
TORSDOF 6
