REMARK  Name = ZINCvU00000006HR.0
REMARK                            x       y       z     vdW  Elec       q    Type
REMARK                         _______ _______ _______ _____ _____    ______ ____
ROOT
ATOM      1  C   LIG    1       -8.855   6.105   2.404  0.00  0.00    +0.110 A 
ATOM      2  C   LIG    1       -7.919   5.139   2.727  0.00  0.00    -0.030 A 
ATOM      3  C   LIG    1       -7.392   4.316   1.743  0.00  0.00    -0.070 A 
ATOM      4  C   LIG    1       -7.803   4.456   0.435  0.00  0.00    -0.120 A 
ATOM      5  C   LIG    1       -7.266   3.578  -0.665  0.00  0.00    +0.320 C 
ATOM      6  N   LIG    1       -6.027   2.920  -0.239  0.00  0.00    -0.490 NA
ATOM      7  C   LIG    1       -6.233   2.229   1.044  0.00  0.00    +0.240 C 
ATOM      8  C   LIG    1       -8.741   5.425   0.105  0.00  0.00    -0.020 A 
ATOM      9  C   LIG    1       -6.371   3.281   2.145  0.00  0.00    +0.050 C 
ATOM     10  C   LIG    1       -9.269   6.249   1.083  0.00  0.00    +0.100 A 
ENDROOT
BRANCH   5  11
ATOM     11  C   LIG    1       -6.987   4.420  -1.883  0.00  0.00    -0.190 A 
ATOM     12  C   LIG    1       -6.986   3.977  -3.141  0.00  0.00    +0.040 A 
ATOM     13  C   LIG    1       -6.703   4.937  -4.098  0.00  0.00    +0.000 A 
ATOM     14  C   LIG    1       -6.475   6.160  -3.617  0.00  0.00    -0.050 A 
ATOM     15  S   LIG    1       -6.622   6.141  -1.864  0.00  0.00    +0.100 S 
ENDBRANCH   5  11
BRANCH   1  17
ATOM     16  C   LIG    1       -8.897   6.703   4.705  0.00  0.00    +0.240 C 
ATOM     17  O   LIG    1       -9.369   6.909   3.372  0.00  0.00    -0.300 OA
ENDBRANCH   1  17
BRANCH  10  18
ATOM     18  O   LIG    1      -10.188   7.195   0.754  0.00  0.00    -0.300 OA
ATOM     19  C   LIG    1      -10.564   7.285  -0.622  0.00  0.00    +0.230 C 
ENDBRANCH  10  18
BRANCH   6  20
ATOM     20  C   LIG    1       -4.923   3.885  -0.146  0.00  0.00    +0.210 C 
BRANCH  20  21
ATOM     21  C   LIG    1       -3.615   3.145  -0.048  0.00  0.00    +0.520 C 
ATOM     22  N   LIG    1       -2.458   3.830   0.048  0.00  0.00    -0.670 N 
ATOM     23  H   LIG    1       -2.472   4.796   0.134  0.00  0.00    +0.410 HD
ATOM     24  O   LIG    1       -3.602   1.932  -0.055  0.00  0.00    -0.490 OA
BRANCH  22  25
ATOM     25  C   LIG    1       -1.236   3.147   0.022  0.00  0.00    +0.160 A 
ATOM     26  C   LIG    1       -1.145   1.906  -0.594  0.00  0.00    +0.040 A 
ATOM     27  C   LIG    1        0.060   1.233  -0.614  0.00  0.00    +0.050 A 
ATOM     28  C   LIG    1        1.180   1.798  -0.029  0.00  0.00    -0.050 A 
ATOM     29  C   LIG    1        1.093   3.037   0.582  0.00  0.00    +0.050 A 
ATOM     30 CL   LIG    1        2.695   0.952  -0.061  0.00  0.00    -0.070 Cl
ATOM     31  C   LIG    1       -0.111   3.712   0.609  0.00  0.00    -0.110 A 
ATOM     32  C   LIG    1       -0.204   5.062   1.273  0.00  0.00    +0.100 C 
ENDBRANCH  22  25
ENDBRANCH  20  21
ENDBRANCH   6  20
TORSDOF 6
