REMARK  Name = ZINCrg00000IZXAU.0
REMARK                            x       y       z     vdW  Elec       q    Type
REMARK                         _______ _______ _______ _____ _____    ______ ____
ROOT
ATOM      1  N   LIG    1       -1.838   1.191  -3.196  0.00  0.00    -0.660 N 
ATOM      2  H   LIG    1       -2.187   2.096  -3.163  0.00  0.00    +0.410 HD
ATOM      3  C   LIG    1       -0.913   0.793  -2.301  0.00  0.00    +0.720 C 
ATOM      4  N   LIG    1       -0.562   1.608  -1.287  0.00  0.00    -0.620 N 
ATOM      5  C   LIG    1        0.364   1.154  -0.237  0.00  0.00    +0.280 C 
ATOM      6  C   LIG    1       -0.268   1.451   1.128  0.00  0.00    +0.230 C 
ATOM      7  O   LIG    1       -0.661   2.825   1.176  0.00  0.00    -0.360 OA
ATOM      8  C   LIG    1       -1.656   3.184   0.215  0.00  0.00    +0.230 C 
ATOM      9  C   LIG    1       -1.094   2.977  -1.196  0.00  0.00    +0.280 C 
ATOM     10  O   LIG    1       -0.394  -0.302  -2.409  0.00  0.00    -0.560 OA
ENDROOT
BRANCH   1  13
ATOM     11  C   LIG    1       -2.547  -1.906  -5.034  0.00  0.00    +0.450 A 
ATOM     12  C   LIG    1       -2.067  -1.060  -4.037  0.00  0.00    -0.130 A 
ATOM     13  C   LIG    1       -2.293   0.305  -4.167  0.00  0.00    +0.440 A 
ATOM     14  N   LIG    1       -2.947   0.753  -5.237  0.00  0.00    -0.590 NA
ATOM     15  C   LIG    1       -3.382  -0.078  -6.161  0.00  0.00    +0.560 A 
ATOM     16  N   LIG    1       -3.192  -1.379  -6.073  0.00  0.00    -0.590 NA
BRANCH  11  18
ATOM     17  C   LIG    1       -1.738  -3.855  -3.750  0.00  0.00    +0.310 C 
ATOM     18  N   LIG    1       -2.351  -3.276  -4.948  0.00  0.00    -0.600 N 
ATOM     19  C   LIG    1       -2.758  -4.144  -6.056  0.00  0.00    +0.290 C 
ENDBRANCH  11  18
ENDBRANCH   1  13
BRANCH   8  20
ATOM     20  C   LIG    1       -2.034   4.631   0.399  0.00  0.00    +0.220 A 
ATOM     21  C   LIG    1       -3.316   4.977   0.793  0.00  0.00    -0.130 A 
ATOM     22  C   LIG    1       -3.622   6.320   0.951  0.00  0.00    +0.370 A 
ATOM     23  N   LIG    1       -2.686   7.226   0.721  0.00  0.00    -0.560 NA
ATOM     24  C   LIG    1       -1.469   6.862   0.345  0.00  0.00    +0.560 A 
ATOM     25  N   LIG    1       -1.143   5.587   0.190  0.00  0.00    -0.550 NA
BRANCH  24  26
ATOM     26  N   LIG    1       -0.514   7.836   0.113  0.00  0.00    -0.590 N 
ATOM     27  C   LIG    1        0.838   7.453  -0.303  0.00  0.00    +0.300 C 
ATOM     28  C   LIG    1       -0.854   9.251   0.284  0.00  0.00    +0.300 C 
ENDBRANCH  24  26
ENDBRANCH   8  20
TORSDOF 4
