REMARK  Name = ZINCnE000005qTkc.1
REMARK                            x       y       z     vdW  Elec       q    Type
REMARK                         _______ _______ _______ _____ _____    ______ ____
ROOT
ATOM      1  N   LIG    1       -5.338  -1.073   1.297  0.00  0.00    -0.710 NA
ATOM      2  C   LIG    1       -6.602  -0.605   1.311  0.00  0.00    +0.660 C 
ATOM      3  N   LIG    1       -7.639  -1.465   1.316  0.00  0.00    -0.620 N 
ATOM      4  C   LIG    1       -7.408  -2.916   1.300  0.00  0.00    +0.270 C 
ATOM      5  C   LIG    1       -8.169  -3.545   2.477  0.00  0.00    +0.010 C 
ATOM      6  C   LIG    1       -9.644  -3.143   2.396  0.00  0.00    +0.060 C 
ATOM      7  C   LIG    1       -9.766  -1.621   2.502  0.00  0.00    +0.020 C 
ATOM      8  C   LIG    1       -9.022  -0.970   1.331  0.00  0.00    +0.270 C 
ATOM      9  O   LIG    1       -6.806   0.594   1.319  0.00  0.00    -0.620 OA
ENDROOT
BRANCH   6  10
ATOM     10  C   LIG    1      -10.403  -3.787   3.528  0.00  0.00    +0.100 A 
ATOM     11  C   LIG    1      -10.519  -3.305   4.787  0.00  0.00    -0.120 A 
ATOM     12  C   LIG    1      -11.304  -4.201   5.520  0.00  0.00    +0.230 A 
ATOM     13  N   LIG    1      -11.641  -5.189   4.731  0.00  0.00    -0.310 NA
ATOM     14  N   LIG    1      -11.084  -4.950   3.468  0.00  0.00    -0.380 N 
ATOM     15  C   LIG    1      -11.217  -5.812   2.291  0.00  0.00    +0.350 C 
ENDBRANCH   6  10
BRANCH   1  19
ATOM     16  C   LIG    1       -2.143   1.058   1.278  0.00  0.00    -0.330 A 
ATOM     17  C   LIG    1       -3.251   1.799   1.292  0.00  0.00    +0.230 A 
ATOM     18  N   LIG    1       -4.375   1.107   1.299  0.00  0.00    -0.570 NA
ATOM     19  C   LIG    1       -4.268  -0.185   1.291  0.00  0.00    +0.360 A 
ATOM     20  S   LIG    1       -2.620  -0.638   1.265  0.00  0.00    +0.010 S 
BRANCH  16  22
ATOM     21  C   LIG    1       -0.013   1.086   0.008  0.00  0.00    +0.010 C 
ATOM     22  C   LIG    1       -0.729   1.579   1.267  0.00  0.00    +0.080 C 
ATOM     23  C   LIG    1        0.011   1.072   2.506  0.00  0.00    +0.010 C 
ENDBRANCH  16  22
ENDBRANCH   1  19
TORSDOF 3
