REMARK  Name = ZINCrD000000fQHD.0
REMARK                            x       y       z     vdW  Elec       q    Type
REMARK                         _______ _______ _______ _____ _____    ______ ____
ROOT
ATOM      1  N   LIG    1        3.123   0.681  -1.605  0.00  0.00    -1.110 NA
ATOM      2  H   LIG    1        3.166  -0.217  -1.967  0.00  0.00    +0.420 HD
ENDROOT
BRANCH   1   3
ATOM      3  S   LIG    1        2.711   0.915  -0.018  0.00  0.00    +2.690 S 
ATOM      4  O   LIG    1        2.450  -0.373   0.523  0.00  0.00    -0.950 OA
ATOM      5  O   LIG    1        3.681   1.803   0.522  0.00  0.00    -0.950 OA
BRANCH   3   9
ATOM      6  C   LIG    1       -1.234   3.146   0.029  0.00  0.00    -0.110 A 
ATOM      7  C   LIG    1       -1.217   1.747   0.017  0.00  0.00    +0.050 A 
ATOM      8  C   LIG    1       -0.013   1.076   0.008  0.00  0.00    +0.120 A 
ATOM      9  C   LIG    1        1.178   1.782   0.000  0.00  0.00    -0.650 A 
ATOM     10  C   LIG    1        1.169   3.166   0.007  0.00  0.00    +0.120 A 
ATOM     11  C   LIG    1       -0.027   3.852   0.022  0.00  0.00    +0.060 A 
BRANCH   6  13
ATOM     12  C   LIG    1       -3.813   3.104   0.053  0.00  0.00    +0.090 C 
ATOM     13  C   LIG    1       -2.515   3.870   0.044  0.00  0.00    +0.390 C 
ATOM     14  O   LIG    1       -2.526   5.082   0.050  0.00  0.00    -0.440 OA
ENDBRANCH   6  13
ENDBRANCH   3   9
ENDBRANCH   1   3
BRANCH   1  15
ATOM     15  C   LIG    1        3.425   1.832  -2.460  0.00  0.00    +0.300 C 
BRANCH  15  16
ATOM     16  C   LIG    1        4.510   1.460  -3.438  0.00  0.00    -0.080 A 
ATOM     17  C   LIG    1        4.510   0.210  -4.026  0.00  0.00    +0.030 A 
ATOM     18  C   LIG    1        5.501  -0.133  -4.926  0.00  0.00    +0.030 A 
ATOM     19  C   LIG    1        6.505   0.773  -5.233  0.00  0.00    +0.050 A 
ATOM     20  O   LIG    1        7.479   0.418  -6.114  0.00  0.00    -0.310 OA
ATOM     21  C   LIG    1        8.251   1.482  -6.682  0.00  0.00    +0.220 C 
ATOM     22  C   LIG    1        8.665   2.432  -5.551  0.00  0.00    +0.220 C 
ATOM     23  O   LIG    1        7.477   2.938  -4.932  0.00  0.00    -0.310 OA
ATOM     24  C   LIG    1        6.506   2.030  -4.639  0.00  0.00    +0.050 A 
ATOM     25  C   LIG    1        5.506   2.369  -3.740  0.00  0.00    +0.040 A 
ENDBRANCH  15  16
BRANCH  15  26
ATOM     26  C   LIG    1        2.165   2.240  -3.227  0.00  0.00    -0.030 C 
ATOM     27  C   LIG    1        1.694   1.070  -4.093  0.00  0.00    +0.040 C 
ATOM     28  C   LIG    1        2.479   3.441  -4.121  0.00  0.00    +0.030 C 
ENDBRANCH  15  26
ENDBRANCH   1  15
TORSDOF 6
