REMARK  Name = ZINCrD000000AjpD.0
REMARK                            x       y       z     vdW  Elec       q    Type
REMARK                         _______ _______ _______ _____ _____    ______ ____
ROOT
ATOM      1  O   LIG    1       -1.204   2.837   0.023  0.00  0.00    -0.540 OA
ATOM      2  C   LIG    1       -1.187   1.624   0.017  0.00  0.00    +0.510 C 
ATOM      3  N   LIG    1       -0.011   0.966   0.007  0.00  0.00    -0.720 N 
ATOM      4  H   LIG    1        0.002  -0.004   0.002  0.00  0.00    +0.410 HD
ENDROOT
BRANCH   3   5
ATOM      5  C   LIG    1        1.248   1.716  -0.001  0.00  0.00    +0.300 C 
ATOM      6  C   LIG    1        2.327   0.859   0.637  0.00  0.00    +0.060 C 
ATOM      7  C   LIG    1        3.643   1.651   0.663  0.00  0.00    +0.110 C 
ATOM      8  S   LIG    1        4.264   1.719  -1.043  0.00  0.00    -0.090 S 
ATOM      9  C   LIG    1        2.824   2.165  -1.960  0.00  0.00    -0.110 A 
ATOM     10  C   LIG    1        2.998   2.573  -3.285  0.00  0.00    +0.110 A 
ATOM     11  C   LIG    1        1.917   2.918  -4.061  0.00  0.00    +0.010 A 
ATOM     12  C   LIG    1        0.646   2.865  -3.518  0.00  0.00    +0.040 A 
ATOM     13  C   LIG    1        0.471   2.470  -2.210  0.00  0.00    +0.030 A 
ATOM     14  F   LIG    1        4.240   2.622  -3.813  0.00  0.00    -0.130 F 
ATOM     15  C   LIG    1        1.558   2.117  -1.413  0.00  0.00    -0.080 A 
ENDBRANCH   3   5
BRANCH   2  16
ATOM     16  C   LIG    1       -2.482   0.853   0.018  0.00  0.00    +0.100 C 
BRANCH  16  17
ATOM     17  C   LIG    1       -3.658   1.831   0.029  0.00  0.00    +0.150 C 
BRANCH  17  18
ATOM     18  C   LIG    1       -4.953   1.060   0.031  0.00  0.00    +0.450 A 
ATOM     19  N   LIG    1       -4.896  -0.243   0.019  0.00  0.00    -0.600 NA
ATOM     20  C   LIG    1       -6.009  -1.001   0.024  0.00  0.00    +0.530 A 
ATOM     21  C   LIG    1       -7.314  -0.316   0.034  0.00  0.00    -0.210 A 
ATOM     22  C   LIG    1       -8.518  -1.018   0.035  0.00  0.00    +0.110 A 
ATOM     23  C   LIG    1       -9.707  -0.322   0.045  0.00  0.00    -0.010 A 
ATOM     24  C   LIG    1       -9.711   1.066   0.052  0.00  0.00    +0.080 A 
ATOM     25  C   LIG    1       -8.527   1.773   0.051  0.00  0.00    -0.020 A 
ATOM     26  C   LIG    1       -7.319   1.091   0.042  0.00  0.00    +0.170 A 
ATOM     27  O   LIG    1       -5.940  -2.218   0.017  0.00  0.00    -0.480 OA
ATOM     28  N   LIG    1       -6.106   1.751   0.041  0.00  0.00    -0.620 N 
ATOM     29  H   LIG    1       -6.086   2.721   0.046  0.00  0.00    +0.420 HD
ENDBRANCH  17  18
ENDBRANCH  16  17
ENDBRANCH   2  16
TORSDOF 4
