REMARK  Name = ZINCqH00000505GL.0
REMARK                            x       y       z     vdW  Elec       q    Type
REMARK                         _______ _______ _______ _____ _____    ______ ____
ROOT
ATOM      1  N   LIG    1        1.504   0.553  -6.257  0.00  0.00    -0.650 N 
ATOM      2  H   LIG    1        1.351  -0.323  -6.644  0.00  0.00    +0.430 HD
ENDROOT
BRANCH   1   6
ATOM      3  C   LIG    1        4.293   1.814 -10.114  0.00  0.00    +0.150 C 
ATOM      4  C   LIG    1        3.684   2.097  -8.766  0.00  0.00    +0.210 A 
ATOM      5  C   LIG    1        2.870   1.160  -8.157  0.00  0.00    -0.130 A 
ATOM      6  C   LIG    1        2.326   1.463  -6.906  0.00  0.00    +0.440 A 
ATOM      7  N   LIG    1        2.603   2.636  -6.349  0.00  0.00    -0.560 NA
ATOM      8  C   LIG    1        3.392   3.506  -6.964  0.00  0.00    +0.400 A 
ATOM      9  N   LIG    1        3.922   3.245  -8.151  0.00  0.00    -0.540 NA
BRANCH   8  10
ATOM     10  C   LIG    1        3.686   4.805  -6.311  0.00  0.00    -0.000 A 
ATOM     11  C   LIG    1        3.142   5.120  -5.062  0.00  0.00    +0.020 A 
ATOM     12  C   LIG    1        3.444   6.338  -4.488  0.00  0.00    +0.250 A 
ATOM     13  N   LIG    1        4.226   7.202  -5.105  0.00  0.00    -0.470 NA
ATOM     14  C   LIG    1        4.755   6.947  -6.286  0.00  0.00    +0.250 A 
ATOM     15  C   LIG    1        4.508   5.750  -6.929  0.00  0.00    +0.030 A 
ENDBRANCH   8  10
ENDBRANCH   1   6
BRANCH   1  16
ATOM     16  C   LIG    1        0.897   0.899  -5.047  0.00  0.00    +0.180 A 
ATOM     17  C   LIG    1        1.576   1.691  -4.129  0.00  0.00    +0.040 A 
ATOM     18  C   LIG    1        0.972   2.036  -2.936  0.00  0.00    +0.070 A 
ATOM     19  C   LIG    1       -0.303   1.586  -2.649  0.00  0.00    -0.100 A 
ATOM     20  C   LIG    1       -0.983   0.796  -3.561  0.00  0.00    +0.000 A 
ATOM     21 CL   LIG    1       -2.587   0.238  -3.199  0.00  0.00    -0.050 Cl
ATOM     22  C   LIG    1       -0.386   0.452  -4.759  0.00  0.00    +0.000 A 
BRANCH  19  23
ATOM     23  C   LIG    1       -0.958   1.960  -1.344  0.00  0.00    -0.280 C 
BRANCH  23  24
ATOM     24  S   LIG    1       -0.568   0.708  -0.091  0.00  0.00    +2.410 S 
ATOM     25  O   LIG    1        0.829   0.743   0.165  0.00  0.00    -0.930 OA
ATOM     26  O   LIG    1       -1.172  -0.520  -0.475  0.00  0.00    -0.920 OA
ATOM     27  C   LIG    1       -1.439   1.350   1.364  0.00  0.00    -0.270 C 
ENDBRANCH  23  24
ENDBRANCH  19  23
ENDBRANCH   1  16
TORSDOF 5
