REMARK  Name = ZINCvU0000000CJQ.0
REMARK                            x       y       z     vdW  Elec       q    Type
REMARK                         _______ _______ _______ _____ _____    ______ ____
ROOT
ATOM      1  O   LIG    1       -0.910   6.698  -1.734  0.00  0.00    -0.510 OA
ATOM      2  C   LIG    1       -1.801   6.761  -0.914  0.00  0.00    +0.540 C 
ATOM      3  N   LIG    1       -2.505   7.901  -0.770  0.00  0.00    -0.720 N 
ATOM      4  H   LIG    1       -3.217   7.952  -0.113  0.00  0.00    +0.410 HD
ENDROOT
BRANCH   3   5
ATOM      5  C   LIG    1       -2.194   9.064  -1.605  0.00  0.00    +0.390 C 
BRANCH   5   6
ATOM      6  C   LIG    1       -2.629  10.321  -0.897  0.00  0.00    -0.110 A 
ATOM      7  C   LIG    1       -3.824  10.345  -0.201  0.00  0.00    +0.050 A 
ATOM      8  C   LIG    1       -4.221  11.495   0.452  0.00  0.00    -0.010 A 
ATOM      9  C   LIG    1       -3.427  12.629   0.402  0.00  0.00    +0.110 A 
ATOM     10  C   LIG    1       -2.233  12.606  -0.299  0.00  0.00    -0.010 A 
ATOM     11  F   LIG    1       -3.817  13.756   1.037  0.00  0.00    -0.140 F 
ATOM     12  C   LIG    1       -1.836  11.452  -0.948  0.00  0.00    +0.070 A 
ENDBRANCH   5   6
BRANCH   5  13
ATOM     13  C   LIG    1       -2.925   8.949  -2.918  0.00  0.00    -0.190 A 
ATOM     14  C   LIG    1       -2.420   9.273  -4.109  0.00  0.00    +0.020 A 
ATOM     15  C   LIG    1       -3.279   9.082  -5.178  0.00  0.00    +0.010 A 
ATOM     16  C   LIG    1       -4.481   8.602  -4.854  0.00  0.00    -0.040 A 
ATOM     17  S   LIG    1       -4.570   8.359  -3.115  0.00  0.00    +0.110 S 
ENDBRANCH   5  13
ENDBRANCH   3   5
BRANCH   2  18
ATOM     18  C   LIG    1       -2.120   5.565  -0.055  0.00  0.00    +0.090 C 
BRANCH  18  19
ATOM     19  S   LIG    1       -1.010   4.201  -0.483  0.00  0.00    +0.100 S 
BRANCH  19  20
ATOM     20  C   LIG    1       -1.589   2.971   0.639  0.00  0.00    +0.140 A 
ATOM     21  N   LIG    1       -2.567   3.106   1.505  0.00  0.00    -0.280 NA
ATOM     22  N   LIG    1       -2.724   2.017   2.169  0.00  0.00    -0.260 NA
ATOM     23  C   LIG    1       -1.857   1.115   1.763  0.00  0.00    +0.260 A 
ATOM     24  N   LIG    1       -1.105   1.699   0.767  0.00  0.00    -0.430 N 
BRANCH  23  25
ATOM     25  C   LIG    1       -1.716  -0.257   2.276  0.00  0.00    -0.130 A 
ATOM     26  C   LIG    1       -2.253  -0.719   3.426  0.00  0.00    +0.080 A 
ATOM     27  C   LIG    1       -1.983  -2.044   3.696  0.00  0.00    +0.020 A 
ATOM     28  C   LIG    1       -1.234  -2.667   2.780  0.00  0.00    -0.030 A 
ATOM     29  S   LIG    1       -0.831  -1.553   1.482  0.00  0.00    +0.120 S 
ENDBRANCH  23  25
BRANCH  24  30
ATOM     30  C   LIG    1       -0.013   1.086   0.008  0.00  0.00    +0.190 C 
ATOM     31  C   LIG    1        0.415   1.770  -1.292  0.00  0.00    +0.080 C 
ATOM     32  C   LIG    1        1.315   1.844  -0.056  0.00  0.00    +0.060 C 
ENDBRANCH  24  30
ENDBRANCH  19  20
ENDBRANCH  18  19
ENDBRANCH   2  18
TORSDOF 8
