REMARK  Name = ZINCpe00000gNarE.0
REMARK                            x       y       z     vdW  Elec       q    Type
REMARK                         _______ _______ _______ _____ _____    ______ ____
ROOT
ATOM      1  N   LIG    1        2.733   3.089   0.145  0.00  0.00    -0.600 N 
ATOM      2  C   LIG    1        2.596   4.541  -0.040  0.00  0.00    +0.300 C 
ATOM      3  C   LIG    1        3.405   5.247   1.060  0.00  0.00    +0.180 C 
ATOM      4  N   LIG    1        4.787   4.746   1.041  0.00  0.00    -0.510 NA
ATOM      5  C   LIG    1        4.838   3.312   1.355  0.00  0.00    +0.170 C 
ATOM      6  C   LIG    1        4.087   2.529   0.273  0.00  0.00    +0.300 C 
ENDROOT
BRANCH   1  11
ATOM      7  O   LIG    1       -1.571  -0.106   0.319  0.00  0.00    -0.550 OA
ATOM      8  C   LIG    1       -0.599   0.632   0.282  0.00  0.00    +0.490 A 
ATOM      9  C   LIG    1       -0.773   2.030   0.227  0.00  0.00    +0.030 A 
ATOM     10  C   LIG    1        0.322   2.835   0.181  0.00  0.00    +0.040 A 
ATOM     11  C   LIG    1        1.610   2.264   0.193  0.00  0.00    +0.370 A 
ATOM     12  N   LIG    1        1.760   0.963   0.248  0.00  0.00    -0.310 NA
ATOM     13  N   LIG    1        0.646   0.117   0.296  0.00  0.00    -0.500 N 
ATOM     14  H   LIG    1        0.771  -0.844   0.337  0.00  0.00    +0.440 HD
ENDBRANCH   1  11
BRANCH   4  15
ATOM     15  C   LIG    1        5.638   5.517   1.958  0.00  0.00    +0.270 C 
BRANCH  15  16
ATOM     16  C   LIG    1        5.092   5.412   3.358  0.00  0.00    +0.480 C 
ATOM     17  N   LIG    1        5.642   6.137   4.352  0.00  0.00    -0.670 N 
ATOM     18  H   LIG    1        6.436   6.668   4.183  0.00  0.00    +0.420 HD
ATOM     19  O   LIG    1        4.157   4.675   3.591  0.00  0.00    -0.510 OA
BRANCH  17  20
ATOM     20  C   LIG    1        5.069   6.122   5.630  0.00  0.00    +0.170 A 
ATOM     21  C   LIG    1        3.694   6.001   5.773  0.00  0.00    +0.050 A 
ATOM     22  C   LIG    1        3.129   5.982   7.034  0.00  0.00    +0.050 A 
ATOM     23  C   LIG    1        3.933   6.094   8.155  0.00  0.00    +0.050 A 
ATOM     24  C   LIG    1        5.307   6.220   8.015  0.00  0.00    +0.090 A 
ATOM     25  F   LIG    1        6.090   6.329   9.111  0.00  0.00    -0.120 F 
ATOM     26  F   LIG    1        3.378   6.080   9.387  0.00  0.00    -0.130 F 
ATOM     27  C   LIG    1        5.876   6.234   6.755  0.00  0.00    -0.010 A 
ENDBRANCH  17  20
ENDBRANCH  15  16
ENDBRANCH   4  15
TORSDOF 4
