REMARK  Name = ZINCvU0000000EcZ.0
REMARK                            x       y       z     vdW  Elec       q    Type
REMARK                         _______ _______ _______ _____ _____    ______ ____
ROOT
ATOM      1  C   LIG    1       -6.637   5.999  -6.908  0.00  0.00    +0.180 C 
ATOM      2  C   LIG    1       -6.410   4.639  -6.300  0.00  0.00    +0.140 A 
ATOM      3  N   LIG    1       -6.813   3.509  -6.797  0.00  0.00    -0.260 NA
ATOM      4  N   LIG    1       -6.419   2.464  -5.956  0.00  0.00    -0.300 N 
ATOM      5  C   LIG    1       -5.741   3.004  -4.896  0.00  0.00    +0.020 A 
ATOM      6  S   LIG    1       -4.904   2.584  -3.407  0.00  0.00    +0.220 S 
ATOM      7  C   LIG    1       -4.546   4.271  -3.079  0.00  0.00    -0.270 A 
ATOM      8  C   LIG    1       -5.048   5.053  -4.047  0.00  0.00    +0.180 A 
ATOM      9  C   LIG    1       -5.714   4.377  -5.077  0.00  0.00    -0.210 A 
ENDROOT
BRANCH   7  10
ATOM     10  C   LIG    1       -3.808   4.758  -1.910  0.00  0.00    +0.600 C 
ATOM     11  N   LIG    1       -2.664   4.153  -1.535  0.00  0.00    -0.610 N 
ATOM     12  C   LIG    1       -1.873   4.677  -0.413  0.00  0.00    +0.290 C 
ATOM     13  C   LIG    1       -0.432   4.897  -0.887  0.00  0.00    +0.050 C 
ATOM     14  C   LIG    1        0.108   3.596  -1.484  0.00  0.00    +0.180 C 
ATOM     15  C   LIG    1       -0.741   3.195  -2.692  0.00  0.00    +0.030 C 
ATOM     16  F   LIG    1        0.055   2.583  -0.520  0.00  0.00    -0.190 F 
ATOM     17  C   LIG    1       -2.185   2.956  -2.239  0.00  0.00    +0.280 C 
ATOM     18  O   LIG    1       -4.229   5.709  -1.277  0.00  0.00    -0.520 OA
BRANCH  14  19
ATOM     19  C   LIG    1        1.536   3.799  -1.920  0.00  0.00    +0.090 A 
ATOM     20  C   LIG    1        2.232   2.751  -2.492  0.00  0.00    -0.010 A 
ATOM     21  C   LIG    1        3.543   2.950  -2.895  0.00  0.00    +0.070 A 
ATOM     22  C   LIG    1        4.109   4.202  -2.707  0.00  0.00    -0.020 A 
ATOM     23  C   LIG    1        3.352   5.202  -2.128  0.00  0.00    +0.260 A 
ATOM     24  N   LIG    1        2.107   4.977  -1.756  0.00  0.00    -0.470 NA
ENDBRANCH  14  19
ENDBRANCH   7  10
BRANCH   4  25
ATOM     25  C   LIG    1       -6.675   1.101  -6.162  0.00  0.00    +0.140 A 
ATOM     26  C   LIG    1       -5.735   0.152  -5.781  0.00  0.00    +0.040 A 
ATOM     27  C   LIG    1       -5.990  -1.190  -5.981  0.00  0.00    +0.020 A 
ATOM     28  C   LIG    1       -7.178  -1.590  -6.570  0.00  0.00    +0.100 A 
ATOM     29  C   LIG    1       -8.115  -0.645  -6.954  0.00  0.00    +0.020 A 
ATOM     30  F   LIG    1       -7.424  -2.903  -6.769  0.00  0.00    -0.130 F 
ATOM     31  C   LIG    1       -7.865   0.698  -6.752  0.00  0.00    +0.070 A 
ENDBRANCH   4  25
TORSDOF 3
