REMARK  Name = ZINCqH0000008Lfr.0
REMARK                            x       y       z     vdW  Elec       q    Type
REMARK                         _______ _______ _______ _____ _____    ______ ____
ROOT
ATOM      1  N   LIG    1        2.273   5.346  -0.093  0.00  0.00    -0.590 N 
ATOM      2  C   LIG    1        2.370   4.040   0.223  0.00  0.00    +0.570 C 
ATOM      3  O   LIG    1        3.459   3.504   0.265  0.00  0.00    -0.490 OA
ATOM      4  C   LIG    1        0.967   6.009  -0.077  0.00  0.00    +0.300 C 
ENDROOT
BRANCH   2   5
ATOM      5  C   LIG    1        1.146   3.255   0.519  0.00  0.00    +0.170 A 
ATOM      6  N   LIG    1       -0.040   3.855   0.592  0.00  0.00    -0.480 NA
ATOM      7  C   LIG    1       -1.133   3.159   0.855  0.00  0.00    +0.480 A 
ATOM      8  N   LIG    1       -1.096   1.848   1.050  0.00  0.00    -0.520 NA
ATOM      9  C   LIG    1        0.046   1.185   0.999  0.00  0.00    +0.380 A 
ATOM     10  C   LIG    1        1.220   1.876   0.725  0.00  0.00    -0.130 A 
ATOM     11 CL   LIG    1        2.741   1.045   0.640  0.00  0.00    +0.000 Cl
BRANCH   7  12
ATOM     12  N   LIG    1       -2.351   3.816   0.923  0.00  0.00    -0.440 N 
ATOM     13  C   LIG    1       -2.697   4.432  -0.383  0.00  0.00    +0.210 C 
ATOM     14  C   LIG    1       -4.230   4.633  -0.285  0.00  0.00    +0.040 C 
ATOM     15  C   LIG    1       -4.696   3.372   0.478  0.00  0.00    +0.020 C 
ATOM     16  C   LIG    1       -3.447   2.870   1.226  0.00  0.00    +0.220 C 
ENDBRANCH   7  12
ENDBRANCH   2   5
BRANCH   1  17
ATOM     17  C   LIG    1        3.474   6.104  -0.453  0.00  0.00    +0.410 C 
BRANCH  17  21
ATOM     18  C   LIG    1        4.393   5.318  -3.898  0.00  0.00    +0.030 A 
ATOM     19  C   LIG    1        3.653   6.419  -4.120  0.00  0.00    -0.060 A 
ATOM     20  C   LIG    1        3.203   6.871  -2.859  0.00  0.00    -0.040 A 
ATOM     21  C   LIG    1        3.694   6.019  -1.941  0.00  0.00    -0.040 A 
ATOM     22  O   LIG    1        4.420   5.084  -2.576  0.00  0.00    -0.160 OA
BRANCH  18  26
ATOM     23  C   LIG    1        3.612   2.500  -4.109  0.00  0.00    +0.050 C 
ATOM     24  C   LIG    1        4.682   3.020  -5.071  0.00  0.00    -0.030 C 
ATOM     25  C   LIG    1        6.042   3.399  -4.480  0.00  0.00    +0.040 C 
ATOM     26  C   LIG    1        5.082   4.492  -4.954  0.00  0.00    +0.040 C 
ENDBRANCH  18  26
ENDBRANCH  17  21
ENDBRANCH   1  17
TORSDOF 5
