REMARK  Name = ZINCAx0000000dcH.1
REMARK                            x       y       z     vdW  Elec       q    Type
REMARK                         _______ _______ _______ _____ _____    ______ ____
ROOT
ATOM      1  C   LIG    1       -0.050   1.822  -2.349  0.00  0.00    -0.260 C 
ATOM      2  C   LIG    1       -0.736   1.616  -1.204  0.00  0.00    +0.240 C 
ATOM      3  N   LIG    1       -2.086   1.816  -1.145  0.00  0.00    -0.640 N 
ATOM      4  H   LIG    1       -2.537   1.651  -0.302  0.00  0.00    +0.420 HD
ATOM      5  C   LIG    1       -2.821   2.232  -2.185  0.00  0.00    +0.710 C 
ATOM      6  N   LIG    1       -2.278   2.479  -3.393  0.00  0.00    -0.710 N 
ATOM      7  H   LIG    1       -2.830   2.776  -4.134  0.00  0.00    +0.440 HD
ATOM      8  O   LIG    1       -4.017   2.386  -2.034  0.00  0.00    -0.550 OA
ATOM      9  C   LIG    1       -0.828   2.288  -3.563  0.00  0.00    +0.340 C 
ENDROOT
BRANCH   9  10
ATOM     10  C   LIG    1       -0.237   3.597  -4.019  0.00  0.00    -0.110 A 
ATOM     11  C   LIG    1       -0.580   4.771  -3.375  0.00  0.00    +0.010 A 
ATOM     12  C   LIG    1       -0.034   5.972  -3.790  0.00  0.00    +0.000 A 
ATOM     13  C   LIG    1        0.846   5.999  -4.856  0.00  0.00    +0.010 A 
ATOM     14  C   LIG    1        1.184   4.825  -5.503  0.00  0.00    +0.000 A 
ATOM     15  C   LIG    1        0.643   3.624  -5.085  0.00  0.00    +0.060 A 
ENDBRANCH   9  10
BRANCH   1  16
ATOM     16  C   LIG    1        1.347   1.610  -2.412  0.00  0.00    +0.540 C 
ATOM     17  O   LIG    1        1.932   1.121  -1.464  0.00  0.00    -0.520 OA
BRANCH  16  18
ATOM     18  O   LIG    1        2.031   1.949  -3.525  0.00  0.00    -0.340 OA
BRANCH  18  20
ATOM     19  C   LIG    1        4.038   2.152  -4.855  0.00  0.00    +0.070 C 
ATOM     20  C   LIG    1        3.439   1.707  -3.520  0.00  0.00    +0.200 C 
ENDBRANCH  18  20
ENDBRANCH  16  18
ENDBRANCH   1  16
BRANCH   2  21
ATOM     21  C   LIG    1       -0.002   1.152   0.028  0.00  0.00    +0.440 C 
BRANCH  21  22
ATOM     22  N   LIG    1       -0.770   1.517   1.221  0.00  0.00    -0.590 N 
ATOM     23  C   LIG    1       -1.696   0.735   1.786  0.00  0.00    +0.690 C 
ATOM     24  N   LIG    1       -2.255   1.301   2.871  0.00  0.00    -0.710 N 
ATOM     25  H   LIG    1       -2.944   0.918   3.435  0.00  0.00    +0.450 HD
ATOM     26  C   LIG    1       -1.614   2.618   3.036  0.00  0.00    +0.180 C 
ATOM     27  O   LIG    1       -2.000  -0.365   1.367  0.00  0.00    -0.530 OA
ATOM     28  C   LIG    1       -0.626   2.679   1.888  0.00  0.00    +0.540 C 
ATOM     29  O   LIG    1        0.135   3.586   1.624  0.00  0.00    -0.440 OA
BRANCH  26  30
ATOM     30  C   LIG    1       -0.891   2.694   4.356  0.00  0.00    -0.140 A 
ATOM     31  C   LIG    1       -0.745   3.912   4.993  0.00  0.00    +0.080 A 
ATOM     32  C   LIG    1       -0.088   3.984   6.207  0.00  0.00    -0.070 A 
ATOM     33  C   LIG    1        0.435   2.834   6.780  0.00  0.00    +0.140 A 
ATOM     34  C   LIG    1        0.292   1.614   6.136  0.00  0.00    -0.010 A 
ATOM     35  C   LIG    1       -0.371   1.547   4.926  0.00  0.00    +0.070 A 
BRANCH  33  36
ATOM     36  O   LIG    1        1.087   2.904   7.970  0.00  0.00    -0.310 OA
ATOM     37  C   LIG    1        1.197   4.193   8.576  0.00  0.00    +0.240 C 
ENDBRANCH  33  36
ENDBRANCH  26  30
BRANCH  26  38
ATOM     38  C   LIG    1       -2.649   3.738   2.921  0.00  0.00    +0.070 C 
ATOM     39  C   LIG    1       -3.413   3.594   1.603  0.00  0.00    +0.030 C 
ENDBRANCH  26  38
ENDBRANCH  21  22
ENDBRANCH   2  21
TORSDOF 9
