REMARK  Name = ZINCAx0000000dcH.0
REMARK                            x       y       z     vdW  Elec       q    Type
REMARK                         _______ _______ _______ _____ _____    ______ ____
ROOT
ATOM      1  C   LIG    1       -0.744   1.595  -1.237  0.00  0.00    +0.050 C 
ATOM      2  C   LIG    1       -0.469   3.067  -1.409  0.00  0.00    +0.250 C 
ATOM      3  N   LIG    1        0.661   3.572  -1.045  0.00  0.00    -0.500 NA
ATOM      4  C   LIG    1        1.623   2.823  -0.483  0.00  0.00    +0.660 C 
ATOM      5  N   LIG    1        1.362   1.595  -0.002  0.00  0.00    -0.730 N 
ATOM      6  H   LIG    1        2.085   1.045   0.339  0.00  0.00    +0.420 HD
ATOM      7  O   LIG    1        2.754   3.264  -0.408  0.00  0.00    -0.500 OA
ATOM      8  C   LIG    1       -0.013   1.086   0.008  0.00  0.00    +0.330 C 
ENDROOT
BRANCH   8   9
ATOM      9  C   LIG    1       -0.721   1.573   1.245  0.00  0.00    -0.130 A 
ATOM     10  C   LIG    1       -0.515   2.863   1.697  0.00  0.00    +0.020 A 
ATOM     11  C   LIG    1       -1.169   3.312   2.829  0.00  0.00    +0.020 A 
ATOM     12  C   LIG    1       -2.021   2.468   3.515  0.00  0.00    +0.020 A 
ATOM     13  C   LIG    1       -2.224   1.176   3.067  0.00  0.00    +0.010 A 
ATOM     14  C   LIG    1       -1.574   0.729   1.932  0.00  0.00    +0.030 A 
ENDBRANCH   8   9
BRANCH   1  15
ATOM     15  C   LIG    1       -0.253   0.847  -2.450  0.00  0.00    +0.470 C 
ATOM     16  O   LIG    1        0.595  -0.005  -2.332  0.00  0.00    -0.480 OA
BRANCH  15  17
ATOM     17  O   LIG    1       -0.757   1.129  -3.662  0.00  0.00    -0.350 OA
BRANCH  17  19
ATOM     18  C   LIG    1       -0.926   0.826  -6.072  0.00  0.00    +0.070 C 
ATOM     19  C   LIG    1       -0.237   0.369  -4.785  0.00  0.00    +0.210 C 
ENDBRANCH  17  19
ENDBRANCH  15  17
ENDBRANCH   1  15
BRANCH   2  20
ATOM     20  C   LIG    1       -1.525   3.957  -2.011  0.00  0.00    +0.430 C 
BRANCH  20  21
ATOM     21  N   LIG    1       -1.027   5.333  -2.073  0.00  0.00    -0.560 N 
ATOM     22  C   LIG    1       -1.188   6.235  -1.098  0.00  0.00    +0.710 C 
ATOM     23  N   LIG    1       -0.634   7.423  -1.401  0.00  0.00    -0.710 N 
ATOM     24  H   LIG    1       -0.627   8.218  -0.845  0.00  0.00    +0.440 HD
ATOM     25  C   LIG    1       -0.045   7.284  -2.744  0.00  0.00    +0.180 C 
ATOM     26  O   LIG    1       -1.766   6.006  -0.054  0.00  0.00    -0.540 OA
ATOM     27  C   LIG    1       -0.354   5.849  -3.121  0.00  0.00    +0.550 C 
ATOM     28  O   LIG    1       -0.058   5.282  -4.151  0.00  0.00    -0.450 OA
BRANCH  25  29
ATOM     29  C   LIG    1        1.444   7.510  -2.695  0.00  0.00    -0.140 A 
ATOM     30  C   LIG    1        2.116   7.928  -3.829  0.00  0.00    +0.080 A 
ATOM     31  C   LIG    1        3.480   8.142  -3.786  0.00  0.00    -0.080 A 
ATOM     32  C   LIG    1        4.178   7.924  -2.607  0.00  0.00    +0.140 A 
ATOM     33  C   LIG    1        3.503   7.499  -1.472  0.00  0.00    -0.020 A 
ATOM     34  C   LIG    1        2.138   7.293  -1.519  0.00  0.00    +0.090 A 
BRANCH  32  35
ATOM     35  O   LIG    1        5.521   8.127  -2.564  0.00  0.00    -0.310 OA
ATOM     36  C   LIG    1        6.150   8.565  -3.770  0.00  0.00    +0.250 C 
ENDBRANCH  32  35
ENDBRANCH  25  29
BRANCH  25  37
ATOM     37  C   LIG    1       -0.703   8.253  -3.727  0.00  0.00    +0.060 C 
ATOM     38  C   LIG    1       -2.225   8.126  -3.627  0.00  0.00    +0.020 C 
ENDBRANCH  25  37
ENDBRANCH  20  21
ENDBRANCH   2  20
TORSDOF 9
