REMARK  Name = ZINCvU00000008Gk.0
REMARK                            x       y       z     vdW  Elec       q    Type
REMARK                         _______ _______ _______ _____ _____    ______ ____
ROOT
ATOM      1  N   LIG    1        2.461   4.271   0.222  0.00  0.00    -0.670 N 
ATOM      2  H   LIG    1        3.036   3.827  -0.419  0.00  0.00    +0.410 HD
ATOM      3  C   LIG    1        1.562   3.558   0.929  0.00  0.00    +0.550 C 
ATOM      4  O   LIG    1        0.784   4.125   1.672  0.00  0.00    -0.470 OA
ENDROOT
BRANCH   1   8
ATOM      5  C   LIG    1        2.767   8.385   0.796  0.00  0.00    -0.150 A 
ATOM      6  C   LIG    1        3.912   7.627   0.536  0.00  0.00    +0.100 A 
ATOM      7  C   LIG    1        3.807   6.267   0.347  0.00  0.00    -0.020 A 
ATOM      8  C   LIG    1        2.563   5.648   0.414  0.00  0.00    +0.170 A 
ATOM      9  C   LIG    1        1.420   6.401   0.667  0.00  0.00    +0.020 A 
ATOM     10  C   LIG    1        1.519   7.760   0.863  0.00  0.00    +0.060 A 
BRANCH   5  13
ATOM     11  N   LIG    1        1.771  10.573   1.249  0.00  0.00    -0.720 N 
ATOM     12  H   LIG    1        0.904  10.140   1.296  0.00  0.00    +0.400 HD
ATOM     13  C   LIG    1        2.876   9.843   0.999  0.00  0.00    +0.560 C 
ATOM     14  O   LIG    1        3.962  10.386   0.940  0.00  0.00    -0.530 OA
BRANCH  11  16
ATOM     15  C   LIG    1        2.472  12.666   0.197  0.00  0.00    +0.030 C 
ATOM     16  C   LIG    1        1.879  12.020   1.450  0.00  0.00    +0.170 C 
ATOM     17  C   LIG    1        2.787  12.302   2.648  0.00  0.00    +0.030 C 
ATOM     18  C   LIG    1        0.489  12.603   1.715  0.00  0.00    +0.040 C 
ENDBRANCH  11  16
ENDBRANCH   5  13
ENDBRANCH   1   8
BRANCH   3  19
ATOM     19  C   LIG    1        1.521   2.090   0.800  0.00  0.00    -0.100 A 
ATOM     20  C   LIG    1        2.412   1.434  -0.052  0.00  0.00    +0.040 A 
ATOM     21  C   LIG    1        2.369   0.062  -0.168  0.00  0.00    +0.050 A 
ATOM     22  C   LIG    1        1.445  -0.674   0.557  0.00  0.00    +0.050 A 
ATOM     23  C   LIG    1        0.558  -0.041   1.404  0.00  0.00    +0.070 A 
ATOM     24  C   LIG    1        0.586   1.342   1.534  0.00  0.00    -0.100 A 
BRANCH  24  25
ATOM     25  S   LIG    1       -0.550   2.154   2.610  0.00  0.00    +0.060 S 
BRANCH  25  26
ATOM     26  C   LIG    1        0.438   2.529   4.020  0.00  0.00    -0.040 A 
ATOM     27  C   LIG    1        1.744   2.065   4.100  0.00  0.00    +0.000 A 
ATOM     28  C   LIG    1        2.516   2.361   5.206  0.00  0.00    +0.060 A 
ATOM     29  C   LIG    1        1.996   3.119   6.242  0.00  0.00    +0.010 A 
ATOM     30  C   LIG    1        0.701   3.587   6.181  0.00  0.00    +0.090 A 
ATOM     31  C   LIG    1       -0.091   3.303   5.066  0.00  0.00    -0.010 A 
BRANCH  31  32
ATOM     32  C   LIG    1       -1.435   3.792   4.993  0.00  0.00    +0.250 C 
ATOM     33  N   LIG    1       -2.501   4.180   4.935  0.00  0.00    -0.400 NA
ENDBRANCH  31  32
ENDBRANCH  25  26
ENDBRANCH  24  25
ENDBRANCH   3  19
TORSDOF 7
