REMARK  Name = ZINCpk00000K7PFh.1
REMARK                            x       y       z     vdW  Elec       q    Type
REMARK                         _______ _______ _______ _____ _____    ______ ____
ROOT
ATOM      1  C   LIG    1        7.208   3.482   0.897  0.00  0.00    +0.290 C 
ATOM      2  C   LIG    1        5.683   3.581   0.987  0.00  0.00    +0.170 C 
ATOM      3  N   LIG    1        5.188   4.448  -0.093  0.00  0.00    -0.520 NA
ATOM      4  C   LIG    1        5.583   3.920  -1.407  0.00  0.00    +0.160 C 
ATOM      5  C   LIG    1        7.109   3.817  -1.473  0.00  0.00    +0.250 C 
ATOM      6  O   LIG    1        7.574   2.997  -0.398  0.00  0.00    -0.370 OA
ENDROOT
BRANCH   1   9
ATOM      7  C   LIG    1        8.640   1.819   3.769  0.00  0.00    +0.290 A 
ATOM      8  N   LIG    1        8.337   2.886   3.076  0.00  0.00    -0.530 NA
ATOM      9  C   LIG    1        7.714   2.533   1.952  0.00  0.00    +0.230 A 
ATOM     10  N   LIG    1        7.619   1.230   1.910  0.00  0.00    -0.280 NA
ATOM     11  N   LIG    1        8.216   0.742   3.084  0.00  0.00    -0.480 N 
ATOM     12  H   LIG    1        8.303  -0.187   3.349  0.00  0.00    +0.440 HD
BRANCH   7  14
ATOM     13  C   LIG    1       10.846   1.595   4.878  0.00  0.00    +0.050 C 
ATOM     14  C   LIG    1        9.346   1.799   5.100  0.00  0.00    +0.150 C 
ENDBRANCH   7  14
ENDBRANCH   1   9
BRANCH   3  15
ATOM     15  C   LIG    1        3.731   4.615  -0.009  0.00  0.00    +0.240 C 
BRANCH  15  16
ATOM     16  C   LIG    1        3.293   5.692  -0.967  0.00  0.00    +0.510 C 
ATOM     17  N   LIG    1        1.980   5.933  -1.156  0.00  0.00    -0.630 N 
ATOM     18  H   LIG    1        1.318   5.413  -0.674  0.00  0.00    +0.430 HD
ATOM     19  O   LIG    1        4.121   6.343  -1.569  0.00  0.00    -0.470 OA
BRANCH  17  20
ATOM     20  C   LIG    1        1.577   6.925  -2.038  0.00  0.00    +0.210 A 
ATOM     21  C   LIG    1        0.294   7.286  -2.334  0.00  0.00    -0.100 A 
ATOM     22  C   LIG    1        0.443   8.327  -3.273  0.00  0.00    +0.050 A 
ATOM     23  N   LIG    1        1.724   8.489  -3.446  0.00  0.00    -0.370 NA
ATOM     24  O   LIG    1        2.370   7.723  -2.771  0.00  0.00    +0.110 OA
BRANCH  22  25
ATOM     25  C   LIG    1       -0.663   9.100  -3.943  0.00  0.00    +0.070 C 
ATOM     26  C   LIG    1       -1.827   9.278  -2.966  0.00  0.00    +0.050 C 
ATOM     27  C   LIG    1       -1.146   8.334  -5.177  0.00  0.00    +0.050 C 
ENDBRANCH  22  25
ENDBRANCH  17  20
ENDBRANCH  15  16
ENDBRANCH   3  15
TORSDOF 6
