REMARK  Name = ZINCpk00000K7PFh.0
REMARK                            x       y       z     vdW  Elec       q    Type
REMARK                         _______ _______ _______ _____ _____    ______ ____
ROOT
ATOM      1  C   LIG    1       -2.429   1.118   0.244  0.00  0.00    +0.290 C 
ATOM      2  C   LIG    1       -3.196   1.734   1.417  0.00  0.00    +0.200 C 
ATOM      3  N   LIG    1       -4.628   1.440   1.268  0.00  0.00    -0.520 NA
ATOM      4  C   LIG    1       -4.859  -0.011   1.221  0.00  0.00    +0.170 C 
ATOM      5  C   LIG    1       -4.076  -0.611   0.050  0.00  0.00    +0.250 C 
ATOM      6  O   LIG    1       -2.690  -0.287   0.196  0.00  0.00    -0.390 OA
ENDROOT
BRANCH   1  10
ATOM      7  C   LIG    1        1.184   1.056   0.633  0.00  0.00    +0.180 A 
ATOM      8  N   LIG    1        0.903   2.327   0.733  0.00  0.00    -0.280 NA
ATOM      9  N   LIG    1       -0.366   2.500   0.617  0.00  0.00    -0.270 NA
ATOM     10  C   LIG    1       -0.952   1.349   0.431  0.00  0.00    +0.180 A 
ATOM     11  N   LIG    1        0.015   0.399   0.442  0.00  0.00    -0.560 N 
ATOM     12  H   LIG    1       -0.106  -0.557   0.332  0.00  0.00    +0.430 HD
BRANCH   7  14
ATOM     13  C   LIG    1        3.474   1.095  -0.317  0.00  0.00    +0.050 C 
ATOM     14  C   LIG    1        2.555   0.436   0.713  0.00  0.00    +0.140 C 
ENDBRANCH   7  14
ENDBRANCH   1  10
BRANCH   3  15
ATOM     15  C   LIG    1       -5.409   2.063   2.345  0.00  0.00    +0.230 C 
BRANCH  15  16
ATOM     16  C   LIG    1       -5.342   3.562   2.210  0.00  0.00    +0.500 C 
ATOM     17  N   LIG    1       -5.880   4.349   3.163  0.00  0.00    -0.630 N 
ATOM     18  H   LIG    1       -6.311   3.950   3.936  0.00  0.00    +0.430 HD
ATOM     19  O   LIG    1       -4.804   4.061   1.245  0.00  0.00    -0.460 OA
BRANCH  17  20
ATOM     20  C   LIG    1       -5.819   5.729   3.039  0.00  0.00    +0.210 A 
ATOM     21  C   LIG    1       -6.315   6.653   3.914  0.00  0.00    -0.100 A 
ATOM     22  C   LIG    1       -5.989   7.890   3.321  0.00  0.00    +0.050 A 
ATOM     23  N   LIG    1       -5.365   7.616   2.211  0.00  0.00    -0.360 NA
ATOM     24  O   LIG    1       -5.256   6.424   2.038  0.00  0.00    +0.120 OA
BRANCH  22  25
ATOM     25  C   LIG    1       -6.302   9.260   3.865  0.00  0.00    +0.070 C 
ATOM     26  C   LIG    1       -6.210   9.236   5.392  0.00  0.00    +0.050 C 
ATOM     27  C   LIG    1       -7.717   9.664   3.446  0.00  0.00    +0.050 C 
ENDBRANCH  22  25
ENDBRANCH  17  20
ENDBRANCH  15  16
ENDBRANCH   3  15
TORSDOF 6
