REMARK  Name = ZINC5a0000002B3u.0
REMARK                            x       y       z     vdW  Elec       q    Type
REMARK                         _______ _______ _______ _____ _____    ______ ____
ROOT
ATOM      1  N   LIG    1       -2.948   2.793   0.042  0.00  0.00    -0.630 N 
ATOM      2  H   LIG    1       -2.404   3.623   0.228  0.00  0.00    +0.430 HD
ATOM      3  H   LIG    1       -3.645   2.680   0.763  0.00  0.00    +0.440 HD
ATOM      4  H   LIG    1       -3.402   2.882  -0.854  0.00  0.00    +0.440 HD
ENDROOT
BRANCH   1   5
ATOM      5  C   LIG    1       -2.063   1.621   0.029  0.00  0.00    +0.150 C 
ATOM      6  C   LIG    1       -0.959   1.695  -1.040  0.00  0.00    +0.050 C 
ATOM      7  C   LIG    1       -0.013   1.086   0.008  0.00  0.00    +0.060 C 
ATOM      8  C   LIG    1       -0.939   1.683   1.080  0.00  0.00    +0.060 C 
ENDBRANCH   1   5
TORSDOF 1
