REMARK  Name = ZINCfA000000bmTY.0
REMARK                            x       y       z     vdW  Elec       q    Type
REMARK                         _______ _______ _______ _____ _____    ______ ____
ROOT
ATOM      1  N   LIG    1       -0.069   1.036   2.458  0.00  0.00    -0.510 N 
ATOM      2  H   LIG    1        0.911   1.274   2.436  0.00  0.00    +0.430 HD
ATOM      3  H   LIG    1       -0.171   0.032   2.471  0.00  0.00    +0.430 HD
ENDROOT
BRANCH   1   7
ATOM      4  C   LIG    1       -0.727   3.124  -1.250  0.00  0.00    +0.020 C 
ATOM      5  C   LIG    1       -0.756   1.594  -1.230  0.00  0.00    +0.220 C 
ATOM      6  C   LIG    1       -0.013   1.086   0.008  0.00  0.00    +0.030 C 
ATOM      7  C   LIG    1       -0.732   1.581   1.266  0.00  0.00    +0.170 C 
ATOM      8  C   LIG    1       -2.190   1.107   1.226  0.00  0.00    +0.020 C 
ATOM      9  C   LIG    1       -2.849   1.615  -0.059  0.00  0.00    +0.250 C 
ATOM     10  O   LIG    1       -2.111   1.144  -1.189  0.00  0.00    -0.360 OA
ENDBRANCH   1   7
BRANCH   1  11
ATOM     11  C   LIG    1       -0.684   1.606   3.665  0.00  0.00    +0.370 C 
BRANCH  11  12
ATOM     12  C   LIG    1       -0.004   1.046   4.887  0.00  0.00    -0.290 A 
ATOM     13  C   LIG    1        1.063   1.580   5.485  0.00  0.00    +0.110 A 
ATOM     14  C   LIG    1        1.513   0.890   6.598  0.00  0.00    -0.140 A 
ATOM     15  C   LIG    1        0.817  -0.208   6.899  0.00  0.00    +0.060 A 
ATOM     16  I   LIG    1        3.166   1.519   7.721  0.00  0.00    +0.020 I 
ATOM     17  S   LIG    1       -0.490  -0.413   5.740  0.00  0.00    +0.190 S 
ENDBRANCH  11  12
ENDBRANCH   1  11
TORSDOF 3
