REMARK  Name = ZINCrD000000CgZ5.1
REMARK                            x       y       z     vdW  Elec       q    Type
REMARK                         _______ _______ _______ _____ _____    ______ ____
ROOT
ATOM      1  C   LIG    1       -0.032   1.459   0.025  0.00  0.00    +0.170 C 
ATOM      2  C   LIG    1       -0.625   2.014   1.340  0.00  0.00    +0.100 C 
ATOM      3  C   LIG    1        0.268   3.249   1.592  0.00  0.00    +0.310 C 
ATOM      4  N   LIG    1        1.535   2.962   0.908  0.00  0.00    -0.540 N 
ATOM      5  C   LIG    1        1.394   1.964   0.018  0.00  0.00    +0.500 C 
ATOM      6  O   LIG    1        2.281   1.532  -0.687  0.00  0.00    -0.460 OA
ENDROOT
BRANCH   1  11
ATOM      7  C   LIG    1        0.544  -2.040  -1.204  0.00  0.00    -0.020 C 
ATOM      8  C   LIG    1       -0.872  -2.590  -1.006  0.00  0.00    +0.040 C 
ATOM      9  C   LIG    1       -1.462  -2.002   0.280  0.00  0.00    +0.060 C 
ATOM     10  C   LIG    1       -1.439  -0.474   0.192  0.00  0.00    +0.250 C 
ATOM     11  N   LIG    1       -0.056  -0.010   0.030  0.00  0.00    -0.370 N 
ATOM     12  H   LIG    1        0.504  -0.352   0.796  0.00  0.00    +0.420 HD
ATOM     13  C   LIG    1        0.492  -0.511  -1.236  0.00  0.00    +0.260 C 
BRANCH   7  14
ATOM     14  C   LIG    1        1.113  -2.560  -2.525  0.00  0.00    +0.050 C 
BRANCH  14  15
ATOM     15  C   LIG    1        1.276  -4.080  -2.447  0.00  0.00    -0.060 C 
BRANCH  15  17
ATOM     16  O   LIG    1        2.084  -3.814  -4.655  0.00  0.00    -0.700 OA
ATOM     17  C   LIG    1        1.837  -4.592  -3.749  0.00  0.00    +0.490 C 
ATOM     18  O   LIG    1        2.045  -5.784  -3.897  0.00  0.00    -0.700 OA
ENDBRANCH  15  17
ENDBRANCH  14  15
ENDBRANCH   7  14
ENDBRANCH   1  11
BRANCH   4  19
ATOM     19  C   LIG    1        2.735   3.640   1.151  0.00  0.00    +0.180 A 
ATOM     20  C   LIG    1        3.854   3.372   0.374  0.00  0.00    +0.020 A 
ATOM     21  C   LIG    1        5.036   4.046   0.614  0.00  0.00    +0.110 A 
ATOM     22  C   LIG    1        5.108   4.978   1.633  0.00  0.00    -0.190 A 
ATOM     23  C   LIG    1        3.996   5.243   2.411  0.00  0.00    +0.110 A 
ATOM     24  C   LIG    1        2.810   4.577   2.173  0.00  0.00    -0.010 A 
BRANCH  22  25
ATOM     25  C   LIG    1        6.400   5.707   1.896  0.00  0.00    +0.510 C 
ATOM     26  F   LIG    1        6.123   6.977   2.413  0.00  0.00    -0.180 F 
ATOM     27  F   LIG    1        7.114   5.836   0.700  0.00  0.00    -0.170 F 
ATOM     28  F   LIG    1        7.163   4.984   2.819  0.00  0.00    -0.170 F 
ENDBRANCH  22  25
ENDBRANCH   4  19
TORSDOF 6
