REMARK  Name = ZINCrD000000CgZ5.0
REMARK                            x       y       z     vdW  Elec       q    Type
REMARK                         _______ _______ _______ _____ _____    ______ ____
ROOT
ATOM      1  C   LIG    1        0.014   1.151  -2.390  0.00  0.00    +0.170 C 
ATOM      2  C   LIG    1       -0.693   1.707  -3.648  0.00  0.00    +0.100 C 
ATOM      3  C   LIG    1        0.510   2.053  -4.556  0.00  0.00    +0.310 C 
ATOM      4  N   LIG    1        1.637   2.286  -3.645  0.00  0.00    -0.540 N 
ATOM      5  C   LIG    1        1.387   1.785  -2.423  0.00  0.00    +0.510 C 
ATOM      6  O   LIG    1        2.152   1.835  -1.483  0.00  0.00    -0.470 OA
ENDROOT
BRANCH   1  11
ATOM      7  C   LIG    1       -2.849   1.472   0.013  0.00  0.00    +0.010 C 
ATOM      8  C   LIG    1       -2.136   1.004   1.285  0.00  0.00    +0.050 C 
ATOM      9  C   LIG    1       -0.699   1.530   1.275  0.00  0.00    +0.050 C 
ATOM     10  C   LIG    1        0.007   1.049   0.004  0.00  0.00    +0.250 C 
ATOM     11  N   LIG    1       -0.708   1.551  -1.175  0.00  0.00    -0.370 N 
ATOM     12  H   LIG    1       -0.761   2.558  -1.132  0.00  0.00    +0.430 HD
ATOM     13  C   LIG    1       -2.065   0.993  -1.210  0.00  0.00    +0.260 C 
BRANCH   7  14
ATOM     14  C   LIG    1       -2.929   2.999   0.004  0.00  0.00    +0.020 C 
BRANCH  14  15
ATOM     15  C   LIG    1       -3.817   3.471   1.157  0.00  0.00    -0.060 C 
BRANCH  15  17
ATOM     16  O   LIG    1       -3.296   5.612   0.297  0.00  0.00    -0.700 OA
ATOM     17  C   LIG    1       -3.895   4.976   1.148  0.00  0.00    +0.490 C 
ATOM     18  O   LIG    1       -4.557   5.557   1.990  0.00  0.00    -0.690 OA
ENDBRANCH  15  17
ENDBRANCH  14  15
ENDBRANCH   7  14
ENDBRANCH   1  11
BRANCH   4  19
ATOM     19  C   LIG    1        2.818   2.945  -4.002  0.00  0.00    +0.180 A 
ATOM     20  C   LIG    1        3.776   3.229  -3.038  0.00  0.00    +0.010 A 
ATOM     21  C   LIG    1        4.943   3.875  -3.394  0.00  0.00    +0.110 A 
ATOM     22  C   LIG    1        5.154   4.250  -4.709  0.00  0.00    -0.190 A 
ATOM     23  C   LIG    1        4.200   3.973  -5.671  0.00  0.00    +0.110 A 
ATOM     24  C   LIG    1        3.033   3.322  -5.321  0.00  0.00    -0.010 A 
BRANCH  22  25
ATOM     25  C   LIG    1        6.426   4.960  -5.093  0.00  0.00    +0.510 C 
ATOM     26  F   LIG    1        6.754   4.645  -6.417  0.00  0.00    -0.180 F 
ATOM     27  F   LIG    1        7.462   4.552  -4.246  0.00  0.00    -0.170 F 
ATOM     28  F   LIG    1        6.243   6.341  -4.974  0.00  0.00    -0.170 F 
ENDBRANCH  22  25
ENDBRANCH   4  19
TORSDOF 6
