REMARK  Name = ZINCqH0000005hza.0
REMARK                            x       y       z     vdW  Elec       q    Type
REMARK                         _______ _______ _______ _____ _____    ______ ____
ROOT
ATOM      1  S   LIG    1       -2.226  -2.200   4.119  0.00  0.00    +2.690 S 
ATOM      2  O   LIG    1       -1.266  -1.413   4.812  0.00  0.00    -0.950 OA
ATOM      3  O   LIG    1       -3.097  -3.114   4.771  0.00  0.00    -0.950 OA
ENDROOT
BRANCH   1   4
ATOM      4  C   LIG    1       -3.255  -1.071   3.241  0.00  0.00    -0.680 A 
ATOM      5  C   LIG    1       -4.504  -1.472   2.804  0.00  0.00    +0.120 A 
ATOM      6  C   LIG    1       -5.315  -0.593   2.116  0.00  0.00    +0.010 A 
ATOM      7  C   LIG    1       -4.875   0.707   1.860  0.00  0.00    +0.000 A 
ATOM      8  C   LIG    1       -3.616   1.101   2.304  0.00  0.00    -0.110 A 
ATOM      9  C   LIG    1       -3.417   2.538   1.888  0.00  0.00    +0.170 C 
ATOM     10  C   LIG    1       -4.676   2.941   1.161  0.00  0.00    -0.080 A 
ATOM     11  C   LIG    1       -5.063   4.121   0.564  0.00  0.00    +0.030 A 
ATOM     12  C   LIG    1       -6.303   4.216  -0.044  0.00  0.00    +0.030 A 
ATOM     13  C   LIG    1       -7.156   3.128  -0.054  0.00  0.00    +0.010 A 
ATOM     14  C   LIG    1       -6.777   1.942   0.541  0.00  0.00    +0.050 A 
ATOM     15  C   LIG    1       -5.528   1.839   1.157  0.00  0.00    -0.080 A 
ATOM     16  C   LIG    1       -2.814   0.218   2.995  0.00  0.00    +0.140 A 
ENDBRANCH   1   4
BRANCH   1  18
ATOM     17  C   LIG    1       -0.147  -2.541   2.423  0.00  0.00    +0.300 C 
ATOM     18  N   LIG    1       -1.387  -3.076   2.992  0.00  0.00    -0.990 NA
BRANCH  18  19
ATOM     19  C   LIG    1       -1.884  -4.386   2.565  0.00  0.00    +0.350 C 
BRANCH  19  20
ATOM     20  C   LIG    1       -1.181  -5.468   3.343  0.00  0.00    -0.100 A 
ATOM     21  C   LIG    1        0.040  -5.950   2.909  0.00  0.00    +0.020 A 
ATOM     22  C   LIG    1        0.687  -6.943   3.622  0.00  0.00    +0.020 A 
ATOM     23  C   LIG    1        0.118  -7.452   4.772  0.00  0.00    -0.010 A 
ATOM     24  C   LIG    1       -1.110  -6.974   5.207  0.00  0.00    +0.100 A 
ATOM     25  C   LIG    1       -1.758  -5.979   4.491  0.00  0.00    +0.010 A 
BRANCH  24  26
ATOM     26  O   LIG    1       -1.676  -7.478   6.336  0.00  0.00    -0.500 OA
ATOM     27  H   LIG    1       -2.252  -8.239   6.181  0.00  0.00    +0.390 HD
ENDBRANCH  24  26
ENDBRANCH  19  20
ENDBRANCH  18  19
ENDBRANCH   1  18
TORSDOF 5
