REMARK  Name = ZINCrg00000y1Neo.0
REMARK                            x       y       z     vdW  Elec       q    Type
REMARK                         _______ _______ _______ _____ _____    ______ ____
ROOT
ATOM      1  N   LIG    1       -3.769   3.296  -0.976  0.00  0.00    -0.920 N 
ATOM      2  C   LIG    1       -2.569   2.772  -0.688  0.00  0.00    +0.540 C 
ATOM      3  C   LIG    1       -2.213   2.603   0.730  0.00  0.00    -0.090 A 
ATOM      4  C   LIG    1       -1.041   2.088   1.309  0.00  0.00    +0.120 A 
ATOM      5  C   LIG    1       -0.910   2.017   2.676  0.00  0.00    +0.140 A 
ATOM      6  C   LIG    1       -1.937   2.453   3.514  0.00  0.00    -0.110 A 
ATOM      7  C   LIG    1       -3.109   2.968   2.949  0.00  0.00    +0.170 A 
ATOM      8  C   LIG    1       -3.236   3.034   1.597  0.00  0.00    -0.630 A 
ATOM      9  O   LIG    1       -1.799   2.448  -1.570  0.00  0.00    -0.450 OA
ATOM     10  S   LIG    1       -4.503   3.598   0.495  0.00  0.00    +2.660 S 
ATOM     11  O   LIG    1       -5.603   2.706   0.615  0.00  0.00    -0.920 OA
ATOM     12  O   LIG    1       -4.601   5.008   0.642  0.00  0.00    -0.910 OA
ENDROOT
BRANCH   6  13
ATOM     13  C   LIG    1       -1.787   2.373   4.985  0.00  0.00    +0.580 C 
ATOM     14  N   LIG    1       -2.711   2.938   5.788  0.00  0.00    -0.620 N 
ATOM     15  C   LIG    1       -3.974   3.584   5.372  0.00  0.00    +0.220 C 
ATOM     16  C   LIG    1       -4.622   4.100   6.694  0.00  0.00    +0.210 C 
ATOM     17  C   LIG    1       -3.322   4.444   7.506  0.00  0.00    +0.060 C 
ATOM     18  N   LIG    1       -5.091   2.855   7.380  0.00  0.00    -0.510 NA
ATOM     19  C   LIG    1       -3.865   2.104   7.746  0.00  0.00    +0.200 C 
ATOM     20  C   LIG    1       -2.668   3.030   7.277  0.00  0.00    +0.250 C 
ATOM     21  O   LIG    1       -0.832   1.799   5.468  0.00  0.00    -0.520 OA
BRANCH  18  22
ATOM     22  C   LIG    1       -5.951   2.059   6.495  0.00  0.00    +0.160 C 
BRANCH  22  23
ATOM     23  C   LIG    1       -6.726   1.033   7.325  0.00  0.00    +0.380 C 
ATOM     24  F   LIG    1       -7.516   1.698   8.268  0.00  0.00    -0.190 F 
ATOM     25  F   LIG    1       -5.825   0.189   7.983  0.00  0.00    -0.200 F 
ENDBRANCH  22  23
ENDBRANCH  18  22
ENDBRANCH   6  13
BRANCH   1  27
ATOM     26  C   LIG    1       -3.840   4.913  -2.810  0.00  0.00    +0.040 C 
ATOM     27  C   LIG    1       -4.324   3.551  -2.308  0.00  0.00    +0.330 C 
ENDBRANCH   1  27
TORSDOF 4
