REMARK  Name = ZINCvU0000000B8R.0
REMARK                            x       y       z     vdW  Elec       q    Type
REMARK                         _______ _______ _______ _____ _____    ______ ____
ROOT
ATOM      1  C   LIG    1        5.983  -1.211  -1.228  0.00  0.00    +0.110 C 
ENDROOT
BRANCH   1   2
ATOM      2  C   LIG    1        4.647  -0.515  -1.170  0.00  0.00    +0.540 C 
ATOM      3  N   LIG    1        4.299   0.184  -0.071  0.00  0.00    -0.560 N 
ATOM      4  O   LIG    1        3.885  -0.585  -2.111  0.00  0.00    -0.510 OA
BRANCH   3   5
ATOM      5  C   LIG    1        3.062   0.829  -0.017  0.00  0.00    +0.150 A 
ATOM      6  C   LIG    1        2.935   2.127  -0.459  0.00  0.00    +0.030 A 
ATOM      7  C   LIG    1        1.705   2.779  -0.410  0.00  0.00    +0.020 A 
ATOM      8  C   LIG    1        0.597   2.154   0.075  0.00  0.00    +0.030 A 
ATOM      9  C   LIG    1        0.684   0.829   0.535  0.00  0.00    -0.050 A 
ATOM     10  C   LIG    1       -0.442   0.158   1.041  0.00  0.00    +0.030 A 
ATOM     11  C   LIG    1       -0.322  -1.126   1.478  0.00  0.00    +0.020 A 
ATOM     12  C   LIG    1        0.903  -1.787   1.434  0.00  0.00    +0.010 A 
ATOM     13  C   LIG    1        2.016  -1.168   0.951  0.00  0.00    +0.020 A 
ATOM     14  C   LIG    1        1.930   0.155   0.490  0.00  0.00    -0.040 A 
ENDBRANCH   3   5
BRANCH   3  15
ATOM     15  C   LIG    1        5.220   0.269   1.065  0.00  0.00    +0.280 C 
ATOM     16  C   LIG    1        4.947  -0.888   2.029  0.00  0.00    +0.030 C 
ENDBRANCH   3  15
ENDBRANCH   1   2
BRANCH   1  17
ATOM     17  S   LIG    1        6.153  -2.057  -2.819  0.00  0.00    +0.090 S 
BRANCH  17  19
ATOM     18  N   LIG    1        8.418  -3.536  -3.530  0.00  0.00    -0.450 N 
ATOM     19  C   LIG    1        7.755  -2.763  -2.620  0.00  0.00    +0.140 A 
ATOM     20  N   LIG    1        8.533  -2.648  -1.567  0.00  0.00    -0.290 NA
ATOM     21  N   LIG    1        9.631  -3.287  -1.757  0.00  0.00    -0.270 NA
ATOM     22  C   LIG    1        9.622  -3.850  -2.943  0.00  0.00    +0.230 A 
BRANCH  22  23
ATOM     23  C   LIG    1       10.700  -4.671  -3.534  0.00  0.00    -0.020 A 
ATOM     24  C   LIG    1       11.492  -5.481  -2.718  0.00  0.00    +0.060 A 
ATOM     25  C   LIG    1       12.494  -6.248  -3.276  0.00  0.00    +0.010 A 
ATOM     26  C   LIG    1       12.720  -6.208  -4.641  0.00  0.00    +0.030 A 
ATOM     27  C   LIG    1       11.942  -5.404  -5.454  0.00  0.00    +0.010 A 
ATOM     28  C   LIG    1       10.934  -4.636  -4.910  0.00  0.00    +0.010 A 
ENDBRANCH  22  23
BRANCH  18  29
ATOM     29  C   LIG    1        7.947  -3.945  -4.856  0.00  0.00    +0.350 C 
BRANCH  29  31
ATOM     30  C   LIG    1        8.882  -3.114  -6.952  0.00  0.00    +0.060 C 
ATOM     31  C   LIG    1        8.228  -2.847  -5.849  0.00  0.00    -0.070 C 
ENDBRANCH  29  31
ENDBRANCH  18  29
ENDBRANCH  17  19
ENDBRANCH   1  17
TORSDOF 8
