REMARK  Name = ZINCrg000000sS1J.1
REMARK                            x       y       z     vdW  Elec       q    Type
REMARK                         _______ _______ _______ _____ _____    ______ ____
ROOT
ATOM      1  N   LIG    1        3.726  -0.121  -0.835  0.00  0.00    -0.650 NA
ATOM      2  H   LIG    1        3.790  -0.761  -1.612  0.00  0.00    +0.360 HD
ENDROOT
BRANCH   1   3
ATOM      3  C   LIG    1        4.358  -0.685   0.365  0.00  0.00    +0.140 C 
ATOM      4  C   LIG    1        5.511  -1.631  -0.031  0.00  0.00    +0.040 C 
ATOM      5  C   LIG    1        6.776  -1.005   0.594  0.00  0.00    +0.210 C 
ATOM      6  N   LIG    1        6.269  -0.184   1.723  0.00  0.00    -0.450 N 
ATOM      7  C   LIG    1        5.022   0.433   1.198  0.00  0.00    +0.190 C 
BRANCH   6   8
ATOM      8  C   LIG    1        7.191   0.789   2.085  0.00  0.00    +0.160 A 
ATOM      9  C   LIG    1        6.990   2.113   1.718  0.00  0.00    -0.040 A 
ATOM     10  C   LIG    1        7.908   3.078   2.079  0.00  0.00    +0.060 A 
ATOM     11  C   LIG    1        9.035   2.736   2.808  0.00  0.00    -0.020 A 
ATOM     12  C   LIG    1        9.252   1.428   3.182  0.00  0.00    +0.060 A 
ATOM     13  C   LIG    1        8.330   0.440   2.829  0.00  0.00    -0.150 A 
BRANCH  13  14
ATOM     14  C   LIG    1        8.553  -0.961   3.230  0.00  0.00    +0.560 C 
ATOM     15  O   LIG    1        7.796  -1.832   2.845  0.00  0.00    -0.510 OA
ATOM     16  N   LIG    1        9.596  -1.277   4.024  0.00  0.00    -0.860 N 
ATOM     17  H   LIG    1        9.742  -2.199   4.287  0.00  0.00    +0.400 HD
ATOM     18  H   LIG    1       10.199  -0.582   4.331  0.00  0.00    +0.400 HD
ENDBRANCH  13  14
ENDBRANCH   6   8
ENDBRANCH   1   3
BRANCH   1  19
ATOM     19  C   LIG    1        2.328   0.247  -0.570  0.00  0.00    +0.220 C 
BRANCH  19  23
ATOM     20  C   LIG    1        1.036   3.115  -3.467  0.00  0.00    -0.020 A 
ATOM     21  C   LIG    1        0.653   3.246  -2.131  0.00  0.00    +0.070 A 
ATOM     22  C   LIG    1        1.073   2.317  -1.201  0.00  0.00    +0.030 A 
ATOM     23  C   LIG    1        1.873   1.257  -1.591  0.00  0.00    -0.050 A 
ATOM     24  C   LIG    1        2.261   1.124  -2.912  0.00  0.00    +0.050 A 
ATOM     25  C   LIG    1        1.843   2.042  -3.853  0.00  0.00    +0.070 A 
BRANCH  20  27
ATOM     26  N   LIG    1        0.262   4.838  -5.206  0.00  0.00    -0.410 NA
ATOM     27  C   LIG    1        0.605   4.076  -4.437  0.00  0.00    +0.250 C 
ENDBRANCH  20  27
ENDBRANCH  19  23
BRANCH  19  28
ATOM     28  C   LIG    1        1.460  -0.982  -0.657  0.00  0.00    +0.490 C 
ATOM     29  O   LIG    1        1.696  -1.834  -1.487  0.00  0.00    -0.530 OA
ATOM     30  N   LIG    1        0.421  -1.134   0.188  0.00  0.00    -0.850 N 
ATOM     31  H   LIG    1       -0.138  -1.925   0.132  0.00  0.00    +0.400 HD
ATOM     32  H   LIG    1        0.232  -0.453   0.853  0.00  0.00    +0.400 HD
ENDBRANCH  19  28
ENDBRANCH   1  19
TORSDOF 7
