REMARK  Name = ZINCkj00000dDKqf.1
REMARK                            x       y       z     vdW  Elec       q    Type
REMARK                         _______ _______ _______ _____ _____    ______ ____
ROOT
ATOM      1  C   LIG    1        1.404   1.702   2.461  0.00  0.00    +0.110 C 
ATOM      2  C   LIG    1        0.010   1.073   2.407  0.00  0.00    +0.190 C 
ENDROOT
BRANCH   2   3
ATOM      3  C   LIG    1       -0.762   1.454   3.644  0.00  0.00    +0.520 C 
ATOM      4  N   LIG    1       -0.297   1.110   4.861  0.00  0.00    -0.670 N 
ATOM      5  H   LIG    1        0.535   0.617   4.941  0.00  0.00    +0.420 HD
ATOM      6  C   LIG    1       -0.987   1.452   5.967  0.00  0.00    +0.700 C 
ATOM      7  N   LIG    1       -0.522   1.107   7.184  0.00  0.00    -0.700 N 
ATOM      8  H   LIG    1        0.309   0.615   7.264  0.00  0.00    +0.400 HD
ATOM      9  O   LIG    1       -2.029   2.069   5.867  0.00  0.00    -0.510 OA
ATOM     10  O   LIG    1       -1.801   2.071   3.543  0.00  0.00    -0.450 OA
BRANCH   7  11
ATOM     11  C   LIG    1       -1.272   1.478   8.387  0.00  0.00    +0.220 C 
ATOM     12  C   LIG    1       -0.479   2.030   9.573  0.00  0.00    +0.020 C 
ATOM     13  C   LIG    1       -1.071   0.621   9.638  0.00  0.00    +0.030 C 
ENDBRANCH   7  11
ENDBRANCH   2   3
BRANCH   2  14
ATOM     14  N   LIG    1       -0.700   1.560   1.217  0.00  0.00    -0.500 N 
ATOM     15  H   LIG    1       -1.647   1.210   1.224  0.00  0.00    +0.440 HD
ATOM     16  H   LIG    1       -0.714   2.568   1.222  0.00  0.00    +0.430 HD
BRANCH  14  17
ATOM     17  C   LIG    1       -0.013   1.086   0.008  0.00  0.00    +0.360 C 
BRANCH  17  18
ATOM     18  C   LIG    1       -0.742   1.585  -1.213  0.00  0.00    +0.060 A 
ATOM     19  C   LIG    1       -0.324   2.749  -1.829  0.00  0.00    +0.020 A 
ATOM     20  C   LIG    1       -1.001   3.201  -2.952  0.00  0.00    +0.100 A 
ATOM     21  C   LIG    1       -2.077   2.460  -3.416  0.00  0.00    +0.060 A 
ATOM     22  C   LIG    1       -2.438   1.304  -2.747  0.00  0.00    +0.130 A 
ATOM     23 BR   LIG    1       -3.903   0.283  -3.369  0.00  0.00    +0.030 Br
ATOM     24  N   LIG    1       -1.767   0.902  -1.684  0.00  0.00    -0.440 NA
ENDBRANCH  17  18
ENDBRANCH  14  17
ENDBRANCH   2  14
TORSDOF 5
