REMARK  Name = ZINCqH0000006346.0
REMARK                            x       y       z     vdW  Elec       q    Type
REMARK                         _______ _______ _______ _____ _____    ______ ____
ROOT
ATOM      1  C   LIG    1        6.130   7.841   0.186  0.00  0.00    +0.010 A 
ATOM      2  N   LIG    1        5.788   9.107   0.300  0.00  0.00    -0.170 NA
ATOM      3  N   LIG    1        4.514   9.257   0.358  0.00  0.00    -0.400 N 
ATOM      4  H   LIG    1        4.067  10.114   0.443  0.00  0.00    +0.450 HD
ATOM      5  C   LIG    1        3.867   8.050   0.284  0.00  0.00    +0.050 A 
ATOM      6  C   LIG    1        2.533   7.656   0.300  0.00  0.00    +0.050 A 
ATOM      7  C   LIG    1        2.211   6.332   0.201  0.00  0.00    +0.040 A 
ATOM      8  C   LIG    1        3.205   5.360   0.092  0.00  0.00    +0.130 A 
ATOM      9  C   LIG    1        4.539   5.728   0.073  0.00  0.00    +0.100 A 
ATOM     10  C   LIG    1        4.876   7.074   0.169  0.00  0.00    -0.080 A 
ENDROOT
BRANCH   8  11
ATOM     11  N   LIG    1        2.853   4.009  -0.004  0.00  0.00    -0.650 N 
ATOM     12  H   LIG    1        2.069   3.678   0.462  0.00  0.00    +0.420 HD
ATOM     13  C   LIG    1        3.602   3.168  -0.744  0.00  0.00    +0.590 C 
ATOM     14  O   LIG    1        4.527   3.600  -1.406  0.00  0.00    -0.500 OA
BRANCH  13  15
ATOM     15  C   LIG    1        3.300   1.727  -0.753  0.00  0.00    +0.010 A 
ATOM     16  C   LIG    1        4.019   0.841  -1.476  0.00  0.00    -0.020 A 
ATOM     17  S   LIG    1        3.380  -0.727  -1.238  0.00  0.00    +0.200 S 
ATOM     18  C   LIG    1        2.154  -0.082  -0.152  0.00  0.00    +0.120 A 
ATOM     19  N   LIG    1        2.303   1.204  -0.049  0.00  0.00    -0.440 NA
BRANCH  18  20
ATOM     20  C   LIG    1        1.116  -0.880   0.535  0.00  0.00    -0.060 A 
ATOM     21  C   LIG    1        0.200  -0.334   1.357  0.00  0.00    -0.020 A 
ATOM     22  S   LIG    1       -0.840  -1.537   1.976  0.00  0.00    +0.200 S 
ATOM     23  C   LIG    1        0.005  -2.798   1.089  0.00  0.00    -0.050 A 
ATOM     24  C   LIG    1        0.999  -2.264   0.383  0.00  0.00    +0.030 A 
ENDBRANCH  18  20
ENDBRANCH  13  15
ENDBRANCH   8  11
BRANCH   1  25
ATOM     25  C   LIG    1        7.496   7.301   0.094  0.00  0.00    +0.560 C 
ATOM     26  O   LIG    1        7.670   6.102  -0.008  0.00  0.00    -0.490 OA
BRANCH  25  28
ATOM     27  C   LIG    1        9.872   7.533   0.029  0.00  0.00    +0.290 C 
ATOM     28  O   LIG    1        8.554   8.135   0.124  0.00  0.00    -0.350 OA
ENDBRANCH  25  28
ENDBRANCH   1  25
TORSDOF 5
