REMARK  Name = ZINCc70000003YVm.0
REMARK                            x       y       z     vdW  Elec       q    Type
REMARK                         _______ _______ _______ _____ _____    ______ ____
ROOT
ATOM      1  C   LIG    1        1.037   5.483   0.023  0.00  0.00    +0.190 C 
ATOM      2  C   LIG    1        0.655   4.026   0.018  0.00  0.00    +0.250 A 
ATOM      3  N   LIG    1        1.595   3.103   0.004  0.00  0.00    -0.480 NA
ATOM      4  C   LIG    1        1.288   1.801  -0.001  0.00  0.00    +0.480 A 
ATOM      5  N   LIG    1        2.038   0.704  -0.014  0.00  0.00    -0.530 NA
ATOM      6  C   LIG    1        1.260  -0.371  -0.012  0.00  0.00    +0.510 A 
ATOM      7  N   LIG    1        0.002  -0.004   0.002  0.00  0.00    -0.350 NA
ATOM      8  N   LIG    1       -0.017   1.397   0.010  0.00  0.00    -0.360 N 
ATOM      9  C   LIG    1       -1.022   2.320   0.029  0.00  0.00    +0.470 A 
ATOM     10  C   LIG    1       -0.690   3.663   0.030  0.00  0.00    -0.100 A 
ATOM     11  F   LIG    1       -1.656   4.607   0.045  0.00  0.00    -0.110 F 
ENDROOT
BRANCH   9  12
ATOM     12  N   LIG    1       -2.342   1.922   0.045  0.00  0.00    -0.820 N 
ATOM     13  H   LIG    1       -3.049   2.586   0.059  0.00  0.00    +0.430 HD
ATOM     14  H   LIG    1       -2.564   0.978   0.043  0.00  0.00    +0.420 HD
ENDBRANCH   9  12
TORSDOF 1
