REMARK  Name = ZINCnE000001TDLS.1
REMARK                            x       y       z     vdW  Elec       q    Type
REMARK                         _______ _______ _______ _____ _____    ______ ____
ROOT
ATOM      1  C   LIG    1        0.267   5.244   0.029  0.00  0.00    +0.230 C 
ATOM      2  C   LIG    1        0.751   5.711  -1.359  0.00  0.00    +0.080 C 
ATOM      3  C   LIG    1        1.670   6.915  -1.023  0.00  0.00    +0.060 C 
ATOM      4  C   LIG    1        2.321   6.450   0.304  0.00  0.00    +0.240 C 
ATOM      5  N   LIG    1        1.246   5.729   1.019  0.00  0.00    -0.390 N 
ATOM      6  H   LIG    1        1.639   4.946   1.521  0.00  0.00    +0.430 HD
ENDROOT
BRANCH   1  11
ATOM      7  C   LIG    1       -1.028   1.689  -0.006  0.00  0.00    -0.170 A 
ATOM      8  C   LIG    1        0.182   1.009   0.154  0.00  0.00    +0.310 A 
ATOM      9  N   LIG    1        1.314   1.673   0.258  0.00  0.00    -0.480 NA
ATOM     10  C   LIG    1        1.355   2.991   0.221  0.00  0.00    +0.230 A 
ATOM     11  C   LIG    1        0.200   3.739   0.070  0.00  0.00    -0.190 A 
ATOM     12  C   LIG    1       -1.016   3.090  -0.044  0.00  0.00    +0.130 A 
BRANCH   7  14
ATOM     13  O   LIG    1       -2.294  -0.277  -0.090  0.00  0.00    -0.680 OA
ATOM     14  C   LIG    1       -2.296   0.945  -0.129  0.00  0.00    +0.520 C 
ATOM     15  O   LIG    1       -3.349   1.551  -0.269  0.00  0.00    -0.680 OA
ENDBRANCH   7  14
ENDBRANCH   1  11
BRANCH   5  16
ATOM     16  C   LIG    1        0.585   6.638   1.965  0.00  0.00    +0.320 C 
BRANCH  16  17
ATOM     17  C   LIG    1       -0.428   5.870   2.775  0.00  0.00    -0.320 A 
ATOM     18  C   LIG    1       -1.772   5.961   2.467  0.00  0.00    +0.060 A 
ATOM     19  C   LIG    1       -2.701   5.253   3.206  0.00  0.00    -0.120 A 
ATOM     20  C   LIG    1       -2.291   4.461   4.262  0.00  0.00    +0.070 A 
ATOM     21  C   LIG    1       -0.948   4.371   4.578  0.00  0.00    -0.160 A 
ATOM     22 CL   LIG    1       -0.432   3.375   5.903  0.00  0.00    -0.100 Cl
ATOM     23  C   LIG    1       -0.012   5.076   3.833  0.00  0.00    +0.300 A 
ATOM     24  O   LIG    1        1.309   4.989   4.142  0.00  0.00    -0.700 OA
ENDBRANCH  16  17
ENDBRANCH   5  16
TORSDOF 4
