REMARK  Name = ZINCnE000001TDLS.0
REMARK                            x       y       z     vdW  Elec       q    Type
REMARK                         _______ _______ _______ _____ _____    ______ ____
ROOT
ATOM      1  C   LIG    1        3.610   1.989  -0.223  0.00  0.00    +0.210 C 
ATOM      2  C   LIG    1        4.197   2.599   1.067  0.00  0.00    +0.070 C 
ATOM      3  C   LIG    1        4.963   3.844   0.549  0.00  0.00    +0.050 C 
ATOM      4  C   LIG    1        4.047   4.315  -0.609  0.00  0.00    +0.280 C 
ATOM      5  N   LIG    1        3.548   3.068  -1.227  0.00  0.00    -0.380 N 
ATOM      6  H   LIG    1        4.125   2.827  -2.019  0.00  0.00    +0.410 HD
ENDROOT
BRANCH   1  11
ATOM      7  C   LIG    1        0.016   1.705   0.925  0.00  0.00    -0.170 A 
ATOM      8  C   LIG    1       -0.258   0.408   0.484  0.00  0.00    +0.320 A 
ATOM      9  N   LIG    1        0.666  -0.297  -0.135  0.00  0.00    -0.490 NA
ATOM     10  C   LIG    1        1.874   0.183  -0.362  0.00  0.00    +0.260 A 
ATOM     11  C   LIG    1        2.225   1.459   0.044  0.00  0.00    -0.210 A 
ATOM     12  C   LIG    1        1.291   2.242   0.698  0.00  0.00    +0.130 A 
BRANCH   7  14
ATOM     13  O   LIG    1       -2.128   2.017   1.810  0.00  0.00    -0.680 OA
ATOM     14  C   LIG    1       -1.019   2.496   1.618  0.00  0.00    +0.520 C 
ATOM     15  O   LIG    1       -0.768   3.630   2.000  0.00  0.00    -0.670 OA
ENDBRANCH   7  14
ENDBRANCH   1  11
BRANCH   5  16
ATOM     16  C   LIG    1        2.160   3.255  -1.667  0.00  0.00    +0.330 C 
BRANCH  16  17
ATOM     17  C   LIG    1        2.125   4.220  -2.824  0.00  0.00    -0.310 A 
ATOM     18  C   LIG    1        2.133   3.745  -4.121  0.00  0.00    +0.060 A 
ATOM     19  C   LIG    1        2.100   4.629  -5.184  0.00  0.00    -0.140 A 
ATOM     20  C   LIG    1        2.060   5.991  -4.951  0.00  0.00    +0.060 A 
ATOM     21  C   LIG    1        2.052   6.473  -3.655  0.00  0.00    -0.160 A 
ATOM     22 CL   LIG    1        2.001   8.183  -3.364  0.00  0.00    -0.100 Cl
ATOM     23  C   LIG    1        2.080   5.586  -2.587  0.00  0.00    +0.300 A 
ATOM     24  O   LIG    1        2.067   6.056  -1.312  0.00  0.00    -0.670 OA
ENDBRANCH  16  17
ENDBRANCH   5  16
TORSDOF 4
