REMARK  Name = ZINCvU00000008XK.0
REMARK                            x       y       z     vdW  Elec       q    Type
REMARK                         _______ _______ _______ _____ _____    ______ ____
ROOT
ATOM      1  C   LIG    1       -8.618  -3.426   1.561  0.00  0.00    +0.130 C 
ATOM      2  C   LIG    1       -7.112  -3.459   1.508  0.00  0.00    +0.020 A 
ATOM      3  C   LIG    1       -6.331  -2.510   0.966  0.00  0.00    +0.000 A 
ATOM      4  C   LIG    1       -4.944  -2.963   1.142  0.00  0.00    -0.260 A 
ATOM      5  C   LIG    1       -5.023  -4.183   1.788  0.00  0.00    +0.130 A 
ATOM      6  C   LIG    1       -3.857  -5.050   2.186  0.00  0.00    +0.150 C 
ATOM      7  N   LIG    1       -6.323  -4.460   2.003  0.00  0.00    -0.390 N 
ENDROOT
BRANCH   7   8
ATOM      8  C   LIG    1       -6.801  -5.615   2.640  0.00  0.00    +0.080 A 
ATOM      9  C   LIG    1       -6.510  -5.840   3.979  0.00  0.00    +0.070 A 
ATOM     10  C   LIG    1       -6.985  -6.975   4.606  0.00  0.00    -0.040 A 
ATOM     11  C   LIG    1       -7.743  -7.895   3.897  0.00  0.00    +0.120 A 
ATOM     12  C   LIG    1       -8.030  -7.672   2.558  0.00  0.00    +0.030 A 
ATOM     13  C   LIG    1       -7.560  -6.535   1.931  0.00  0.00    +0.070 A 
BRANCH  11  14
ATOM     14  O   LIG    1       -8.206  -9.014   4.514  0.00  0.00    -0.320 OA
BRANCH  14  15
ATOM     15  C   LIG    1       -7.873  -9.179   5.894  0.00  0.00    +0.600 C 
ATOM     16  F   LIG    1       -8.387  -8.105   6.629  0.00  0.00    -0.200 F 
ATOM     17  F   LIG    1       -6.482  -9.218   6.037  0.00  0.00    -0.200 F 
ENDBRANCH  14  15
ENDBRANCH  11  14
ENDBRANCH   7   8
BRANCH   4  18
ATOM     18  C   LIG    1       -3.728  -2.268   0.716  0.00  0.00    +0.430 C 
ATOM     19  O   LIG    1       -2.641  -2.762   0.928  0.00  0.00    -0.450 OA
BRANCH  18  20
ATOM     20  C   LIG    1       -3.828  -0.938   0.013  0.00  0.00    +0.170 C 
ATOM     21  C   LIG    1       -4.291  -1.156  -1.428  0.00  0.00    +0.070 C 
BRANCH  20  22
ATOM     22  O   LIG    1       -2.526  -0.293   0.011  0.00  0.00    -0.330 OA
BRANCH  22  23
ATOM     23  C   LIG    1       -2.511   1.054   0.019  0.00  0.00    +0.510 C 
ATOM     24  O   LIG    1       -3.556   1.673   0.027  0.00  0.00    -0.480 OA
BRANCH  23  25
ATOM     25  C   LIG    1       -1.224   1.778   0.017  0.00  0.00    -0.170 A 
ATOM     26  C   LIG    1       -0.013   1.076   0.008  0.00  0.00    +0.160 A 
ATOM     27  C   LIG    1        1.166   1.802   0.001  0.00  0.00    -0.020 A 
ATOM     28  C   LIG    1        1.111   3.184   0.009  0.00  0.00    +0.330 A 
ATOM     29  N   LIG    1       -0.045   3.820   0.023  0.00  0.00    -0.480 NA
ATOM     30  C   LIG    1       -1.194   3.175   0.031  0.00  0.00    +0.230 A 
ATOM     31 CL   LIG    1       -2.683   4.068   0.050  0.00  0.00    +0.010 Cl
ENDBRANCH  23  25
ENDBRANCH  22  23
ENDBRANCH  20  22
ENDBRANCH  18  20
ENDBRANCH   4  18
TORSDOF 8
