REMARK  Name = ZINCkj000005g5MJ.0
REMARK                            x       y       z     vdW  Elec       q    Type
REMARK                         _______ _______ _______ _____ _____    ______ ____
ROOT
ATOM      1  C   LIG    1       -6.837  -0.132   0.267  0.00  0.00    -0.140 A 
ATOM      2  C   LIG    1       -6.407   0.661  -0.801  0.00  0.00    +0.110 A 
ATOM      3  C   LIG    1       -5.135   1.186  -0.797  0.00  0.00    +0.000 A 
ATOM      4  C   LIG    1       -4.277   0.929   0.267  0.00  0.00    +0.150 A 
ATOM      5  C   LIG    1       -4.699   0.136   1.329  0.00  0.00    +0.020 A 
ATOM      6  C   LIG    1       -5.973  -0.388   1.335  0.00  0.00    +0.060 A 
ENDROOT
BRANCH   1   9
ATOM      7  N   LIG    1       -8.613  -1.461   1.298  0.00  0.00    -0.730 N 
ATOM      8  H   LIG    1       -8.014  -1.639   2.040  0.00  0.00    +0.400 HD
ATOM      9  C   LIG    1       -8.200  -0.697   0.267  0.00  0.00    +0.550 C 
ATOM     10  O   LIG    1       -8.951  -0.473  -0.663  0.00  0.00    -0.530 OA
BRANCH   7  12
ATOM     11  C   LIG    1      -10.178  -2.842   2.572  0.00  0.00    +0.030 C 
ATOM     12  C   LIG    1       -9.966  -2.022   1.298  0.00  0.00    +0.250 C 
ENDBRANCH   7  12
ENDBRANCH   1   9
BRANCH   4  13
ATOM     13  N   LIG    1       -2.988   1.462   0.267  0.00  0.00    -0.660 N 
ATOM     14  H   LIG    1       -2.510   1.573  -0.570  0.00  0.00    +0.420 HD
ATOM     15  C   LIG    1       -2.407   1.822   1.428  0.00  0.00    +0.520 C 
ATOM     16  O   LIG    1       -3.039   1.772   2.463  0.00  0.00    -0.510 OA
BRANCH  15  17
ATOM     17  C   LIG    1       -0.974   2.286   1.442  0.00  0.00    -0.100 C 
ATOM     18  C   LIG    1       -0.819   3.580   0.611  0.00  0.00    +0.100 C 
ATOM     19  C   LIG    1       -0.880   4.693   1.688  0.00  0.00    +0.290 C 
ATOM     20  N   LIG    1       -0.151   4.096   2.836  0.00  0.00    -0.510 N 
ATOM     21  H   LIG    1        0.845   4.174   2.695  0.00  0.00    +0.430 HD
ATOM     22  H   LIG    1       -0.418   4.553   3.694  0.00  0.00    +0.440 HD
ATOM     23  C   LIG    1       -0.057   1.190   0.894  0.00  0.00    +0.090 C 
ATOM     24  C   LIG    1       -0.550   2.672   2.871  0.00  0.00    +0.310 C 
ENDBRANCH  15  17
ENDBRANCH   4  13
TORSDOF 4
