REMARK  Name = ZINCpk00000FdYRr.0
REMARK                            x       y       z     vdW  Elec       q    Type
REMARK                         _______ _______ _______ _____ _____    ______ ____
ROOT
ATOM      1  C   LIG    1       -3.670   2.916   1.294  0.00  0.00    +0.230 C 
ENDROOT
BRANCH   1   2
ATOM      2  O   LIG    1       -4.544   1.785   1.287  0.00  0.00    -0.540 OA
ATOM      3  H   LIG    1       -5.137   1.751   0.524  0.00  0.00    +0.370 HD
ENDBRANCH   1   2
BRANCH   1   4
ATOM      4  C   LIG    1       -2.792   2.888   0.041  0.00  0.00    +0.130 C 
BRANCH   4   7
ATOM      5  C   LIG    1       -0.013   1.086   0.008  0.00  0.00    +0.080 C 
ATOM      6  C   LIG    1       -0.946   1.687   1.075  0.00  0.00    +0.190 C 
ATOM      7  N   LIG    1       -1.996   1.654   0.028  0.00  0.00    -0.460 NA
ATOM      8  C   LIG    1       -0.966   1.698  -1.034  0.00  0.00    +0.190 C 
BRANCH   5  11
ATOM      9  C   LIG    1        3.088   2.990   0.333  0.00  0.00    -0.030 A 
ATOM     10  C   LIG    1        1.773   2.885   0.640  0.00  0.00    -0.040 A 
ATOM     11  C   LIG    1        1.367   1.692  -0.002  0.00  0.00    +0.020 A 
ATOM     12  N   LIG    1        2.420   1.224  -0.608  0.00  0.00    -0.350 NA
ATOM     13  O   LIG    1        3.385   1.931  -0.433  0.00  0.00    +0.110 OA
BRANCH   9  14
ATOM     14  C   LIG    1        4.030   4.085   0.764  0.00  0.00    +0.310 C 
BRANCH  14  15
ATOM     15  O   LIG    1        4.646   3.723   2.001  0.00  0.00    -0.560 OA
ATOM     16  H   LIG    1        5.267   4.383   2.340  0.00  0.00    +0.390 HD
ENDBRANCH  14  15
ENDBRANCH   9  14
ENDBRANCH   5  11
ENDBRANCH   4   7
ENDBRANCH   1   4
BRANCH   1  17
ATOM     17  C   LIG    1       -4.499   4.202   1.307  0.00  0.00    +0.170 C 
BRANCH  17  18
ATOM     18  O   LIG    1       -5.231   4.283   2.532  0.00  0.00    -0.300 OA
BRANCH  18  19
ATOM     19  C   LIG    1       -6.024   5.373   2.705  0.00  0.00    +0.180 A 
ATOM     20  C   LIG    1       -6.771   5.521   3.880  0.00  0.00    -0.140 A 
ATOM     21  C   LIG    1       -6.930   4.716   5.093  0.00  0.00    -0.030 A 
ATOM     22  C   LIG    1       -7.790   5.370   5.889  0.00  0.00    +0.210 A 
ATOM     23  N   LIG    1       -8.194   6.530   5.283  0.00  0.00    -0.590 N 
ATOM     24  H   LIG    1       -8.815   7.170   5.665  0.00  0.00    +0.420 HD
ATOM     25  C   LIG    1       -7.589   6.651   4.053  0.00  0.00    +0.130 A 
ATOM     26  C   LIG    1       -7.647   7.614   3.049  0.00  0.00    -0.050 A 
ATOM     27  C   LIG    1       -6.907   7.455   1.898  0.00  0.00    +0.070 A 
ATOM     28  C   LIG    1       -6.093   6.345   1.726  0.00  0.00    -0.120 A 
ENDBRANCH  18  19
ENDBRANCH  17  18
ENDBRANCH   1  17
TORSDOF 9
