REMARK  Name = ZINCrH000004vCmt.0
REMARK                            x       y       z     vdW  Elec       q    Type
REMARK                         _______ _______ _______ _____ _____    ______ ____
ROOT
ATOM      1  S   LIG    1       -5.639   0.838   0.552  0.00  0.00    +2.690 S 
ATOM      2  O   LIG    1       -5.264  -0.438   0.053  0.00  0.00    -0.940 OA
ATOM      3  O   LIG    1       -6.763   1.562   0.070  0.00  0.00    -0.940 OA
ENDROOT
BRANCH   1   8
ATOM      4  C   LIG    1       -1.885   2.171  -0.038  0.00  0.00    -0.150 A 
ATOM      5  C   LIG    1       -2.050   3.556  -0.003  0.00  0.00    +0.110 A 
ATOM      6  C   LIG    1       -3.306   4.094   0.190  0.00  0.00    +0.000 A 
ATOM      7  C   LIG    1       -4.398   3.263   0.360  0.00  0.00    +0.150 A 
ATOM      8  C   LIG    1       -4.240   1.888   0.333  0.00  0.00    -0.680 A 
ATOM      9  C   LIG    1       -2.991   1.338   0.135  0.00  0.00    +0.190 A 
BRANCH   4  11
ATOM     10  O   LIG    1       -0.212   0.586   0.353  0.00  0.00    -0.520 OA
ATOM     11  C   LIG    1       -0.543   1.588  -0.251  0.00  0.00    +0.580 C 
ATOM     12  N   LIG    1        0.312   2.164  -1.119  0.00  0.00    -0.620 N 
ATOM     13  C   LIG    1        0.001   3.296  -2.004  0.00  0.00    +0.230 C 
ATOM     14  C   LIG    1        1.271   3.595  -2.829  0.00  0.00    +0.040 C 
ATOM     15  C   LIG    1        2.042   2.250  -2.775  0.00  0.00    +0.040 C 
ATOM     16  C   LIG    1        1.712   1.760  -1.343  0.00  0.00    +0.250 C 
ENDBRANCH   4  11
ENDBRANCH   1   8
BRANCH   1  17
ATOM     17  N   LIG    1       -5.864   0.655   2.182  0.00  0.00    -1.050 N 
ATOM     18  H   LIG    1       -6.664   1.007   2.604  0.00  0.00    +0.430 HD
BRANCH  17  19
ATOM     19  C   LIG    1       -4.903  -0.005   2.950  0.00  0.00    +0.140 A 
ATOM     20  C   LIG    1       -4.374  -1.214   2.515  0.00  0.00    +0.050 A 
ATOM     21  C   LIG    1       -3.420  -1.862   3.275  0.00  0.00    +0.060 A 
ATOM     22  C   LIG    1       -2.999  -1.315   4.473  0.00  0.00    +0.070 A 
ATOM     23  C   LIG    1       -3.527  -0.114   4.912  0.00  0.00    -0.170 A 
ATOM     24  C   LIG    1       -4.477   0.542   4.154  0.00  0.00    +0.060 A 
BRANCH  23  25
ATOM     25  C   LIG    1       -3.064   0.479   6.218  0.00  0.00    +0.510 C 
ATOM     26  F   LIG    1       -3.149   1.874   6.152  0.00  0.00    -0.180 F 
ATOM     27  F   LIG    1       -1.738   0.103   6.457  0.00  0.00    -0.170 F 
ATOM     28  F   LIG    1       -3.877   0.011   7.256  0.00  0.00    -0.170 F 
ENDBRANCH  23  25
ENDBRANCH  17  19
ENDBRANCH   1  17
TORSDOF 5
