REMARK  Name = ZINCrD000000A7ci.0
REMARK                            x       y       z     vdW  Elec       q    Type
REMARK                         _______ _______ _______ _____ _____    ______ ____
ROOT
ATOM      1  C   LIG    1       -0.091   0.982   2.486  0.00  0.00    +0.530 C 
ATOM      2  N   LIG    1       -0.497   1.357   3.716  0.00  0.00    -0.610 N 
ATOM      3  C   LIG    1       -1.635   2.271   3.882  0.00  0.00    +0.260 C 
ATOM      4  C   LIG    1       -2.650   1.619   4.832  0.00  0.00    +0.020 C 
ATOM      5  C   LIG    1       -1.949   1.245   6.140  0.00  0.00    +0.030 C 
ATOM      6  C   LIG    1       -0.838   0.232   5.854  0.00  0.00    +0.030 C 
ATOM      7  C   LIG    1        0.194   0.863   4.915  0.00  0.00    +0.290 C 
ATOM      8  O   LIG    1        0.788   0.155   2.364  0.00  0.00    -0.530 OA
ENDROOT
BRANCH   1  15
ATOM      9  O   LIG    1        1.059   3.919  -1.271  0.00  0.00    -0.540 OA
ATOM     10  C   LIG    1        0.105   3.309  -1.705  0.00  0.00    +0.550 C 
ATOM     11  N   LIG    1       -0.340   2.209  -1.066  0.00  0.00    -0.610 N 
ATOM     12  C   LIG    1       -1.495   1.460  -1.579  0.00  0.00    +0.260 C 
ATOM     13  C   LIG    1       -2.527   1.316  -0.456  0.00  0.00    +0.020 C 
ATOM     14  C   LIG    1       -1.860   0.682   0.766  0.00  0.00    +0.040 C 
ATOM     15  C   LIG    1       -0.729   1.590   1.264  0.00  0.00    -0.020 C 
ATOM     16  C   LIG    1        0.321   1.737   0.158  0.00  0.00    +0.310 C 
BRANCH  10  17
ATOM     17  C   LIG    1       -0.584   3.781  -2.960  0.00  0.00    -0.070 C 
ATOM     18  C   LIG    1        0.185   3.659  -4.277  0.00  0.00    +0.060 C 
ATOM     19  C   LIG    1       -0.030   5.035  -3.641  0.00  0.00    +0.060 C 
ENDBRANCH  10  17
ENDBRANCH   1  15
BRANCH   6  20
ATOM     20  C   LIG    1       -0.169  -0.161   7.146  0.00  0.00    -0.060 A 
ATOM     21  C   LIG    1        0.451   0.800   7.922  0.00  0.00    +0.040 A 
ATOM     22  C   LIG    1        1.061   0.443   9.110  0.00  0.00    +0.030 A 
ATOM     23  C   LIG    1        1.060  -0.879   9.518  0.00  0.00    +0.070 A 
ATOM     24  C   LIG    1        0.442  -1.844   8.737  0.00  0.00    +0.070 A 
ATOM     25  F   LIG    1        0.440  -3.135   9.134  0.00  0.00    -0.130 F 
ATOM     26  F   LIG    1        1.661  -1.230  10.676  0.00  0.00    -0.130 F 
ATOM     27  C   LIG    1       -0.172  -1.483   7.551  0.00  0.00    +0.030 A 
ENDBRANCH   6  20
TORSDOF 3
