REMARK  Name = ZINCrD00000F5LDr.0
REMARK                            x       y       z     vdW  Elec       q    Type
REMARK                         _______ _______ _______ _____ _____    ______ ____
ROOT
ATOM      1  N   LIG    1       -0.648   0.360   2.044  0.00  0.00    -0.580 N 
ENDROOT
BRANCH   1   2
ATOM      2  C   LIG    1       -1.340   0.562   3.227  0.00  0.00    +0.450 A 
ATOM      3  C   LIG    1       -2.668   1.001   3.207  0.00  0.00    -0.080 A 
ATOM      4  C   LIG    1       -3.318   1.184   4.423  0.00  0.00    +0.160 A 
ATOM      5  N   LIG    1       -2.652   0.946   5.553  0.00  0.00    -0.540 NA
ATOM      6  C   LIG    1       -1.401   0.539   5.529  0.00  0.00    +0.390 A 
ATOM      7  N   LIG    1       -0.750   0.349   4.398  0.00  0.00    -0.550 NA
BRANCH   4   8
ATOM      8  C   LIG    1       -4.729   1.643   4.461  0.00  0.00    +0.580 C 
ATOM      9  O   LIG    1       -5.327   1.857   3.426  0.00  0.00    -0.520 OA
ATOM     10  N   LIG    1       -5.347   1.823   5.646  0.00  0.00    -0.830 N 
ATOM     11  H   LIG    1       -6.269   2.123   5.671  0.00  0.00    +0.410 HD
ATOM     12  H   LIG    1       -4.869   1.652   6.473  0.00  0.00    +0.410 HD
ENDBRANCH   4   8
BRANCH   6  13
ATOM     13  C   LIG    1       -0.690   0.284   6.832  0.00  0.00    +0.030 C 
ATOM     14  C   LIG    1       -1.528   0.316   8.112  0.00  0.00    +0.060 C 
ATOM     15  C   LIG    1       -0.556   1.458   7.805  0.00  0.00    +0.050 C 
ENDBRANCH   6  13
ENDBRANCH   1   2
BRANCH   1  16
ATOM     16  C   LIG    1        0.789   0.081   2.075  0.00  0.00    +0.330 C 
BRANCH  16  17
ATOM     17  C   LIG    1        1.559   1.391   2.252  0.00  0.00    -0.140 C 
ATOM     18  C   LIG    1        2.502   1.499   3.452  0.00  0.00    +0.030 C 
ATOM     19  C   LIG    1        1.184   2.275   3.443  0.00  0.00    +0.020 C 
BRANCH  17  20
ATOM     20  C   LIG    1        1.979   2.091   0.958  0.00  0.00    +0.070 C 
BRANCH  20  21
ATOM     21  C   LIG    1        2.845   1.144   0.124  0.00  0.00    +0.160 C 
BRANCH  21  23
ATOM     22  C   LIG    1        4.082   1.014  -1.925  0.00  0.00    +0.200 C 
ATOM     23  O   LIG    1        3.348   1.839  -1.018  0.00  0.00    -0.390 OA
ENDBRANCH  21  23
ENDBRANCH  20  21
ENDBRANCH  17  20
ENDBRANCH  16  17
ENDBRANCH   1  16
BRANCH   1  24
ATOM     24  C   LIG    1       -1.355   0.424   0.762  0.00  0.00    +0.390 C 
BRANCH  24  25
ATOM     25  C   LIG    1       -1.380   1.850   0.274  0.00  0.00    -0.220 A 
ATOM     26  C   LIG    1       -0.558   2.363  -0.643  0.00  0.00    +0.030 A 
ATOM     27  C   LIG    1       -0.771   3.700  -0.934  0.00  0.00    +0.000 A 
ATOM     28  C   LIG    1       -1.765   4.272  -0.253  0.00  0.00    -0.050 A 
ATOM     29  S   LIG    1       -2.503   3.089   0.819  0.00  0.00    +0.130 S 
ENDBRANCH  24  25
ENDBRANCH   1  24
TORSDOF 10
