REMARK  Name = ZINCkj000005lYQ0.1
REMARK                            x       y       z     vdW  Elec       q    Type
REMARK                         _______ _______ _______ _____ _____    ______ ____
ROOT
ATOM      1  O   LIG    1        1.005  -0.999  -1.888  0.00  0.00    -0.450 OA
ATOM      2  C   LIG    1       -0.023  -0.605  -1.380  0.00  0.00    +0.520 C 
ATOM      3  N   LIG    1       -1.188  -0.703  -2.051  0.00  0.00    -0.610 N 
ATOM      4  H   LIG    1       -2.010  -0.387  -1.644  0.00  0.00    +0.430 HD
ENDROOT
BRANCH   2   5
ATOM      5  C   LIG    1        0.002  -0.004   0.002  0.00  0.00    +0.200 C 
ATOM      6  N   LIG    1        1.361   0.114   0.577  0.00  0.00    -0.510 N 
ATOM      7  C   LIG    1        1.514   1.467  -0.004  0.00  0.00    +0.320 C 
ATOM      8  H   LIG    1        2.011  -0.554   0.191  0.00  0.00    +0.440 HD
ATOM      9  H   LIG    1        1.363   0.117   1.586  0.00  0.00    +0.450 HD
ATOM     10  C   LIG    1       -0.019   1.530   0.011  0.00  0.00    -0.090 C 
ATOM     11  C   LIG    1       -0.596   2.130   1.291  0.00  0.00    +0.050 C 
ATOM     12  C   LIG    1       -0.464   3.656   1.227  0.00  0.00    +0.230 C 
ATOM     13  O   LIG    1       -1.088   4.135   0.035  0.00  0.00    -0.370 OA
ATOM     14  C   LIG    1       -0.486   3.669  -1.175  0.00  0.00    +0.230 C 
ATOM     15  C   LIG    1       -0.620   2.143  -1.252  0.00  0.00    +0.040 C 
ENDBRANCH   2   5
BRANCH   3  16
ATOM     16  C   LIG    1       -1.211  -1.257  -3.325  0.00  0.00    +0.230 A 
ATOM     17  N   LIG    1       -0.178  -1.700  -3.957  0.00  0.00    -0.450 NA
ATOM     18  C   LIG    1       -0.368  -2.209  -5.178  0.00  0.00    +0.070 A 
ATOM     19  C   LIG    1       -1.645  -2.168  -5.574  0.00  0.00    -0.240 A 
ATOM     20  C   LIG    1       -1.800  -2.753  -6.965  0.00  0.00    +0.140 C 
ATOM     21  C   LIG    1       -0.506  -3.561  -7.200  0.00  0.00    +0.050 C 
ATOM     22  C   LIG    1        0.490  -2.832  -6.276  0.00  0.00    +0.140 C 
ATOM     23  S   LIG    1       -2.611  -1.443  -4.285  0.00  0.00    +0.190 S 
ENDBRANCH   3  16
TORSDOF 2
