REMARK  Name = ZINCrD00000hQ71b.0
REMARK                            x       y       z     vdW  Elec       q    Type
REMARK                         _______ _______ _______ _____ _____    ______ ____
ROOT
ATOM      1  C   LIG    1       -0.762   1.588  -1.233  0.00  0.00    +0.100 C 
ATOM      2  C   LIG    1       -0.023   1.079   0.007  0.00  0.00    +0.030 C 
ATOM      3  C   LIG    1       -0.737   1.574   1.267  0.00  0.00    +0.010 C 
ATOM      4  C   LIG    1       -0.720   3.106   1.290  0.00  0.00    +0.270 C 
ATOM      5  N   LIG    1       -1.298   3.603   0.034  0.00  0.00    -0.610 N 
ATOM      6  C   LIG    1       -2.316   4.487   0.049  0.00  0.00    +0.550 C 
ATOM      7  O   LIG    1       -2.724   4.962  -0.994  0.00  0.00    -0.530 OA
ATOM      8  C   LIG    1       -0.746   3.120  -1.239  0.00  0.00    +0.280 C 
ENDROOT
BRANCH   1  14
ATOM      9  C   LIG    1        0.369  -1.267  -5.192  0.00  0.00    +0.140 C 
ATOM     10  C   LIG    1        0.416  -0.152  -4.180  0.00  0.00    +0.000 A 
ATOM     11  C   LIG    1        1.295   0.867  -4.165  0.00  0.00    -0.020 A 
ATOM     12  N   LIG    1        0.983   1.644  -3.082  0.00  0.00    -0.560 N 
ATOM     13  H   LIG    1        1.438   2.454  -2.805  0.00  0.00    +0.420 HD
ATOM     14  C   LIG    1       -0.078   1.072  -2.473  0.00  0.00    +0.220 A 
ATOM     15  C   LIG    1        2.409   1.107  -5.152  0.00  0.00    +0.130 C 
ATOM     16  N   LIG    1       -0.408  -0.005  -3.132  0.00  0.00    -0.480 NA
ENDBRANCH   1  14
BRANCH   6  17
ATOM     17  C   LIG    1       -2.932   4.875   1.323  0.00  0.00    -0.010 C 
ATOM     18  C   LIG    1       -4.015   5.676   1.331  0.00  0.00    +0.120 C 
BRANCH  18  19
ATOM     19  C   LIG    1       -4.633   6.066   2.610  0.00  0.00    +0.120 A 
ATOM     20  N   LIG    1       -4.124   5.622   3.749  0.00  0.00    -0.420 NA
ATOM     21  C   LIG    1       -4.683   5.981   4.906  0.00  0.00    +0.080 A 
ATOM     22  C   LIG    1       -4.162   5.530   6.133  0.00  0.00    +0.060 A 
ATOM     23  C   LIG    1       -4.756   5.907   7.298  0.00  0.00    +0.040 A 
ATOM     24  C   LIG    1       -5.877   6.735   7.296  0.00  0.00    +0.050 A 
ATOM     25  C   LIG    1       -6.409   7.192   6.128  0.00  0.00    +0.060 A 
ATOM     26  C   LIG    1       -5.825   6.825   4.905  0.00  0.00    +0.080 A 
ATOM     27  N   LIG    1       -6.329   7.260   3.743  0.00  0.00    -0.420 NA
ATOM     28  C   LIG    1       -5.766   6.904   2.614  0.00  0.00    +0.280 A 
ENDBRANCH  18  19
ENDBRANCH   6  17
TORSDOF 3
