REMARK  Name = ZINCpk00000xMGfQ.0
REMARK                            x       y       z     vdW  Elec       q    Type
REMARK                         _______ _______ _______ _____ _____    ______ ____
ROOT
ATOM      1  C   LIG    1        0.438   5.415   0.644  0.00  0.00    +0.560 C 
ATOM      2  N   LIG    1        1.429   6.289   0.380  0.00  0.00    -0.600 N 
ATOM      3  C   LIG    1        2.828   5.843   0.331  0.00  0.00    +0.260 C 
ATOM      4  C   LIG    1        3.660   6.712   1.272  0.00  0.00    +0.010 C 
ATOM      5  C   LIG    1        3.458   8.187   0.915  0.00  0.00    +0.020 C 
ATOM      6  C   LIG    1        1.983   8.557   1.089  0.00  0.00    +0.020 C 
ATOM      7  C   LIG    1        1.131   7.708   0.140  0.00  0.00    +0.230 C 
ATOM      8  O   LIG    1       -0.720   5.785   0.627  0.00  0.00    -0.520 OA
ENDROOT
BRANCH   1  13
ATOM      9  C   LIG    1        0.708   2.140   2.471  0.00  0.00    +0.130 A 
ATOM     10  C   LIG    1        1.366   1.361   1.529  0.00  0.00    -0.060 A 
ATOM     11  C   LIG    1        1.714   1.898   0.303  0.00  0.00    +0.050 A 
ATOM     12  C   LIG    1        1.416   3.212   0.011  0.00  0.00    +0.000 A 
ATOM     13  C   LIG    1        0.759   4.005   0.954  0.00  0.00    -0.080 A 
ATOM     14  C   LIG    1        0.408   3.463   2.190  0.00  0.00    +0.040 A 
BRANCH   9  15
ATOM     15  O   LIG    1        0.362   1.606   3.672  0.00  0.00    -0.290 OA
BRANCH  15  16
ATOM     16  C   LIG    1        0.708   0.238   3.897  0.00  0.00    +0.240 C 
BRANCH  16  20
ATOM     17  N   LIG    1        0.469  -1.433   5.705  0.00  0.00    -0.850 N 
ATOM     18  H   LIG    1        0.174  -1.700   6.590  0.00  0.00    +0.410 HD
ATOM     19  H   LIG    1        0.922  -2.072   5.132  0.00  0.00    +0.400 HD
ATOM     20  C   LIG    1        0.249  -0.176   5.272  0.00  0.00    +0.520 C 
ATOM     21  O   LIG    1       -0.318   0.622   5.988  0.00  0.00    -0.520 OA
ENDBRANCH  16  20
ENDBRANCH  15  16
ENDBRANCH   9  15
ENDBRANCH   1  13
BRANCH   7  22
ATOM     22  C   LIG    1       -0.352   7.973   0.407  0.00  0.00    +0.340 C 
BRANCH  22  23
ATOM     23  N   LIG    1       -1.137   7.578  -0.766  0.00  0.00    -0.360 N 
ATOM     24  C   LIG    1       -2.232   6.789  -0.759  0.00  0.00    +0.280 A 
ATOM     25  C   LIG    1       -2.661   6.669  -2.037  0.00  0.00    -0.160 A 
ATOM     26  C   LIG    1       -1.794   7.401  -2.853  0.00  0.00    +0.220 A 
ATOM     27  N   LIG    1       -0.879   7.947  -2.092  0.00  0.00    -0.320 NA
ENDBRANCH  22  23
ENDBRANCH   7  22
TORSDOF 6
