REMARK  Name = ZINCpk000000oeSC.0
REMARK                            x       y       z     vdW  Elec       q    Type
REMARK                         _______ _______ _______ _____ _____    ______ ____
ROOT
ATOM      1  C   LIG    1       -1.207   4.031   3.830  0.00  0.00    +0.390 C 
ENDROOT
BRANCH   1   5
ATOM      2  N   LIG    1       -0.677   1.590   1.197  0.00  0.00    -0.570 N 
ATOM      3  C   LIG    1       -1.679   0.946   1.835  0.00  0.00    +0.510 C 
ATOM      4  C   LIG    1       -2.047   1.826   2.991  0.00  0.00    +0.510 C 
ATOM      5  N   LIG    1       -1.223   2.893   2.908  0.00  0.00    -0.560 N 
ATOM      6  O   LIG    1       -2.905   1.624   3.825  0.00  0.00    -0.400 OA
ATOM      7  O   LIG    1       -2.176  -0.119   1.534  0.00  0.00    -0.400 OA
ATOM      8  C   LIG    1       -0.415   2.736   1.847  0.00  0.00    +0.720 C 
ATOM      9  O   LIG    1        0.441   3.531   1.514  0.00  0.00    -0.480 OA
BRANCH   2  10
ATOM     10  C   LIG    1        0.014   1.114  -0.003  0.00  0.00    +0.330 C 
BRANCH  10  11
ATOM     11  C   LIG    1       -0.710   1.631  -1.248  0.00  0.00    +0.000 C 
BRANCH  11  13
ATOM     12  C   LIG    1       -0.711   1.650  -3.746  0.00  0.00    +0.030 C 
ATOM     13  C   LIG    1        0.013   1.133  -2.502  0.00  0.00    +0.020 C 
ENDBRANCH  11  13
ENDBRANCH  10  11
ENDBRANCH   2  10
ENDBRANCH   1   5
BRANCH   1  14
ATOM     14  C   LIG    1       -0.250   3.750   4.960  0.00  0.00    +0.500 C 
ATOM     15  N   LIG    1       -0.071   4.664   5.934  0.00  0.00    -0.660 N 
ATOM     16  H   LIG    1       -0.507   5.528   5.875  0.00  0.00    +0.420 HD
ATOM     17  O   LIG    1        0.358   2.701   4.992  0.00  0.00    -0.510 OA
BRANCH  15  18
ATOM     18  C   LIG    1        0.739   4.367   7.026  0.00  0.00    +0.210 A 
ATOM     19  C   LIG    1        1.872   3.583   6.861  0.00  0.00    +0.010 A 
ATOM     20  C   LIG    1        2.674   3.289   7.946  0.00  0.00    +0.070 A 
ATOM     21  C   LIG    1        2.358   3.772   9.206  0.00  0.00    -0.020 A 
ATOM     22  C   LIG    1        1.238   4.551   9.391  0.00  0.00    +0.090 A 
ATOM     23  C   LIG    1        0.417   4.864   8.301  0.00  0.00    -0.200 A 
BRANCH  23  24
ATOM     24  C   LIG    1       -0.775   5.699   8.489  0.00  0.00    +0.400 C 
ATOM     25  O   LIG    1       -1.539   5.883   7.565  0.00  0.00    -0.470 OA
ATOM     26  C   LIG    1       -1.049   6.330   9.830  0.00  0.00    +0.090 C 
ENDBRANCH  23  24
ENDBRANCH  15  18
ENDBRANCH   1  14
TORSDOF 7
