REMARK  Name = ZINC650000002pbR.0
REMARK                            x       y       z     vdW  Elec       q    Type
REMARK                         _______ _______ _______ _____ _____    ______ ____
ROOT
ATOM      1  C   LIG    1       -2.927   1.432   0.181  0.00  0.00    +0.100 C 
ATOM      2  C   LIG    1       -2.207   0.938  -1.076  0.00  0.00    +0.060 C 
ATOM      3  C   LIG    1       -2.984   1.383  -2.316  0.00  0.00    +0.100 C 
ENDROOT
BRANCH   2   4
ATOM      4  N   LIG    1       -2.125  -0.528  -1.048  0.00  0.00    -0.640 N 
ATOM      5  H   LIG    1       -1.651  -0.854  -1.877  0.00  0.00    +0.430 HD
ATOM      6  H   LIG    1       -3.056  -0.917  -1.019  0.00  0.00    +0.440 HD
ATOM      7  H   LIG    1       -1.613  -0.822  -0.230  0.00  0.00    +0.430 HD
ENDBRANCH   2   4
BRANCH   2   8
ATOM      8  C   LIG    1       -0.795   1.527  -1.120  0.00  0.00    +0.220 C 
BRANCH   8   9
ATOM      9  N   LIG    1       -0.012   1.005   0.008  0.00  0.00    -0.850 NA
ATOM     10  H   LIG    1        0.925   1.379   0.001  0.00  0.00    +0.370 HD
ATOM     11  H   LIG    1        0.002  -0.004   0.002  0.00  0.00    +0.330 HD
ENDBRANCH   8   9
ENDBRANCH   2   8
TORSDOF 3
