REMARK  Name = ZINC650000002pbR.1
REMARK                            x       y       z     vdW  Elec       q    Type
REMARK                         _______ _______ _______ _____ _____    ______ ____
ROOT
ATOM      1  C   LIG    1       -0.013   1.086   0.008  0.00  0.00    +0.150 C 
ATOM      2  C   LIG    1       -0.729   1.579   1.267  0.00  0.00    +0.040 C 
ATOM      3  C   LIG    1       -0.750   3.109   1.275  0.00  0.00    +0.130 C 
ENDROOT
BRANCH   2   4
ATOM      4  N   LIG    1       -0.018   1.093   2.457  0.00  0.00    -0.650 N 
ATOM      5  H   LIG    1       -0.005   0.084   2.451  0.00  0.00    +0.450 HD
ATOM      6  H   LIG    1       -0.491   1.418   3.287  0.00  0.00    +0.420 HD
ATOM      7  H   LIG    1        0.928   1.442   2.450  0.00  0.00    +0.460 HD
ENDBRANCH   2   4
BRANCH   2   8
ATOM      8  C   LIG    1       -2.164   1.050   1.278  0.00  0.00    +0.320 C 
BRANCH   8   9
ATOM      9  N   LIG    1       -2.852   1.523   2.486  0.00  0.00    -0.650 N 
ATOM     10  H   LIG    1       -3.798   1.174   2.494  0.00  0.00    +0.460 HD
ATOM     11  H   LIG    1       -2.865   2.532   2.492  0.00  0.00    +0.450 HD
ATOM     12  H   LIG    1       -2.364   1.189   3.304  0.00  0.00    +0.430 HD
ENDBRANCH   8   9
ENDBRANCH   2   8
TORSDOF 3
