REMARK  Name = ZINCrm000000FGZl.0
REMARK                            x       y       z     vdW  Elec       q    Type
REMARK                         _______ _______ _______ _____ _____    ______ ____
ROOT
ATOM      1  N   LIG    1       -1.140   1.411   5.944  0.00  0.00    -0.730 N 
ATOM      2  H   LIG    1       -1.879   2.030   5.839  0.00  0.00    +0.410 HD
ATOM      3  C   LIG    1       -0.478   0.961   4.860  0.00  0.00    +0.710 C 
ATOM      4  N   LIG    1       -0.843   1.371   3.629  0.00  0.00    -0.740 N 
ATOM      5  H   LIG    1       -1.582   1.990   3.524  0.00  0.00    +0.410 HD
ATOM      6  O   LIG    1        0.448   0.184   4.993  0.00  0.00    -0.570 OA
ENDROOT
BRANCH   1  10
ATOM      7  C   LIG    1       -1.820   3.006   9.941  0.00  0.00    +0.100 C 
ATOM      8  C   LIG    1       -1.266   1.626   9.584  0.00  0.00    +0.060 C 
ATOM      9  C   LIG    1       -1.914   1.122   8.280  0.00  0.00    +0.090 C 
ATOM     10  C   LIG    1       -0.744   0.965   7.282  0.00  0.00    +0.280 C 
ATOM     11  C   LIG    1        0.346   1.897   7.870  0.00  0.00    +0.250 C 
ATOM     12  C   LIG    1       -1.543   0.638  10.719  0.00  0.00    +0.100 C 
ATOM     13  N   LIG    1        0.190   1.716   9.338  0.00  0.00    -0.390 N 
ATOM     14  H   LIG    1        0.645   0.865   9.631  0.00  0.00    +0.430 HD
BRANCH  13  15
ATOM     15  C   LIG    1        0.754   2.866  10.056  0.00  0.00    +0.320 C 
BRANCH  15  16
ATOM     16  C   LIG    1        2.211   3.016   9.698  0.00  0.00    -0.160 A 
ATOM     17  C   LIG    1        3.177   2.374  10.450  0.00  0.00    +0.040 A 
ATOM     18  C   LIG    1        4.512   2.507  10.119  0.00  0.00    +0.030 A 
ATOM     19  C   LIG    1        4.882   3.291   9.042  0.00  0.00    +0.060 A 
ATOM     20  C   LIG    1        3.917   3.938   8.294  0.00  0.00    +0.020 A 
ATOM     21  C   LIG    1        2.581   3.800   8.622  0.00  0.00    +0.020 A 
ENDBRANCH  15  16
ENDBRANCH  13  15
ENDBRANCH   1  10
BRANCH   4  22
ATOM     22  C   LIG    1       -0.124   0.881   2.451  0.00  0.00    +0.290 C 
BRANCH  22  23
ATOM     23  C   LIG    1       -0.733   1.496   1.189  0.00  0.00    +0.260 C 
BRANCH  23  24
ATOM     24  N   LIG    1       -0.012   1.005   0.008  0.00  0.00    -0.390 N 
ATOM     25  C   LIG    1        1.370   1.534  -0.003  0.00  0.00    +0.260 C 
ATOM     26  C   LIG    1        1.743   1.793  -1.474  0.00  0.00    +0.080 C 
ATOM     27  C   LIG    1        0.483   1.409  -2.284  0.00  0.00    +0.010 C 
ATOM     28  C   LIG    1       -0.650   1.515  -1.233  0.00  0.00    +0.280 C 
ATOM     29  H   LIG    1        0.002  -0.004   0.002  0.00  0.00    +0.430 HD
BRANCH  27  30
ATOM     30  C   LIG    1        0.254   2.398  -3.429  0.00  0.00    +0.200 C 
BRANCH  30  31
ATOM     31  O   LIG    1        1.313   2.279  -4.381  0.00  0.00    -0.570 OA
ATOM     32  H   LIG    1        1.232   2.878  -5.136  0.00  0.00    +0.400 HD
ENDBRANCH  30  31
ENDBRANCH  27  30
ENDBRANCH  23  24
ENDBRANCH  22  23
ENDBRANCH   4  22
TORSDOF 8
