REMARK  Name = ZINCrm000000FGZl.1
REMARK                            x       y       z     vdW  Elec       q    Type
REMARK                         _______ _______ _______ _____ _____    ______ ____
ROOT
ATOM      1  N   LIG    1       -4.044   5.202   2.908  0.00  0.00    -0.730 N 
ATOM      2  H   LIG    1       -3.678   6.075   2.699  0.00  0.00    +0.410 HD
ATOM      3  C   LIG    1       -5.345   5.078   3.240  0.00  0.00    +0.710 C 
ATOM      4  N   LIG    1       -6.136   6.168   3.281  0.00  0.00    -0.740 N 
ATOM      5  H   LIG    1       -5.770   7.042   3.073  0.00  0.00    +0.410 HD
ATOM      6  O   LIG    1       -5.803   3.983   3.502  0.00  0.00    -0.570 OA
ENDROOT
BRANCH   1  10
ATOM      7  C   LIG    1        0.087   2.659   2.719  0.00  0.00    +0.100 C 
ATOM      8  C   LIG    1       -0.961   3.488   1.974  0.00  0.00    +0.060 C 
ATOM      9  C   LIG    1       -1.694   4.419   2.959  0.00  0.00    +0.090 C 
ATOM     10  C   LIG    1       -3.184   4.017   2.863  0.00  0.00    +0.280 C 
ATOM     11  C   LIG    1       -3.268   3.331   1.476  0.00  0.00    +0.250 C 
ATOM     12  C   LIG    1       -0.292   4.316   0.875  0.00  0.00    +0.100 C 
ATOM     13  N   LIG    1       -1.981   2.595   1.382  0.00  0.00    -0.390 N 
ATOM     14  H   LIG    1       -2.034   1.733   1.903  0.00  0.00    +0.430 HD
BRANCH  13  15
ATOM     15  C   LIG    1       -1.658   2.319  -0.024  0.00  0.00    +0.330 C 
BRANCH  15  16
ATOM     16  C   LIG    1       -2.696   1.395  -0.606  0.00  0.00    -0.160 A 
ATOM     17  C   LIG    1       -2.575   0.028  -0.443  0.00  0.00    +0.030 A 
ATOM     18  C   LIG    1       -3.524  -0.820  -0.982  0.00  0.00    +0.030 A 
ATOM     19  C   LIG    1       -4.596  -0.300  -1.684  0.00  0.00    +0.060 A 
ATOM     20  C   LIG    1       -4.717   1.067  -1.848  0.00  0.00    +0.020 A 
ATOM     21  C   LIG    1       -3.768   1.915  -1.309  0.00  0.00    +0.040 A 
ENDBRANCH  15  16
ENDBRANCH  13  15
ENDBRANCH   1  10
BRANCH   4  22
ATOM     22  C   LIG    1       -7.550   6.033   3.642  0.00  0.00    +0.290 C 
BRANCH  22  23
ATOM     23  C   LIG    1       -8.217   7.410   3.614  0.00  0.00    +0.260 C 
BRANCH  23  24
ATOM     24  N   LIG    1       -9.634   7.275   3.976  0.00  0.00    -0.390 N 
ATOM     25  C   LIG    1       -9.763   6.874   5.400  0.00  0.00    +0.270 C 
ATOM     26  C   LIG    1      -11.203   7.319   5.764  0.00  0.00    +0.080 C 
ATOM     27  C   LIG    1      -11.361   8.648   4.990  0.00  0.00    +0.010 C 
ATOM     28  C   LIG    1      -10.317   8.582   3.860  0.00  0.00    +0.280 C 
ATOM     29  H   LIG    1      -10.082   6.594   3.381  0.00  0.00    +0.430 HD
BRANCH  27  30
ATOM     30  C   LIG    1      -12.770   8.757   4.406  0.00  0.00    +0.190 C 
BRANCH  30  31
ATOM     31  O   LIG    1      -13.713   8.934   5.465  0.00  0.00    -0.570 OA
ATOM     32  H   LIG    1      -14.630   9.011   5.167  0.00  0.00    +0.400 HD
ENDBRANCH  30  31
ENDBRANCH  27  30
ENDBRANCH  23  24
ENDBRANCH  22  23
ENDBRANCH   4  22
TORSDOF 8
