REMARK  Name = ZINCvU0000000GAn.0
REMARK                            x       y       z     vdW  Elec       q    Type
REMARK                         _______ _______ _______ _____ _____    ______ ____
ROOT
ATOM      1  N   LIG    1        1.314  -0.394   0.034  0.00  0.00    -0.410 N 
ATOM      2  C   LIG    1        0.002  -0.006   0.040  0.00  0.00    +0.150 A 
ATOM      3  N   LIG    1       -0.015   1.308   0.051  0.00  0.00    -0.290 NA
ATOM      4  N   LIG    1        1.185   1.766   0.052  0.00  0.00    -0.260 NA
ATOM      5  C   LIG    1        2.045   0.774   0.042  0.00  0.00    +0.240 A 
ENDROOT
BRANCH   1  12
ATOM      6  C   LIG    1        1.796  -1.673   2.531  0.00  0.00    +0.100 C 
ATOM      7  C   LIG    1        2.060  -2.365   1.218  0.00  0.00    -0.060 A 
ATOM      8  C   LIG    1        2.549  -3.656   1.204  0.00  0.00    +0.030 A 
ATOM      9  C   LIG    1        2.791  -4.292   0.000  0.00  0.00    +0.050 A 
ATOM     10  C   LIG    1        2.544  -3.637  -1.192  0.00  0.00    +0.030 A 
ATOM     11  C   LIG    1        2.050  -2.347  -1.184  0.00  0.00    +0.040 A 
ATOM     12  C   LIG    1        1.811  -1.704   0.022  0.00  0.00    +0.080 A 
ENDBRANCH   1  12
BRANCH   5  13
ATOM     13  C   LIG    1        3.519   0.889   0.039  0.00  0.00    -0.080 A 
ATOM     14  C   LIG    1        4.138   2.107  -0.264  0.00  0.00    +0.120 A 
ATOM     15  C   LIG    1        5.520   2.161  -0.253  0.00  0.00    -0.020 A 
ATOM     16  C   LIG    1        6.240   1.021   0.055  0.00  0.00    +0.270 A 
ATOM     17  N   LIG    1        5.630  -0.115   0.336  0.00  0.00    -0.480 NA
ATOM     18  C   LIG    1        4.317  -0.215   0.344  0.00  0.00    +0.280 A 
ENDBRANCH   5  13
BRANCH   2  19
ATOM     19  S   LIG    1       -1.402  -1.071   0.035  0.00  0.00    +0.100 S 
BRANCH  19  20
ATOM     20  C   LIG    1       -2.729   0.160   0.047  0.00  0.00    +0.100 C 
BRANCH  20  21
ATOM     21  C   LIG    1       -4.064  -0.540   0.045  0.00  0.00    +0.540 C 
ATOM     22  N   LIG    1       -5.203   0.181   0.053  0.00  0.00    -0.660 N 
ATOM     23  H   LIG    1       -5.165   1.147   0.126  0.00  0.00    +0.420 HD
ATOM     24  O   LIG    1       -4.113  -1.752   0.036  0.00  0.00    -0.500 OA
BRANCH  22  25
ATOM     25  C   LIG    1       -6.441  -0.466  -0.044  0.00  0.00    +0.140 A 
ATOM     26  C   LIG    1       -6.623  -1.711   0.543  0.00  0.00    +0.080 A 
ATOM     27  C   LIG    1       -7.848  -2.344   0.452  0.00  0.00    +0.020 A 
ATOM     28  C   LIG    1       -8.890  -1.744  -0.235  0.00  0.00    +0.100 A 
ATOM     29  C   LIG    1       -8.709  -0.505  -0.827  0.00  0.00    +0.020 A 
ATOM     30  F   LIG    1      -10.084  -2.369  -0.328  0.00  0.00    -0.130 F 
ATOM     31  C   LIG    1       -7.488   0.135  -0.733  0.00  0.00    -0.030 A 
ATOM     32 CL   LIG    1       -7.262   1.688  -1.474  0.00  0.00    -0.050 Cl
ENDBRANCH  22  25
ENDBRANCH  20  21
ENDBRANCH  19  20
ENDBRANCH   2  19
TORSDOF 6
