REMARK  Name = ZINCnE000001RcAm.0
REMARK                            x       y       z     vdW  Elec       q    Type
REMARK                         _______ _______ _______ _____ _____    ______ ____
ROOT
ATOM      1  C   LIG    1        0.837   5.931   0.146  0.00  0.00    +0.600 C 
ATOM      2  N   LIG    1       -0.195   5.067   0.097  0.00  0.00    -0.540 N 
ATOM      3  C   LIG    1       -1.610   5.445   0.141  0.00  0.00    +0.290 C 
ATOM      4  C   LIG    1       -2.385   4.120   0.056  0.00  0.00    +0.070 C 
ATOM      5  C   LIG    1       -1.312   3.057  -0.031  0.00  0.00    -0.110 A 
ATOM      6  C   LIG    1       -1.405   1.683  -0.133  0.00  0.00    +0.050 A 
ATOM      7  C   LIG    1       -0.259   0.912  -0.194  0.00  0.00    -0.020 A 
ATOM      8  C   LIG    1        0.982   1.521  -0.166  0.00  0.00    +0.020 A 
ATOM      9  C   LIG    1        1.079   2.893  -0.071  0.00  0.00    -0.020 A 
ATOM     10  C   LIG    1       -0.073   3.678  -0.002  0.00  0.00    +0.140 A 
ATOM     11  O   LIG    1        0.626   7.126   0.233  0.00  0.00    -0.510 OA
ENDROOT
BRANCH   1  15
ATOM     12  C   LIG    1        5.432   4.164   1.484  0.00  0.00    +0.180 C 
ATOM     13  C   LIG    1        4.240   4.652   0.703  0.00  0.00    -0.020 A 
ATOM     14  C   LIG    1        3.070   5.044   1.231  0.00  0.00    -0.140 A 
ATOM     15  C   LIG    1        2.222   5.429   0.094  0.00  0.00    -0.220 A 
ATOM     16  C   LIG    1        2.982   5.219  -1.019  0.00  0.00    +0.040 A 
ATOM     17  C   LIG    1        2.548   5.463  -2.441  0.00  0.00    +0.180 C 
ATOM     18  C   LIG    1        2.702   5.081   2.692  0.00  0.00    +0.120 C 
ATOM     19  O   LIG    1        4.178   4.763  -0.633  0.00  0.00    -0.170 OA
ENDBRANCH   1  15
BRANCH   4  20
ATOM     20  C   LIG    1       -3.235   3.918   1.312  0.00  0.00    -0.040 C 
BRANCH  20  21
ATOM     21  C   LIG    1       -4.380   4.898   1.307  0.00  0.00    +0.490 C 
ATOM     22  O   LIG    1       -5.121   4.975   2.272  0.00  0.00    -0.700 OA
ATOM     23  O   LIG    1       -4.564   5.614   0.338  0.00  0.00    -0.690 OA
ENDBRANCH  20  21
ENDBRANCH   4  20
TORSDOF 3
