REMARK  Name = ZINCpe00000MJLI1.0
REMARK                            x       y       z     vdW  Elec       q    Type
REMARK                         _______ _______ _______ _____ _____    ______ ____
ROOT
ATOM      1  C   LIG    1       -4.681   2.414  -0.206  0.00  0.00    +0.560 C 
ATOM      2  N   LIG    1       -3.952   2.115   0.888  0.00  0.00    -0.710 N 
ATOM      3  H   LIG    1       -3.845   2.772   1.594  0.00  0.00    +0.400 HD
ATOM      4  O   LIG    1       -4.815   1.591  -1.091  0.00  0.00    -0.510 OA
ENDROOT
BRANCH   1  10
ATOM      5  C   LIG    1       -5.811   6.855   1.762  0.00  0.00    +0.110 C 
ATOM      6  C   LIG    1       -5.864   5.881   0.613  0.00  0.00    -0.080 A 
ATOM      7  C   LIG    1       -6.511   6.233  -0.559  0.00  0.00    +0.060 A 
ATOM      8  C   LIG    1       -6.567   5.349  -1.620  0.00  0.00    +0.030 A 
ATOM      9  C   LIG    1       -5.973   4.100  -1.515  0.00  0.00    +0.160 A 
ATOM     10  C   LIG    1       -5.317   3.740  -0.329  0.00  0.00    -0.130 A 
ATOM     11  C   LIG    1       -5.273   4.641   0.736  0.00  0.00    +0.070 A 
BRANCH   9  12
ATOM     12  N   LIG    1       -6.029   3.204  -2.586  0.00  0.00    -0.440 N 
ATOM     13  C   LIG    1       -4.975   2.664  -3.263  0.00  0.00    +0.420 A 
ATOM     14  N   LIG    1       -5.468   1.880  -4.182  0.00  0.00    -0.300 NA
ATOM     15  N   LIG    1       -6.752   1.900  -4.132  0.00  0.00    -0.290 NA
ATOM     16  C   LIG    1       -7.148   2.693  -3.175  0.00  0.00    +0.380 A 
ENDBRANCH   9  12
ENDBRANCH   1  10
BRANCH   2  17
ATOM     17  C   LIG    1       -3.321   0.799   1.010  0.00  0.00    +0.250 C 
ATOM     18  C   LIG    1       -1.804   0.817   0.760  0.00  0.00    +0.030 C 
ATOM     19  C   LIG    1       -1.679  -0.179   1.925  0.00  0.00    +0.180 C 
ATOM     20  C   LIG    1       -2.997   0.402   2.463  0.00  0.00    +0.270 C 
BRANCH  20  21
ATOM     21  N   LIG    1       -3.903  -0.609   3.014  0.00  0.00    -0.370 N 
ATOM     22  C   LIG    1       -3.817  -1.942   2.820  0.00  0.00    +0.220 A 
ATOM     23  C   LIG    1       -4.836  -2.523   3.494  0.00  0.00    -0.120 A 
ATOM     24  C   LIG    1       -5.570  -1.511   4.121  0.00  0.00    +0.240 A 
ATOM     25  N   LIG    1       -5.008  -0.364   3.838  0.00  0.00    -0.290 NA
ENDBRANCH  20  21
BRANCH  19  26
ATOM     26  O   LIG    1       -0.556   0.069   2.773  0.00  0.00    -0.550 OA
ATOM     27  H   LIG    1        0.280  -0.274   2.428  0.00  0.00    +0.390 HD
ENDBRANCH  19  26
ENDBRANCH   2  17
TORSDOF 5
