REMARK  Name = ZINCrH00000tj1pK.0
REMARK                            x       y       z     vdW  Elec       q    Type
REMARK                         _______ _______ _______ _____ _____    ______ ____
ROOT
ATOM      1  N   LIG    1       -0.659  -0.048  -0.349  0.00  0.00    -0.630 N 
ATOM      2  C   LIG    1        0.398  -0.327  -1.137  0.00  0.00    +0.580 C 
ATOM      3  O   LIG    1        0.998   0.574  -1.691  0.00  0.00    -0.470 OA
ENDROOT
BRANCH   1   4
ATOM      4  C   LIG    1       -0.788  -0.693   0.960  0.00  0.00    +0.280 C 
ATOM      5  C   LIG    1       -1.544  -2.025   0.808  0.00  0.00    +0.060 C 
ATOM      6  C   LIG    1       -1.357  -2.796   2.139  0.00  0.00    -0.290 C 
ATOM      7  S   LIG    1        0.416  -2.519   2.511  0.00  0.00    +2.380 S 
ATOM      8  O   LIG    1        0.570  -2.219   3.892  0.00  0.00    -0.930 OA
ATOM      9  O   LIG    1        1.189  -3.556   1.923  0.00  0.00    -0.920 OA
ATOM     10  C   LIG    1        0.613  -0.986   1.532  0.00  0.00    -0.340 C 
ENDBRANCH   1   4
BRANCH   2  11
ATOM     11  C   LIG    1        0.828  -1.727  -1.329  0.00  0.00    -0.180 A 
ATOM     12  C   LIG    1        0.657  -2.659  -0.304  0.00  0.00    +0.020 A 
ATOM     13  C   LIG    1        1.060  -3.965  -0.488  0.00  0.00    +0.060 A 
ATOM     14  C   LIG    1        1.635  -4.354  -1.687  0.00  0.00    +0.070 A 
ATOM     15  C   LIG    1        1.808  -3.438  -2.707  0.00  0.00    -0.010 A 
ATOM     16  C   LIG    1        1.403  -2.127  -2.539  0.00  0.00    +0.150 A 
ATOM     17  F   LIG    1        1.567  -1.233  -3.539  0.00  0.00    -0.120 F 
ENDBRANCH   2  11
BRANCH   1  18
ATOM     18  C   LIG    1       -1.681   0.900  -0.802  0.00  0.00    +0.350 C 
BRANCH  18  22
ATOM     19  C   LIG    1       -0.617   4.843   0.449  0.00  0.00    -0.070 A 
ATOM     20  C   LIG    1       -0.186   4.367  -0.775  0.00  0.00    +0.000 A 
ATOM     21  C   LIG    1       -0.530   3.091  -1.180  0.00  0.00    +0.040 A 
ATOM     22  C   LIG    1       -1.305   2.291  -0.361  0.00  0.00    -0.120 A 
ATOM     23  C   LIG    1       -1.740   2.770   0.861  0.00  0.00    +0.010 A 
ATOM     24  C   LIG    1       -1.392   4.044   1.268  0.00  0.00    +0.000 A 
BRANCH  19  26
ATOM     25  C   LIG    1       -1.509   7.059   1.116  0.00  0.00    +0.040 C 
ATOM     26  C   LIG    1       -0.240   6.234   0.890  0.00  0.00    +0.020 C 
ATOM     27  C   LIG    1        0.557   6.157   2.194  0.00  0.00    +0.040 C 
ENDBRANCH  19  26
ENDBRANCH  18  22
ENDBRANCH   1  18
TORSDOF 5
