REMARK  Name = ZINCqH0000004L50.0
REMARK                            x       y       z     vdW  Elec       q    Type
REMARK                         _______ _______ _______ _____ _____    ______ ____
ROOT
ATOM      1  C   LIG    1        3.061   7.508  -0.287  0.00  0.00    +0.060 A 
ATOM      2  C   LIG    1        1.707   7.521  -0.218  0.00  0.00    -0.030 A 
ATOM      3  C   LIG    1        1.270   6.199  -0.102  0.00  0.00    +0.030 A 
ATOM      4  C   LIG    1        2.396   5.399  -0.103  0.00  0.00    -0.070 A 
ATOM      5  N   LIG    1        3.492   6.225  -0.213  0.00  0.00    -0.400 N 
ATOM      6  C   LIG    1        4.890   5.790  -0.247  0.00  0.00    +0.330 C 
ENDROOT
BRANCH   4   7
ATOM      7  C   LIG    1        2.420   3.938   0.000  0.00  0.00    +0.470 C 
ATOM      8  O   LIG    1        3.482   3.353   0.105  0.00  0.00    -0.470 OA
BRANCH   7   9
ATOM      9  C   LIG    1        1.154   3.174  -0.024  0.00  0.00    -0.150 A 
ATOM     10  C   LIG    1        0.043   3.680  -0.700  0.00  0.00    +0.060 A 
ATOM     11  C   LIG    1       -1.135   2.962  -0.719  0.00  0.00    +0.000 A 
ATOM     12  C   LIG    1       -1.218   1.746  -0.066  0.00  0.00    -0.060 A 
ATOM     13  C   LIG    1       -0.118   1.236   0.602  0.00  0.00    +0.000 A 
ATOM     14  C   LIG    1       -2.510   0.970  -0.086  0.00  0.00    +0.100 C 
ATOM     15  C   LIG    1        1.065   1.943   0.629  0.00  0.00    +0.070 A 
ENDBRANCH   7   9
ENDBRANCH   4   7
BRANCH   1  16
ATOM     16  C   LIG    1        3.943   8.723  -0.418  0.00  0.00    +0.170 C 
BRANCH  16  19
ATOM     17  N   LIG    1        4.981  10.398   1.077  0.00  0.00    -0.620 N 
ATOM     18  H   LIG    1        5.364  10.816   0.290  0.00  0.00    +0.420 HD
ATOM     19  C   LIG    1        4.210   9.300   0.948  0.00  0.00    +0.510 C 
ATOM     20  O   LIG    1        3.730   8.777   1.931  0.00  0.00    -0.480 OA
BRANCH  17  24
ATOM     21  C   LIG    1        6.079  12.348   3.832  0.00  0.00    +0.090 A 
ATOM     22  C   LIG    1        5.432  11.573   4.705  0.00  0.00    -0.140 A 
ATOM     23  S   LIG    1        4.617  10.298   3.803  0.00  0.00    +0.240 S 
ATOM     24  C   LIG    1        5.226  10.931   2.337  0.00  0.00    +0.240 A 
ATOM     25  N   LIG    1        5.955  11.977   2.571  0.00  0.00    -0.510 NA
BRANCH  21  27
ATOM     26  C   LIG    1        8.313  13.416   3.705  0.00  0.00    +0.030 C 
ATOM     27  C   LIG    1        6.890  13.547   4.252  0.00  0.00    +0.110 C 
ENDBRANCH  21  27
ENDBRANCH  17  24
ENDBRANCH  16  19
ENDBRANCH   1  16
TORSDOF 6
