REMARK  Name = ZINCpk00000y6u7y.0
REMARK                            x       y       z     vdW  Elec       q    Type
REMARK                         _______ _______ _______ _____ _____    ______ ____
ROOT
ATOM      1  C   LIG    1       -0.039   1.028   2.543  0.00  0.00    +0.080 C 
ATOM      2  C   LIG    1       -0.412   2.112   3.588  0.00  0.00    +0.290 C 
ATOM      3  N   LIG    1       -0.369   3.385   2.847  0.00  0.00    -0.610 N 
ATOM      4  C   LIG    1       -0.576   3.107   1.419  0.00  0.00    +0.260 C 
ATOM      5  C   LIG    1       -0.172   4.603   3.390  0.00  0.00    +0.580 C 
ATOM      6  O   LIG    1       -0.011   4.715   4.590  0.00  0.00    -0.510 OA
ATOM      7  C   LIG    1       -0.729   1.579   1.267  0.00  0.00    +0.010 C 
ENDROOT
BRANCH   5   8
ATOM      8  C   LIG    1       -0.152   5.801   2.527  0.00  0.00    -0.170 A 
ATOM      9  C   LIG    1       -1.339   6.494   2.262  0.00  0.00    +0.170 A 
ATOM     10  C   LIG    1       -1.317   7.616   1.460  0.00  0.00    +0.040 A 
ATOM     11  C   LIG    1       -0.114   8.055   0.905  0.00  0.00    +0.060 A 
ATOM     12  C   LIG    1        1.071   7.362   1.164  0.00  0.00    +0.040 A 
ATOM     13  F   LIG    1       -2.504   6.066   2.795  0.00  0.00    -0.110 F 
ATOM     14  C   LIG    1        1.053   6.242   1.970  0.00  0.00    +0.170 A 
ATOM     15  F   LIG    1        2.199   5.572   2.220  0.00  0.00    -0.110 F 
BRANCH  11  16
ATOM     16  C   LIG    1       -0.094   9.217   0.068  0.00  0.00    +0.250 C 
ATOM     17  N   LIG    1       -0.079  10.139  -0.596  0.00  0.00    -0.380 NA
ENDBRANCH  11  16
ENDBRANCH   5   8
BRANCH   1  21
ATOM     18  C   LIG    1       -0.449  -3.853   3.603  0.00  0.00    +0.360 C 
ATOM     19  N   LIG    1       -0.777  -2.442   3.386  0.00  0.00    -0.370 N 
ATOM     20  C   LIG    1        0.088  -1.474   3.018  0.00  0.00    +0.240 A 
ATOM     21  C   LIG    1       -0.605  -0.315   2.925  0.00  0.00    -0.230 A 
ATOM     22  C   LIG    1       -1.938  -0.583   3.253  0.00  0.00    +0.240 A 
ATOM     23  N   LIG    1       -2.043  -1.859   3.524  0.00  0.00    -0.290 NA
ENDBRANCH   1  21
BRANCH   7  24
ATOM     24  C   LIG    1       -0.013   1.086   0.008  0.00  0.00    +0.190 C 
BRANCH  24  25
ATOM     25  O   LIG    1       -0.704   1.559  -1.150  0.00  0.00    -0.570 OA
ATOM     26  H   LIG    1       -0.304   1.284  -1.986  0.00  0.00    +0.380 HD
ENDBRANCH  24  25
ENDBRANCH   7  24
TORSDOF 5
