REMARK  Name = ZINCkj000005hZ7G.0
REMARK                            x       y       z     vdW  Elec       q    Type
REMARK                         _______ _______ _______ _____ _____    ______ ____
ROOT
ATOM      1  N   LIG    1        5.298  -1.526   1.533  0.00  0.00    -0.500 N 
ATOM      2  H   LIG    1        5.900  -0.958   0.956  0.00  0.00    +0.440 HD
ATOM      3  H   LIG    1        5.167  -2.426   1.098  0.00  0.00    +0.430 HD
ENDROOT
BRANCH   1   9
ATOM      4  C   LIG    1        7.211  -2.507   2.711  0.00  0.00    +0.260 C 
ATOM      5  C   LIG    1        7.883  -2.620   4.082  0.00  0.00    +0.000 C 
ATOM      6  C   LIG    1        8.128  -1.216   4.640  0.00  0.00    +0.240 C 
ATOM      7  O   LIG    1        6.886  -0.513   4.719  0.00  0.00    -0.350 OA
ATOM      8  C   LIG    1        6.235  -0.336   3.460  0.00  0.00    +0.260 C 
ATOM      9  C   LIG    1        5.914  -1.705   2.855  0.00  0.00    +0.140 C 
BRANCH   4  11
ATOM     10  C   LIG    1        6.046  -4.572   3.061  0.00  0.00    +0.250 C 
ATOM     11  O   LIG    1        6.912  -3.814   2.215  0.00  0.00    -0.390 OA
ENDBRANCH   4  11
BRANCH   4  12
ATOM     12  O   LIG    1        8.088  -1.839   1.801  0.00  0.00    -0.370 OA
ATOM     13  C   LIG    1        9.279  -2.569   1.500  0.00  0.00    +0.260 C 
ENDBRANCH   4  12
ENDBRANCH   1   9
BRANCH   1  14
ATOM     14  C   LIG    1        3.997  -0.861   1.685  0.00  0.00    +0.270 C 
BRANCH  14  15
ATOM     15  C   LIG    1        3.356  -0.675   0.309  0.00  0.00    +0.100 C 
BRANCH  15  16
ATOM     16  C   LIG    1        2.021   0.007   0.465  0.00  0.00    -0.060 A 
ATOM     17  C   LIG    1        0.851  -0.733   0.538  0.00  0.00    -0.020 A 
ATOM     18  C   LIG    1       -0.356  -0.074   0.682  0.00  0.00    +0.260 A 
ATOM     19  N   LIG    1       -0.401   1.242   0.749  0.00  0.00    -0.470 NA
ATOM     20  C   LIG    1        0.692   1.978   0.683  0.00  0.00    +0.270 A 
ATOM     21  C   LIG    1        1.933   1.389   0.539  0.00  0.00    -0.130 A 
ATOM     22  C   LIG    1        3.177   2.237   0.465  0.00  0.00    +0.100 C 
ENDBRANCH  15  16
ENDBRANCH  14  15
ENDBRANCH   1  14
TORSDOF 6
