REMARK  Name = ZINCtV000002HktT.0
REMARK                            x       y       z     vdW  Elec       q    Type
REMARK                         _______ _______ _______ _____ _____    ______ ____
ROOT
ATOM      1  C   LIG    1        0.043   1.261   0.798  0.00  0.00    +0.520 C 
ATOM      2  N   LIG    1        1.139   1.897   0.337  0.00  0.00    -0.660 N 
ATOM      3  H   LIG    1        1.081   2.824   0.060  0.00  0.00    +0.420 HD
ATOM      4  O   LIG    1        0.112   0.096   1.128  0.00  0.00    -0.480 OA
ENDROOT
BRANCH   2   5
ATOM      5  C   LIG    1        2.362   1.217   0.259  0.00  0.00    +0.160 A 
ATOM      6  C   LIG    1        2.387  -0.170   0.251  0.00  0.00    +0.050 A 
ATOM      7  C   LIG    1        3.596  -0.838   0.168  0.00  0.00    -0.010 A 
ATOM      8  C   LIG    1        4.780  -0.127   0.105  0.00  0.00    +0.030 A 
ATOM      9  C   LIG    1        4.762   1.256   0.118  0.00  0.00    +0.070 A 
ATOM     10 CL   LIG    1        3.626  -2.574   0.151  0.00  0.00    -0.050 Cl
ATOM     11  C   LIG    1        3.556   1.933   0.195  0.00  0.00    +0.050 A 
BRANCH  11  12
ATOM     12  O   LIG    1        3.537   3.292   0.208  0.00  0.00    -0.250 OA
BRANCH  12  13
ATOM     13  C   LIG    1        3.432   3.917   1.410  0.00  0.00    +0.110 A 
ATOM     14  C   LIG    1        3.239   3.174   2.565  0.00  0.00    -0.060 A 
ATOM     15  C   LIG    1        3.138   3.812   3.787  0.00  0.00    +0.050 A 
ATOM     16  C   LIG    1        3.219   5.190   3.857  0.00  0.00    -0.020 A 
ATOM     17  C   LIG    1        3.405   5.934   2.706  0.00  0.00    +0.050 A 
ATOM     18  C   LIG    1        3.513   5.301   1.483  0.00  0.00    -0.010 A 
ENDBRANCH  12  13
ENDBRANCH  11  12
ENDBRANCH   2   5
BRANCH   1  19
ATOM     19  C   LIG    1       -1.268   1.997   0.897  0.00  0.00    +0.240 C 
BRANCH  19  20
ATOM     20  O   LIG    1       -2.272   1.115   1.403  0.00  0.00    -0.290 OA
BRANCH  20  26
ATOM     21  C   LIG    1       -5.328   4.901   1.018  0.00  0.00    +0.090 C 
ATOM     22  C   LIG    1       -5.050   3.464   1.378  0.00  0.00    -0.050 A 
ATOM     23  C   LIG    1       -6.068   2.664   1.862  0.00  0.00    -0.030 A 
ATOM     24  C   LIG    1       -5.816   1.345   2.193  0.00  0.00    +0.060 A 
ATOM     25  C   LIG    1       -4.546   0.824   2.041  0.00  0.00    -0.100 A 
ATOM     26  C   LIG    1       -3.522   1.625   1.554  0.00  0.00    +0.130 A 
ATOM     27  C   LIG    1       -3.777   2.949   1.228  0.00  0.00    -0.080 A 
BRANCH  25  28
ATOM     28  C   LIG    1       -4.271  -0.613   2.403  0.00  0.00    +0.040 C 
ATOM     29  C   LIG    1       -5.151  -1.530   1.551  0.00  0.00    +0.020 C 
ATOM     30  C   LIG    1       -4.586  -0.835   3.883  0.00  0.00    +0.020 C 
ENDBRANCH  25  28
ENDBRANCH  20  26
ENDBRANCH  19  20
ENDBRANCH   1  19
TORSDOF 7
