REMARK  Name = ZINCwl0000000cw5.1
REMARK                            x       y       z     vdW  Elec       q    Type
REMARK                         _______ _______ _______ _____ _____    ______ ____
ROOT
ATOM      1  C   LIG    1        8.096  -2.074   2.009  0.00  0.00    -0.180 A 
ATOM      2  C   LIG    1        8.375  -0.725   1.929  0.00  0.00    +0.520 A 
ATOM      3  N   LIG    1        9.368  -0.196   2.721  0.00  0.00    -0.530 N 
ATOM      4  C   LIG    1       10.067  -0.987   3.555  0.00  0.00    +0.710 A 
ATOM      5  N   LIG    1        9.813  -2.304   3.643  0.00  0.00    -0.660 N 
ATOM      6  H   LIG    1       10.331  -2.853   4.252  0.00  0.00    +0.440 HD
ATOM      7  O   LIG    1       10.944  -0.501   4.243  0.00  0.00    -0.510 OA
ATOM      8  C   LIG    1        8.847  -2.871   2.893  0.00  0.00    +0.570 A 
ATOM      9  O   LIG    1        8.625  -4.067   2.981  0.00  0.00    -0.520 OA
ENDROOT
BRANCH   1  10
ATOM     10  N   LIG    1        7.080  -2.646   1.215  0.00  0.00    -0.490 N 
ATOM     11  C   LIG    1        5.798  -2.260   1.380  0.00  0.00    +0.490 C 
ATOM     12  O   LIG    1        5.507  -1.484   2.266  0.00  0.00    -0.520 OA
BRANCH  10  14
ATOM     13  C   LIG    1        7.767  -2.969  -1.110  0.00  0.00    +0.020 C 
ATOM     14  C   LIG    1        7.417  -3.658   0.211  0.00  0.00    +0.290 C 
ENDBRANCH  10  14
BRANCH  11  15
ATOM     15  C   LIG    1        4.727  -2.792   0.463  0.00  0.00    +0.300 C 
BRANCH  15  16
ATOM     16  N   LIG    1        3.427  -2.225   0.847  0.00  0.00    -0.370 N 
ATOM     17  C   LIG    1        2.366  -2.826   0.024  0.00  0.00    +0.280 C 
ATOM     18  C   LIG    1        1.011  -2.463   0.635  0.00  0.00    +0.130 C 
ATOM     19  C   LIG    1        0.938  -0.976   0.868  0.00  0.00    -0.090 A 
ATOM     20  C   LIG    1       -0.302  -0.397   1.087  0.00  0.00    +0.040 A 
ATOM     21  C   LIG    1       -0.407   0.961   1.311  0.00  0.00    +0.050 A 
ATOM     22  C   LIG    1        0.730   1.747   1.316  0.00  0.00    +0.040 A 
ATOM     23  C   LIG    1        1.966   1.172   1.096  0.00  0.00    +0.040 A 
ATOM     24  C   LIG    1        2.073  -0.192   0.869  0.00  0.00    -0.130 A 
ATOM     25  C   LIG    1        3.439  -0.776   0.627  0.00  0.00    +0.310 C 
ATOM     26  H   LIG    1        3.248  -2.417   1.821  0.00  0.00    +0.430 HD
ENDBRANCH  15  16
ENDBRANCH  11  15
ENDBRANCH   1  10
BRANCH   2  27
ATOM     27  N   LIG    1        7.666   0.081   1.071  0.00  0.00    -0.830 N 
ATOM     28  H   LIG    1        7.790   1.043   1.096  0.00  0.00    +0.410 HD
ATOM     29  H   LIG    1        7.041  -0.311   0.442  0.00  0.00    +0.410 HD
ENDBRANCH   2  27
BRANCH   3  30
ATOM     30  C   LIG    1        9.670   1.236   2.650  0.00  0.00    +0.380 C 
BRANCH  30  31
ATOM     31  C   LIG    1       10.719   1.477   1.597  0.00  0.00    -0.130 A 
ATOM     32  C   LIG    1       12.059   1.452   1.937  0.00  0.00    +0.050 A 
ATOM     33  C   LIG    1       13.022   1.669   0.969  0.00  0.00    +0.010 A 
ATOM     34  C   LIG    1       12.645   1.919  -0.337  0.00  0.00    +0.030 A 
ATOM     35  C   LIG    1       11.306   1.949  -0.676  0.00  0.00    +0.010 A 
ATOM     36  C   LIG    1       10.343   1.728   0.290  0.00  0.00    +0.010 A 
ENDBRANCH  30  31
ENDBRANCH   3  30
TORSDOF 7
