REMARK  Name = ZINCwl0000000cw5.2
REMARK                            x       y       z     vdW  Elec       q    Type
REMARK                         _______ _______ _______ _____ _____    ______ ____
ROOT
ATOM      1  C   LIG    1        2.354  -0.013   0.001  0.00  0.00    -0.170 A 
ATOM      2  C   LIG    1        2.005   0.814  -1.047  0.00  0.00    +0.510 A 
ATOM      3  N   LIG    1        0.776   1.433  -1.033  0.00  0.00    -0.530 N 
ATOM      4  C   LIG    1       -0.074   1.236  -0.009  0.00  0.00    +0.710 A 
ATOM      5  N   LIG    1        0.249   0.433   1.020  0.00  0.00    -0.660 N 
ATOM      6  H   LIG    1       -0.381   0.307   1.747  0.00  0.00    +0.440 HD
ATOM      7  O   LIG    1       -1.153   1.796  -0.013  0.00  0.00    -0.520 OA
ATOM      8  C   LIG    1        1.439  -0.198   1.055  0.00  0.00    +0.580 A 
ATOM      9  O   LIG    1        1.722  -0.923   1.993  0.00  0.00    -0.520 OA
ENDROOT
BRANCH   1  10
ATOM     10  N   LIG    1        3.606  -0.663   0.015  0.00  0.00    -0.500 N 
ATOM     11  C   LIG    1        3.669  -2.008  -0.072  0.00  0.00    +0.500 C 
ATOM     12  O   LIG    1        2.658  -2.652  -0.259  0.00  0.00    -0.500 OA
BRANCH  10  14
ATOM     13  C   LIG    1        5.137   0.400   1.599  0.00  0.00    +0.040 C 
ATOM     14  C   LIG    1        4.838   0.122   0.125  0.00  0.00    +0.270 C 
ENDBRANCH  10  14
BRANCH  11  15
ATOM     15  C   LIG    1        4.995  -2.711   0.064  0.00  0.00    +0.290 C 
BRANCH  15  16
ATOM     16  N   LIG    1        4.798  -4.160  -0.067  0.00  0.00    -0.370 N 
ATOM     17  C   LIG    1        6.102  -4.839  -0.050  0.00  0.00    +0.280 C 
ATOM     18  C   LIG    1        5.904  -6.290  -0.490  0.00  0.00    +0.130 C 
ATOM     19  C   LIG    1        4.792  -6.919   0.311  0.00  0.00    -0.100 A 
ATOM     20  C   LIG    1        4.676  -8.300   0.316  0.00  0.00    +0.030 A 
ATOM     21  C   LIG    1        3.667  -8.912   1.034  0.00  0.00    +0.040 A 
ATOM     22  C   LIG    1        2.769  -8.143   1.750  0.00  0.00    +0.040 A 
ATOM     23  C   LIG    1        2.885  -6.767   1.747  0.00  0.00    +0.040 A 
ATOM     24  C   LIG    1        3.898  -6.151   1.028  0.00  0.00    -0.120 A 
ATOM     25  C   LIG    1        3.989  -4.648   1.054  0.00  0.00    +0.330 C 
ATOM     26  H   LIG    1        4.325  -4.359  -0.936  0.00  0.00    +0.430 HD
ENDBRANCH  15  16
ENDBRANCH  11  15
ENDBRANCH   1  10
BRANCH   2  27
ATOM     27  N   LIG    1        2.873   1.016  -2.092  0.00  0.00    -0.830 N 
ATOM     28  H   LIG    1        3.764   0.635  -2.063  0.00  0.00    +0.420 HD
ATOM     29  H   LIG    1        2.595   1.541  -2.860  0.00  0.00    +0.410 HD
ENDBRANCH   2  27
BRANCH   3  30
ATOM     30  C   LIG    1        0.392   2.314  -2.139  0.00  0.00    +0.380 C 
BRANCH  30  31
ATOM     31  C   LIG    1        0.828   3.724  -1.832  0.00  0.00    -0.130 A 
ATOM     32  C   LIG    1       -0.026   4.582  -1.165  0.00  0.00    +0.050 A 
ATOM     33  C   LIG    1        0.374   5.874  -0.880  0.00  0.00    +0.010 A 
ATOM     34  C   LIG    1        1.626   6.311  -1.271  0.00  0.00    +0.030 A 
ATOM     35  C   LIG    1        2.479   5.455  -1.943  0.00  0.00    +0.010 A 
ATOM     36  C   LIG    1        2.079   4.161  -2.224  0.00  0.00    +0.020 A 
ENDBRANCH  30  31
ENDBRANCH   3  30
TORSDOF 7
