REMARK  Name = ZINCrD000000DbsE.0
REMARK                            x       y       z     vdW  Elec       q    Type
REMARK                         _______ _______ _______ _____ _____    ______ ____
ROOT
ATOM      1  C   LIG    1        2.334   4.542   0.005  0.00  0.00    +0.190 A 
ATOM      2  C   LIG    1        3.555   3.887   0.101  0.00  0.00    +0.030 A 
ATOM      3  C   LIG    1        4.729   4.614   0.089  0.00  0.00    +0.150 A 
ATOM      4  C   LIG    1        4.690   5.993  -0.008  0.00  0.00    -0.670 A 
ATOM      5  C   LIG    1        3.476   6.648  -0.098  0.00  0.00    +0.140 A 
ATOM      6  C   LIG    1        2.298   5.927  -0.092  0.00  0.00    +0.020 A 
ENDROOT
BRANCH   1  15
ATOM      7  O   LIG    1        1.921   2.406  -1.536  0.00  0.00    -0.480 OA
ATOM      8  C   LIG    1        1.008   2.738  -0.797  0.00  0.00    +0.520 A 
ATOM      9  C   LIG    1       -0.195   2.006  -0.782  0.00  0.00    -0.090 A 
ATOM     10  C   LIG    1       -1.204   2.400   0.049  0.00  0.00    -0.010 A 
ATOM     11  C   LIG    1       -1.025   3.516   0.880  0.00  0.00    +0.320 A 
ATOM     12  N   LIG    1        0.095   4.188   0.859  0.00  0.00    -0.190 NA
ATOM     13 CL   LIG    1       -2.700   1.520   0.081  0.00  0.00    +0.010 Cl
ATOM     14 CL   LIG    1       -0.395   0.624  -1.813  0.00  0.00    +0.030 Cl
ATOM     15  N   LIG    1        1.143   3.808   0.012  0.00  0.00    -0.370 N 
ENDBRANCH   1  15
BRANCH   4  16
ATOM     16  S   LIG    1        6.190   6.917  -0.016  0.00  0.00    +2.690 S 
ATOM     17  O   LIG    1        5.898   8.150  -0.658  0.00  0.00    -0.950 OA
ATOM     18  O   LIG    1        7.206   6.029  -0.464  0.00  0.00    -0.950 OA
BRANCH  16  19
ATOM     19  N   LIG    1        6.549   7.283   1.558  0.00  0.00    -1.000 NA
ATOM     20  C   LIG    1        6.058   8.524   2.176  0.00  0.00    +0.320 C 
ATOM     21  C   LIG    1        5.084   8.149   3.304  0.00  0.00    +0.110 C 
ATOM     22  C   LIG    1        5.692   7.037   4.132  0.00  0.00    -0.170 A 
ATOM     23  C   LIG    1        6.702   6.240   3.736  0.00  0.00    -0.120 A 
ATOM     24  C   LIG    1        7.069   5.287   4.681  0.00  0.00    +0.010 A 
ATOM     25  C   LIG    1        6.382   5.310   5.818  0.00  0.00    -0.040 A 
ATOM     26  S   LIG    1        5.180   6.590   5.755  0.00  0.00    +0.100 S 
ATOM     27  C   LIG    1        7.373   6.379   2.374  0.00  0.00    +0.380 C 
ENDBRANCH  16  19
ENDBRANCH   4  16
TORSDOF 3
