REMARK  Name = ZINCqH0000005SGs.0
REMARK                            x       y       z     vdW  Elec       q    Type
REMARK                         _______ _______ _______ _____ _____    ______ ____
ROOT
ATOM      1  C   LIG    1        4.957  -2.734   0.154  0.00  0.00    +0.310 C 
ENDROOT
BRANCH   1   2
ATOM      2  C   LIG    1        3.642  -2.005   0.057  0.00  0.00    +0.510 C 
ATOM      3  N   LIG    1        3.622  -0.661  -0.037  0.00  0.00    -0.660 N 
ATOM      4  H   LIG    1        4.454  -0.167  -0.107  0.00  0.00    +0.420 HD
ATOM      5  O   LIG    1        2.601  -2.628   0.064  0.00  0.00    -0.510 OA
BRANCH   3   6
ATOM      6  C   LIG    1        2.399   0.023  -0.032  0.00  0.00    +0.130 A 
ATOM      7  C   LIG    1        1.283  -0.543  -0.629  0.00  0.00    +0.060 A 
ATOM      8  C   LIG    1        0.078   0.134  -0.624  0.00  0.00    +0.010 A 
ATOM      9  C   LIG    1       -0.018   1.376  -0.025  0.00  0.00    +0.040 A 
ATOM     10  C   LIG    1        1.091   1.948   0.572  0.00  0.00    -0.030 A 
ATOM     11  C   LIG    1        2.302   1.276   0.571  0.00  0.00    +0.080 A 
BRANCH  11  12
ATOM     12  O   LIG    1        3.393   1.836   1.157  0.00  0.00    -0.320 OA
BRANCH  12  13
ATOM     13  C   LIG    1        3.219   3.122   1.756  0.00  0.00    +0.590 C 
ATOM     14  F   LIG    1        2.251   3.041   2.763  0.00  0.00    -0.200 F 
ATOM     15  F   LIG    1        2.804   4.037   0.783  0.00  0.00    -0.200 F 
ENDBRANCH  12  13
ENDBRANCH  11  12
ENDBRANCH   3   6
ENDBRANCH   1   2
BRANCH   1  16
ATOM     16  N   LIG    1        4.711  -4.176   0.245  0.00  0.00    -0.730 N 
ATOM     17  H   LIG    1        3.802  -4.514   0.237  0.00  0.00    +0.420 HD
BRANCH  16  20
ATOM     18  C   LIG    1        6.630  -7.309   0.531  0.00  0.00    -0.070 A 
ATOM     19  C   LIG    1        5.553  -6.426   0.436  0.00  0.00    +0.030 A 
ATOM     20  C   LIG    1        5.786  -5.063   0.344  0.00  0.00    +0.210 A 
ATOM     21  C   LIG    1        7.089  -4.578   0.356  0.00  0.00    -0.010 A 
ATOM     22  C   LIG    1        8.156  -5.451   0.455  0.00  0.00    +0.070 A 
ATOM     23  C   LIG    1        7.936  -6.811   0.542  0.00  0.00    -0.040 A 
ATOM     24 CL   LIG    1        9.280  -7.903   0.666  0.00  0.00    -0.040 Cl
BRANCH  18  25
ATOM     25  C   LIG    1        6.390  -8.763   0.625  0.00  0.00    +0.500 C 
ATOM     26  O   LIG    1        7.329  -9.529   0.712  0.00  0.00    -0.480 OA
BRANCH  25  28
ATOM     27  C   LIG    1        4.970 -10.680   0.709  0.00  0.00    +0.280 C 
ATOM     28  O   LIG    1        5.130  -9.240   0.613  0.00  0.00    -0.360 OA
ENDBRANCH  25  28
ENDBRANCH  18  25
ENDBRANCH  16  20
ENDBRANCH   1  16
TORSDOF 8
