REMARK  Name = ZINCBu0000000gyt.0
REMARK                            x       y       z     vdW  Elec       q    Type
REMARK                         _______ _______ _______ _____ _____    ______ ____
ROOT
ATOM      1  N   LIG    1        7.687   2.001  -2.911  0.00  0.00    -0.380 N 
ATOM      2  N   LIG    1        6.761   1.463  -2.006  0.00  0.00    -0.250 NA
ATOM      3  C   LIG    1        6.409   0.286  -2.441  0.00  0.00    +0.330 A 
ATOM      4  N   LIG    1        7.077   0.036  -3.623  0.00  0.00    -0.480 N 
ATOM      5  C   LIG    1        7.859   1.099  -3.899  0.00  0.00    +0.470 A 
ATOM      6  S   LIG    1        8.885   1.273  -5.258  0.00  0.00    -0.560 S 
ENDROOT
BRANCH   3   7
ATOM      7  C   LIG    1        5.449  -0.627  -1.782  0.00  0.00    -0.060 A 
ATOM      8  C   LIG    1        4.296  -0.118  -1.184  0.00  0.00    +0.130 A 
ATOM      9  C   LIG    1        3.404  -0.974  -0.571  0.00  0.00    +0.020 A 
ATOM     10  C   LIG    1        3.650  -2.335  -0.552  0.00  0.00    +0.160 A 
ATOM     11  C   LIG    1        4.795  -2.846  -1.138  0.00  0.00    -0.680 A 
ATOM     12  C   LIG    1        5.693  -2.000  -1.754  0.00  0.00    +0.150 A 
BRANCH  11  13
ATOM     13  S   LIG    1        5.102  -4.581  -1.103  0.00  0.00    +2.690 S 
ATOM     14  O   LIG    1        3.838  -5.208  -0.934  0.00  0.00    -0.940 OA
ATOM     15  O   LIG    1        5.968  -4.857  -2.195  0.00  0.00    -0.940 OA
BRANCH  13  16
ATOM     16  N   LIG    1        5.968  -4.897   0.273  0.00  0.00    -1.000 NA
ATOM     17  C   LIG    1        5.289  -5.219   1.538  0.00  0.00    +0.270 C 
ATOM     18  C   LIG    1        5.864  -4.319   2.638  0.00  0.00    +0.220 C 
ATOM     19  O   LIG    1        7.289  -4.427   2.637  0.00  0.00    -0.370 OA
ATOM     20  C   LIG    1        7.909  -3.982   1.428  0.00  0.00    +0.210 C 
ATOM     21  C   LIG    1        7.439  -4.865   0.266  0.00  0.00    +0.270 C 
ENDBRANCH  13  16
ENDBRANCH  11  13
ENDBRANCH   3   7
BRANCH   1  22
ATOM     22  C   LIG    1        8.342   3.307  -2.806  0.00  0.00    +0.550 C 
BRANCH  22  27
ATOM     23  C   LIG    1        5.616   7.889  -4.628  0.00  0.00    +0.330 C 
ATOM     24  N   LIG    1        6.615   6.860  -4.309  0.00  0.00    -0.390 N 
ATOM     25  C   LIG    1        6.703   6.698  -2.852  0.00  0.00    +0.280 C 
ATOM     26  C   LIG    1        7.757   5.639  -2.519  0.00  0.00    +0.230 C 
ATOM     27  N   LIG    1        7.383   4.365  -3.150  0.00  0.00    -0.560 NA
ATOM     28  C   LIG    1        7.267   4.518  -4.607  0.00  0.00    +0.220 C 
ATOM     29  C   LIG    1        6.217   5.586  -4.922  0.00  0.00    +0.270 C 
ATOM     30  H   LIG    1        7.514   7.141  -4.671  0.00  0.00    +0.420 HD
ENDBRANCH  22  27
ENDBRANCH   1  22
BRANCH   4  31
ATOM     31  C   LIG    1        6.957  -1.176  -4.438  0.00  0.00    +0.390 C 
BRANCH  31  32
ATOM     32  C   LIG    1        5.933  -0.954  -5.520  0.00  0.00    -0.140 A 
ATOM     33  C   LIG    1        4.591  -1.156  -5.253  0.00  0.00    +0.060 A 
ATOM     34  C   LIG    1        3.650  -0.948  -6.244  0.00  0.00    -0.020 A 
ATOM     35  C   LIG    1        4.052  -0.548  -7.507  0.00  0.00    +0.120 A 
ATOM     36  C   LIG    1        5.396  -0.351  -7.774  0.00  0.00    -0.020 A 
ATOM     37  F   LIG    1        3.134  -0.350  -8.477  0.00  0.00    -0.130 F 
ATOM     38  C   LIG    1        6.335  -0.554  -6.781  0.00  0.00    +0.100 A 
ENDBRANCH  31  32
ENDBRANCH   4  31
TORSDOF 7
