REMARK  Name = ZINCvU000000083r.0
REMARK                            x       y       z     vdW  Elec       q    Type
REMARK                         _______ _______ _______ _____ _____    ______ ____
ROOT
ATOM      1  N   LIG    1        2.981   3.896   0.386  0.00  0.00    -0.660 N 
ATOM      2  H   LIG    1        3.862   3.512   0.255  0.00  0.00    +0.420 HD
ATOM      3  C   LIG    1        2.795   5.223   0.239  0.00  0.00    +0.500 C 
ATOM      4  O   LIG    1        1.715   5.715   0.489  0.00  0.00    -0.500 OA
ENDROOT
BRANCH   1  10
ATOM      5  C   LIG    1        1.830   1.771   0.231  0.00  0.00    +0.140 A 
ATOM      6  C   LIG    1        0.761   0.960   0.572  0.00  0.00    -0.040 A 
ATOM      7  C   LIG    1       -0.236   1.442   1.401  0.00  0.00    +0.100 A 
ATOM      8  C   LIG    1       -0.163   2.729   1.900  0.00  0.00    -0.200 A 
ATOM      9  C   LIG    1        0.901   3.545   1.564  0.00  0.00    +0.120 A 
ATOM     10  C   LIG    1        1.902   3.071   0.729  0.00  0.00    +0.110 A 
BRANCH   8  11
ATOM     11  C   LIG    1       -1.249   3.247   2.807  0.00  0.00    +0.510 C 
ATOM     12  F   LIG    1       -0.711   4.191   3.688  0.00  0.00    -0.170 F 
ATOM     13  F   LIG    1       -1.792   2.184   3.537  0.00  0.00    -0.180 F 
ATOM     14  F   LIG    1       -2.253   3.845   2.038  0.00  0.00    -0.170 F 
ENDBRANCH   8  11
BRANCH   5  15
ATOM     15  O   LIG    1        2.809   1.300  -0.588  0.00  0.00    -0.310 OA
BRANCH  15  17
ATOM     16  C   LIG    1        3.856  -0.390  -1.961  0.00  0.00    +0.070 C 
ATOM     17  C   LIG    1        2.670  -0.041  -1.060  0.00  0.00    +0.190 C 
ENDBRANCH  15  17
ENDBRANCH   5  15
ENDBRANCH   1  10
BRANCH   3  18
ATOM     18  C   LIG    1        3.929   6.094  -0.237  0.00  0.00    +0.340 C 
BRANCH  18  19
ATOM     19  N   LIG    1        3.476   7.486  -0.313  0.00  0.00    -0.510 N 
ATOM     20  C   LIG    1        3.478   8.282   0.770  0.00  0.00    +0.510 A 
ATOM     21  S   LIG    1        2.858   9.843   0.202  0.00  0.00    -0.010 S 
ATOM     22  C   LIG    1        2.638   9.305  -1.473  0.00  0.00    -0.160 A 
ATOM     23  C   LIG    1        2.115  10.115  -2.631  0.00  0.00    +0.170 C 
ATOM     24  O   LIG    1        3.831   7.993   1.899  0.00  0.00    -0.460 OA
ATOM     25  C   LIG    1        3.039   8.027  -1.491  0.00  0.00    +0.130 A 
BRANCH  25  26
ATOM     26  C   LIG    1        3.006   7.231  -2.737  0.00  0.00    -0.060 A 
ATOM     27  C   LIG    1        2.375   5.986  -2.755  0.00  0.00    +0.050 A 
ATOM     28  C   LIG    1        2.343   5.249  -3.921  0.00  0.00    -0.010 A 
ATOM     29  C   LIG    1        2.946   5.738  -5.069  0.00  0.00    +0.120 A 
ATOM     30  C   LIG    1        3.578   6.970  -5.055  0.00  0.00    +0.000 A 
ATOM     31  F   LIG    1        2.916   5.010  -6.207  0.00  0.00    -0.130 F 
ATOM     32  C   LIG    1        3.611   7.718  -3.896  0.00  0.00    +0.080 A 
ENDBRANCH  25  26
ENDBRANCH  18  19
ENDBRANCH   3  18
TORSDOF 7
