REMARK  Name = ZINCrD0000072HxI.0
REMARK                            x       y       z     vdW  Elec       q    Type
REMARK                         _______ _______ _______ _____ _____    ______ ____
ROOT
ATOM      1  C   LIG    1       -0.811   1.455  -1.189  0.00  0.00    +0.010 C 
ATOM      2  C   LIG    1       -2.255   0.967  -1.054  0.00  0.00    +0.030 C 
ATOM      3  C   LIG    1       -2.895   1.597   0.185  0.00  0.00    +0.020 C 
ATOM      4  C   LIG    1       -2.119   1.164   1.432  0.00  0.00    +0.260 C 
ATOM      5  N   LIG    1       -0.698   1.501   1.250  0.00  0.00    -0.600 N 
ATOM      6  C   LIG    1       -0.039   2.237   2.167  0.00  0.00    +0.590 C 
ATOM      7  O   LIG    1        1.155   2.433   2.046  0.00  0.00    -0.520 OA
ATOM      8  C   LIG    1       -0.011   1.020   0.043  0.00  0.00    +0.300 C 
ENDROOT
BRANCH   6   9
ATOM      9  C   LIG    1       -0.766   2.804   3.315  0.00  0.00    -0.230 A 
ATOM     10  C   LIG    1       -1.038   2.025   4.425  0.00  0.00    +0.050 A 
ATOM     11  C   LIG    1       -1.738   2.598   5.513  0.00  0.00    -0.130 A 
ATOM     12  C   LIG    1       -2.028   1.831   6.652  0.00  0.00    +0.090 A 
ATOM     13  C   LIG    1       -2.703   2.393   7.697  0.00  0.00    -0.020 A 
ATOM     14  C   LIG    1       -3.108   3.720   7.644  0.00  0.00    +0.090 A 
ATOM     15  C   LIG    1       -2.836   4.494   6.537  0.00  0.00    -0.030 A 
ATOM     16  C   LIG    1       -2.148   3.945   5.457  0.00  0.00    +0.200 A 
ATOM     17  N   LIG    1       -1.873   4.716   4.348  0.00  0.00    -0.630 N 
ATOM     18  H   LIG    1       -2.163   5.641   4.326  0.00  0.00    +0.420 HD
ATOM     19  C   LIG    1       -0.596   0.585   4.474  0.00  0.00    +0.130 C 
ATOM     20  C   LIG    1       -1.204   4.204   3.298  0.00  0.00    +0.550 A 
ATOM     21  O   LIG    1       -0.967   4.903   2.330  0.00  0.00    -0.520 OA
ENDBRANCH   6   9
BRANCH   1  22
ATOM     22  C   LIG    1       -0.183   0.850  -2.446  0.00  0.00    -0.040 C 
ATOM     23  C   LIG    1       -0.200  -0.676  -2.340  0.00  0.00    +0.070 C 
ATOM     24  C   LIG    1        1.262   1.335  -2.578  0.00  0.00    +0.060 C 
BRANCH  22  25
ATOM     25  C   LIG    1       -0.970   1.278  -3.658  0.00  0.00    +0.470 C 
ATOM     26  O   LIG    1       -1.934   1.994  -3.529  0.00  0.00    -0.500 OA
BRANCH  25  28
ATOM     27  C   LIG    1       -1.403   1.316  -6.001  0.00  0.00    +0.250 C 
ATOM     28  O   LIG    1       -0.599   0.864  -4.880  0.00  0.00    -0.360 OA
ENDBRANCH  25  28
ENDBRANCH  22  25
ENDBRANCH   1  22
TORSDOF 4
