REMARK  Name = ZINCvU00000003N4.0
REMARK                            x       y       z     vdW  Elec       q    Type
REMARK                         _______ _______ _______ _____ _____    ______ ____
ROOT
ATOM      1  C   LIG    1       -4.463   0.513  -0.070  0.00  0.00    +0.160 A 
ATOM      2  N   LIG    1       -3.674  -0.505   0.196  0.00  0.00    -0.280 NA
ATOM      3  N   LIG    1       -2.455  -0.108   0.285  0.00  0.00    -0.250 NA
ATOM      4  C   LIG    1       -2.389   1.188   0.082  0.00  0.00    +0.230 A 
ATOM      5  N   LIG    1       -3.675   1.627  -0.147  0.00  0.00    -0.410 N 
ENDROOT
BRANCH   5   6
ATOM      6  C   LIG    1       -4.088   2.942  -0.407  0.00  0.00    +0.100 A 
ATOM      7  C   LIG    1       -4.033   3.899   0.597  0.00  0.00    +0.060 A 
ATOM      8  C   LIG    1       -4.437   5.194   0.337  0.00  0.00    +0.060 A 
ATOM      9  C   LIG    1       -4.904   5.536  -0.920  0.00  0.00    -0.020 A 
ATOM     10  C   LIG    1       -4.964   4.582  -1.921  0.00  0.00    +0.060 A 
ATOM     11 CL   LIG    1       -5.416   7.163  -1.241  0.00  0.00    -0.050 Cl
ATOM     12  C   LIG    1       -4.557   3.287  -1.667  0.00  0.00    +0.060 A 
ENDBRANCH   5   6
BRANCH   4  13
ATOM     13  C   LIG    1       -1.167   2.019   0.100  0.00  0.00    +0.030 A 
ATOM     14  C   LIG    1       -1.148   3.285  -0.498  0.00  0.00    -0.020 A 
ATOM     15  C   LIG    1        0.012   4.029  -0.452  0.00  0.00    +0.270 A 
ATOM     16  N   LIG    1        1.094   3.560   0.141  0.00  0.00    -0.470 NA
ATOM     17  C   LIG    1        1.121   2.371   0.712  0.00  0.00    +0.280 A 
ATOM     18  C   LIG    1        0.006   1.560   0.713  0.00  0.00    +0.020 A 
ENDBRANCH   4  13
BRANCH   1  19
ATOM     19  S   LIG    1       -6.212   0.454  -0.280  0.00  0.00    +0.110 S 
BRANCH  19  20
ATOM     20  C   LIG    1       -6.498  -1.315  -0.027  0.00  0.00    +0.100 C 
BRANCH  20  23
ATOM     21  N   LIG    1       -8.421  -2.872  -0.015  0.00  0.00    -0.660 N 
ATOM     22  H   LIG    1       -7.806  -3.581   0.232  0.00  0.00    +0.410 HD
ATOM     23  C   LIG    1       -7.970  -1.611  -0.164  0.00  0.00    +0.530 C 
ATOM     24  O   LIG    1       -8.748  -0.713  -0.408  0.00  0.00    -0.500 OA
BRANCH  21  30
ATOM     25  C   LIG    1      -10.169  -4.438  -0.585  0.00  0.00    -0.110 A 
ATOM     26  C   LIG    1      -11.507  -4.718  -0.782  0.00  0.00    +0.030 A 
ATOM     27  C   LIG    1      -12.455  -3.726  -0.611  0.00  0.00    -0.010 A 
ATOM     28  C   LIG    1      -12.067  -2.451  -0.243  0.00  0.00    +0.030 A 
ATOM     29  C   LIG    1      -10.730  -2.166  -0.038  0.00  0.00    +0.020 A 
ATOM     30  C   LIG    1       -9.776  -3.159  -0.215  0.00  0.00    +0.140 A 
BRANCH  25  32
ATOM     31  C   LIG    1       -8.824  -6.166   0.579  0.00  0.00    +0.020 C 
ATOM     32  C   LIG    1       -9.136  -5.520  -0.773  0.00  0.00    +0.060 C 
ENDBRANCH  25  32
ENDBRANCH  21  30
ENDBRANCH  20  23
ENDBRANCH  19  20
ENDBRANCH   1  19
TORSDOF 7
