REMARK  Name = ZINCqH0000008qBU.0
REMARK                            x       y       z     vdW  Elec       q    Type
REMARK                         _______ _______ _______ _____ _____    ______ ____
ROOT
ATOM      1  C   LIG    1       -0.843   3.297   1.437  0.00  0.00    +0.510 C 
ATOM      2  N   LIG    1       -0.704   1.975   1.216  0.00  0.00    -0.720 N 
ATOM      3  H   LIG    1       -1.058   1.337   1.854  0.00  0.00    +0.410 HD
ATOM      4  O   LIG    1       -0.401   4.096   0.639  0.00  0.00    -0.530 OA
ENDROOT
BRANCH   1   6
ATOM      5  C   LIG    1       -0.808   3.276   3.917  0.00  0.00    +0.060 C 
ATOM      6  C   LIG    1       -1.548   3.783   2.677  0.00  0.00    +0.250 C 
BRANCH   6   7
ATOM      7  N   LIG    1       -1.568   5.248   2.685  0.00  0.00    -0.710 N 
ATOM      8  H   LIG    1       -0.891   5.745   2.200  0.00  0.00    +0.410 HD
ATOM      9  C   LIG    1       -2.527   5.905   3.368  0.00  0.00    +0.560 C 
ATOM     10  O   LIG    1       -3.375   5.283   3.976  0.00  0.00    -0.510 OA
BRANCH   9  11
ATOM     11  C   LIG    1       -2.547   7.383   3.376  0.00  0.00    -0.130 A 
ATOM     12  C   LIG    1       -1.575   8.101   2.678  0.00  0.00    +0.070 A 
ATOM     13  C   LIG    1       -1.599   9.480   2.689  0.00  0.00    +0.020 A 
ATOM     14  C   LIG    1       -2.584  10.153   3.391  0.00  0.00    +0.060 A 
ATOM     15  C   LIG    1       -3.551   9.449   4.085  0.00  0.00    +0.020 A 
ATOM     16  C   LIG    1       -3.543   8.068   4.077  0.00  0.00    +0.010 A 
ATOM     17 CL   LIG    1       -4.762   7.185   4.942  0.00  0.00    -0.030 Cl
ENDBRANCH   9  11
ENDBRANCH   6   7
ENDBRANCH   1   6
BRANCH   2  18
ATOM     18  C   LIG    1       -0.018   1.503   0.010  0.00  0.00    +0.330 C 
BRANCH  18  19
ATOM     19  C   LIG    1        0.002  -0.004   0.002  0.00  0.00    -0.110 A 
ATOM     20  C   LIG    1        1.056  -0.684   0.582  0.00  0.00    +0.070 A 
ATOM     21  C   LIG    1        1.073  -2.067   0.578  0.00  0.00    +0.020 A 
ATOM     22  C   LIG    1        0.040  -2.768  -0.014  0.00  0.00    +0.080 A 
ATOM     23  C   LIG    1       -1.012  -2.088  -0.598  0.00  0.00    -0.180 A 
ATOM     24  C   LIG    1       -1.031  -0.706  -0.591  0.00  0.00    +0.090 A 
BRANCH  23  25
ATOM     25  C   LIG    1       -2.139  -2.853  -1.244  0.00  0.00    +0.510 C 
ATOM     26  F   LIG    1       -3.322  -2.114  -1.144  0.00  0.00    -0.180 F 
ATOM     27  F   LIG    1       -2.300  -4.082  -0.594  0.00  0.00    -0.180 F 
ATOM     28  F   LIG    1       -1.839  -3.075  -2.592  0.00  0.00    -0.170 F 
ENDBRANCH  23  25
ENDBRANCH  18  19
ENDBRANCH   2  18
TORSDOF 6
