REMARK  Name = ZINCrD000000gRqz.0
REMARK                            x       y       z     vdW  Elec       q    Type
REMARK                         _______ _______ _______ _____ _____    ______ ____
ROOT
ATOM      1  N   LIG    1       -0.721   1.571  -1.179  0.00  0.00    -0.560 N 
ATOM      2  C   LIG    1       -1.708   0.905  -1.790  0.00  0.00    +0.710 C 
ATOM      3  N   LIG    1       -2.193   1.569  -2.855  0.00  0.00    -0.720 N 
ATOM      4  H   LIG    1       -2.908   1.278  -3.443  0.00  0.00    +0.440 HD
ATOM      5  C   LIG    1       -1.423   2.820  -2.958  0.00  0.00    +0.160 C 
ATOM      6  C   LIG    1       -2.342   4.035  -2.813  0.00  0.00    +0.110 C 
ATOM      7  O   LIG    1       -2.121  -0.177  -1.422  0.00  0.00    -0.510 OA
ATOM      8  C   LIG    1       -0.456   2.741  -1.793  0.00  0.00    +0.530 C 
ATOM      9  O   LIG    1        0.381   3.560  -1.479  0.00  0.00    -0.460 OA
ENDROOT
BRANCH   5  10
ATOM     10  C   LIG    1       -0.675   2.877  -4.265  0.00  0.00    -0.050 A 
ATOM     11  C   LIG    1        0.576   3.462  -4.321  0.00  0.00    +0.050 A 
ATOM     12  C   LIG    1        1.264   3.509  -5.519  0.00  0.00    +0.110 A 
ATOM     13  C   LIG    1        0.697   2.980  -6.663  0.00  0.00    -0.040 A 
ATOM     14  C   LIG    1       -0.557   2.400  -6.609  0.00  0.00    +0.110 A 
ATOM     15  C   LIG    1       -1.243   2.348  -5.410  0.00  0.00    +0.050 A 
BRANCH  13  16
ATOM     16  N   LIG    1        1.431   3.036  -7.947  0.00  0.00    +0.020 N 
ATOM     17  O   LIG    1        2.536   3.547  -7.995  0.00  0.00    -0.150 OA
ATOM     18  O   LIG    1        0.931   2.570  -8.955  0.00  0.00    -0.150 OA
ENDBRANCH  13  16
ENDBRANCH   5  10
BRANCH   1  19
ATOM     19  C   LIG    1       -0.013   1.086   0.008  0.00  0.00    +0.340 C 
BRANCH  19  20
ATOM     20  C   LIG    1       -0.729   1.579   1.267  0.00  0.00    +0.210 C 
BRANCH  20  21
ATOM     21  O   LIG    1       -2.030   0.991   1.336  0.00  0.00    -0.610 OA
BRANCH  21  22
ATOM     22 SI   LIG    1       -2.893   1.445   2.643  0.00  0.00    +1.280 Si
ATOM     23  C   LIG    1       -3.126   3.293   2.623  0.00  0.00    -0.300 C 
ATOM     24  C   LIG    1       -1.983   0.950   4.192  0.00  0.00    -0.300 C 
BRANCH  22  26
ATOM     25  C   LIG    1       -4.367  -0.909   2.624  0.00  0.00    +0.030 C 
ATOM     26  C   LIG    1       -4.558   0.609   2.608  0.00  0.00    -0.370 C 
ATOM     27  C   LIG    1       -5.306   1.015   1.336  0.00  0.00    +0.030 C 
ATOM     28  C   LIG    1       -5.369   1.034   3.833  0.00  0.00    +0.030 C 
ENDBRANCH  22  26
ENDBRANCH  21  22
ENDBRANCH  20  21
ENDBRANCH  19  20
ENDBRANCH   1  19
TORSDOF 7
