REMARK  Name = ZINCrD000000f3Dt.0
REMARK                            x       y       z     vdW  Elec       q    Type
REMARK                         _______ _______ _______ _____ _____    ______ ____
ROOT
ATOM      1  N   LIG    1       -5.931  -1.343   0.197  0.00  0.00    -0.710 N 
ATOM      2  H   LIG    1       -5.892  -2.310   0.264  0.00  0.00    +0.410 HD
ENDROOT
BRANCH   1   6
ATOM      3  C   LIG    1       -2.462   0.847   0.376  0.00  0.00    -0.260 A 
ATOM      4  C   LIG    1       -3.679   1.526   0.218  0.00  0.00    +0.180 A 
ATOM      5  C   LIG    1       -4.833   0.791   0.159  0.00  0.00    -0.110 A 
ATOM      6  C   LIG    1       -4.766  -0.597   0.256  0.00  0.00    +0.430 A 
ATOM      7  N   LIG    1       -3.601  -1.214   0.405  0.00  0.00    -0.550 NA
ATOM      8  C   LIG    1       -2.468  -0.546   0.461  0.00  0.00    +0.350 A 
BRANCH   3  11
ATOM      9  N   LIG    1       -0.027   0.933   0.596  0.00  0.00    -0.730 N 
ATOM     10  H   LIG    1       -0.024  -0.035   0.660  0.00  0.00    +0.400 HD
ATOM     11  C   LIG    1       -1.192   1.595   0.445  0.00  0.00    +0.570 C 
ATOM     12  O   LIG    1       -1.196   2.808   0.364  0.00  0.00    -0.540 OA
BRANCH   9  13
ATOM     13  C   LIG    1        1.234   1.676   0.658  0.00  0.00    +0.410 C 
BRANCH  13  15
ATOM     14  C   LIG    1        3.243  -0.022   0.947  0.00  0.00    +0.060 C 
ATOM     15  C   LIG    1        2.352   0.731   0.819  0.00  0.00    -0.220 C 
ENDBRANCH  13  15
ENDBRANCH   9  13
ENDBRANCH   3  11
ENDBRANCH   1   6
BRANCH   1  16
ATOM     16  C   LIG    1       -7.223  -0.672   0.034  0.00  0.00    +0.280 C 
BRANCH  16  17
ATOM     17  C   LIG    1       -8.330  -1.720  -0.094  0.00  0.00    -0.030 C 
ATOM     18  C   LIG    1       -8.093  -2.565  -1.350  0.00  0.00    +0.010 C 
ATOM     19  C   LIG    1       -8.178  -1.664  -2.585  0.00  0.00    +0.210 C 
ATOM     20  O   LIG    1       -9.454  -1.020  -2.616  0.00  0.00    -0.380 OA
ATOM     21  C   LIG    1       -9.711  -0.179  -1.490  0.00  0.00    +0.210 C 
ATOM     22  C   LIG    1       -9.687  -1.021  -0.211  0.00  0.00    +0.020 C 
BRANCH  17  23
ATOM     23  C   LIG    1       -8.324  -2.610   1.122  0.00  0.00    -0.070 A 
ATOM     24  C   LIG    1       -8.020  -3.952   0.995  0.00  0.00    +0.020 A 
ATOM     25  C   LIG    1       -8.013  -4.769   2.111  0.00  0.00    +0.020 A 
ATOM     26  C   LIG    1       -8.312  -4.244   3.353  0.00  0.00    +0.040 A 
ATOM     27  C   LIG    1       -8.618  -2.900   3.481  0.00  0.00    -0.090 A 
ATOM     28 BR   LIG    1       -9.027  -2.181   5.181  0.00  0.00    -0.050 Br
ATOM     29  C   LIG    1       -8.618  -2.083   2.366  0.00  0.00    +0.050 A 
ENDBRANCH  17  23
ENDBRANCH  16  17
ENDBRANCH   1  16
TORSDOF 7
