REMARK  Name = ZINCvU0000000DsU.0
REMARK                            x       y       z     vdW  Elec       q    Type
REMARK                         _______ _______ _______ _____ _____    ______ ____
ROOT
ATOM      1  C   LIG    1       -4.866   3.931   0.010  0.00  0.00    +0.170 A 
ATOM      2  C   LIG    1       -4.941   5.204   0.560  0.00  0.00    +0.030 A 
ATOM      3  C   LIG    1       -6.115   5.928   0.471  0.00  0.00    -0.020 A 
ATOM      4  C   LIG    1       -7.224   5.377  -0.160  0.00  0.00    +0.140 A 
ATOM      5  C   LIG    1       -7.150   4.101  -0.706  0.00  0.00    +0.000 A 
ATOM      6 CL   LIG    1       -8.534   3.413  -1.496  0.00  0.00    -0.020 Cl
ATOM      7 CL   LIG    1       -6.207   7.521   1.152  0.00  0.00    -0.040 Cl
ATOM      8  C   LIG    1       -5.974   3.381  -0.621  0.00  0.00    +0.060 A 
ENDROOT
BRANCH   1  10
ATOM      9  C   LIG    1       -3.302   2.397  -0.919  0.00  0.00    +0.560 C 
ATOM     10  N   LIG    1       -3.675   3.201   0.097  0.00  0.00    -0.670 N 
ATOM     11  H   LIG    1       -3.118   3.273   0.887  0.00  0.00    +0.420 HD
ATOM     12  O   LIG    1       -4.041   2.239  -1.872  0.00  0.00    -0.510 OA
BRANCH   9  18
ATOM     13  C   LIG    1        0.036  -0.667  -3.009  0.00  0.00    +0.100 C 
ATOM     14  C   LIG    1       -0.386   0.233  -1.876  0.00  0.00    -0.090 A 
ATOM     15  C   LIG    1        0.452   0.415  -0.791  0.00  0.00    +0.040 A 
ATOM     16  C   LIG    1        0.073   1.240   0.254  0.00  0.00    +0.010 A 
ATOM     17  C   LIG    1       -1.148   1.882   0.221  0.00  0.00    +0.040 A 
ATOM     18  C   LIG    1       -1.996   1.707  -0.874  0.00  0.00    -0.140 A 
ATOM     19  C   LIG    1       -1.607   0.874  -1.924  0.00  0.00    +0.080 A 
ENDBRANCH   9  18
ENDBRANCH   1  10
BRANCH   4  20
ATOM     20  N   LIG    1       -8.416   6.108  -0.246  0.00  0.00    -0.670 N 
ATOM     21  H   LIG    1       -8.407   7.011  -0.600  0.00  0.00    +0.410 HD
ATOM     22  C   LIG    1       -9.575   5.556   0.163  0.00  0.00    +0.550 C 
ATOM     23  O   LIG    1       -9.605   4.391   0.512  0.00  0.00    -0.490 OA
BRANCH  22  24
ATOM     24  C   LIG    1      -10.811   6.366   0.189  0.00  0.00    -0.080 A 
ATOM     25  C   LIG    1      -10.780   7.705  -0.205  0.00  0.00    +0.030 A 
ATOM     26  C   LIG    1      -11.938   8.454  -0.184  0.00  0.00    +0.120 A 
ATOM     27  C   LIG    1      -13.127   7.885   0.236  0.00  0.00    -0.640 A 
ATOM     28  C   LIG    1      -13.164   6.560   0.634  0.00  0.00    +0.120 A 
ATOM     29  C   LIG    1      -12.014   5.798   0.612  0.00  0.00    +0.070 A 
BRANCH  27  30
ATOM     30  S   LIG    1      -14.600   8.851   0.267  0.00  0.00    +2.500 S 
ATOM     31  O   LIG    1      -15.646   7.900   0.126  0.00  0.00    -0.930 OA
ATOM     32  O   LIG    1      -14.383   9.852  -0.718  0.00  0.00    -0.930 OA
ATOM     33  C   LIG    1      -14.626   9.585   1.926  0.00  0.00    -0.250 C 
ENDBRANCH  27  30
ENDBRANCH  22  24
ENDBRANCH   4  20
TORSDOF 5
