REMARK  Name = ZINCkj00000dDA88.1
REMARK                            x       y       z     vdW  Elec       q    Type
REMARK                         _______ _______ _______ _____ _____    ______ ____
ROOT
ATOM      1  C   LIG    1       -0.729   1.579   1.267  0.00  0.00    +0.340 C 
ENDROOT
BRANCH   1   2
ATOM      2  C   LIG    1       -0.013   1.086   0.008  0.00  0.00    -0.040 C 
ATOM      3  C   LIG    1        1.424   1.616  -0.003  0.00  0.00    +0.080 C 
ATOM      4  C   LIG    1        2.206   0.933  -1.132  0.00  0.00    +0.190 C 
ATOM      5  C   LIG    1        1.381   1.015  -2.395  0.00  0.00    +0.300 C 
ATOM      6  N   LIG    1        1.785   0.823  -3.616  0.00  0.00    -0.470 N 
ATOM      7  C   LIG    1        0.750   0.989  -4.455  0.00  0.00    +0.220 C 
ATOM      8  C   LIG    1       -0.338   1.297  -3.721  0.00  0.00    +0.250 C 
ATOM      9  H   LIG    1        2.691   0.595  -3.879  0.00  0.00    +0.460 HD
ATOM     10  N   LIG    1        0.060   1.313  -2.418  0.00  0.00    -0.400 N 
ATOM     11  C   LIG    1       -0.755   1.593  -1.233  0.00  0.00    +0.340 C 
ENDBRANCH   1   2
BRANCH   1  12
ATOM     12  N   LIG    1       -2.062   0.976   1.338  0.00  0.00    -0.590 N 
ATOM     13  C   LIG    1       -2.252  -0.302   2.028  0.00  0.00    +0.310 C 
BRANCH  12  18
ATOM     14  C   LIG    1       -5.397   1.643   0.279  0.00  0.00    +0.410 A 
ATOM     15  C   LIG    1       -5.228   2.859  -0.380  0.00  0.00    -0.140 A 
ATOM     16  C   LIG    1       -3.962   3.410  -0.436  0.00  0.00    +0.390 A 
ATOM     17  N   LIG    1       -2.952   2.770   0.135  0.00  0.00    -0.600 NA
ATOM     18  C   LIG    1       -3.142   1.615   0.754  0.00  0.00    +0.590 A 
ATOM     19  N   LIG    1       -4.340   1.053   0.824  0.00  0.00    -0.620 NA
BRANCH  14  21
ATOM     20  C   LIG    1       -6.709  -0.180   1.050  0.00  0.00    +0.270 C 
ATOM     21  O   LIG    1       -6.621   1.067   0.357  0.00  0.00    -0.300 OA
ENDBRANCH  14  21
ENDBRANCH  12  18
ENDBRANCH   1  12
TORSDOF 4
