REMARK  Name = ZINCnE000001TDxu.0
REMARK                            x       y       z     vdW  Elec       q    Type
REMARK                         _______ _______ _______ _____ _____    ______ ____
ROOT
ATOM      1  C   LIG    1       -2.662   2.507  -2.315  0.00  0.00    -0.130 A 
ATOM      2  C   LIG    1       -1.988   2.470  -3.536  0.00  0.00    +0.050 A 
ATOM      3  C   LIG    1       -0.695   1.992  -3.589  0.00  0.00    -0.030 A 
ATOM      4  C   LIG    1       -0.074   1.551  -2.436  0.00  0.00    -0.010 A 
ATOM      5  C   LIG    1       -0.738   1.583  -1.216  0.00  0.00    -0.110 A 
ATOM      6  C   LIG    1       -0.013   1.086   0.008  0.00  0.00    +0.030 C 
ATOM      7  C   LIG    1       -0.724   1.577   1.269  0.00  0.00    +0.190 C 
ATOM      8  N   LIG    1       -2.154   1.259   1.155  0.00  0.00    -0.520 NA
ATOM      9  C   LIG    1       -2.785   2.121   0.151  0.00  0.00    +0.320 C 
ATOM     10  C   LIG    1       -2.026   2.060  -1.148  0.00  0.00    -0.080 A 
ENDROOT
BRANCH   1  12
ATOM     11  O   LIG    1       -4.600   3.407  -3.268  0.00  0.00    -0.680 OA
ATOM     12  C   LIG    1       -4.045   3.017  -2.251  0.00  0.00    +0.520 C 
ATOM     13  O   LIG    1       -4.636   3.050  -1.181  0.00  0.00    -0.680 OA
ENDBRANCH   1  12
BRANCH   8  14
ATOM     14  C   LIG    1       -2.354  -0.160   0.832  0.00  0.00    +0.280 C 
BRANCH  14  15
ATOM     15  C   LIG    1       -1.913  -1.008   1.997  0.00  0.00    -0.160 A 
ATOM     16  C   LIG    1       -2.680  -1.399   3.019  0.00  0.00    +0.230 A 
ATOM     17  N   LIG    1       -2.061  -2.142   3.914  0.00  0.00    -0.410 NA
ATOM     18  C   LIG    1       -0.811  -2.390   3.710  0.00  0.00    -0.100 A 
ATOM     19  S   LIG    1       -0.294  -1.652   2.256  0.00  0.00    +0.210 S 
BRANCH  18  20
ATOM     20  C   LIG    1        0.065  -3.212   4.619  0.00  0.00    +0.560 C 
ATOM     21  F   LIG    1        1.065  -2.399   5.164  0.00  0.00    -0.170 F 
ATOM     22  F   LIG    1        0.655  -4.248   3.887  0.00  0.00    -0.170 F 
ATOM     23  F   LIG    1       -0.710  -3.752   5.651  0.00  0.00    -0.160 F 
ENDBRANCH  18  20
ENDBRANCH  14  15
ENDBRANCH   8  14
TORSDOF 4
