REMARK  Name = ZINCnE00000hdcxa.1
REMARK                            x       y       z     vdW  Elec       q    Type
REMARK                         _______ _______ _______ _____ _____    ______ ____
ROOT
ATOM      1  C   LIG    1       -3.525   2.303   0.047  0.00  0.00    +0.390 A 
ATOM      2  N   LIG    1       -2.553   1.456   0.033  0.00  0.00    -0.510 NA
ATOM      3  C   LIG    1       -1.300   1.938   0.019  0.00  0.00    +0.130 A 
ATOM      4  C   LIG    1       -1.249   3.327   0.032  0.00  0.00    -0.320 A 
ATOM      5  C   LIG    1        0.050   4.002   0.024  0.00  0.00    +0.270 A 
ATOM      6  N   LIG    1        1.159   3.301   0.009  0.00  0.00    -0.270 NA
ATOM      7  N   LIG    1        1.139   1.905   0.001  0.00  0.00    -0.520 N 
ATOM      8  H   LIG    1        1.979   1.420  -0.009  0.00  0.00    +0.430 HD
ATOM      9  C   LIG    1       -0.015   1.216   0.009  0.00  0.00    +0.550 A 
ATOM     10  O   LIG    1        0.002  -0.004   0.002  0.00  0.00    -0.520 OA
ATOM     11  S   LIG    1       -2.897   3.946   0.050  0.00  0.00    +0.050 S 
ENDROOT
BRANCH   5  12
ATOM     12  C   LIG    1        0.112   5.478   0.032  0.00  0.00    -0.140 A 
ATOM     13  C   LIG    1        1.245   6.209   0.025  0.00  0.00    +0.050 A 
ATOM     14  C   LIG    1        1.050   7.574   0.035  0.00  0.00    +0.000 A 
ATOM     15  C   LIG    1       -0.229   7.963   0.049  0.00  0.00    -0.050 A 
ATOM     16  S   LIG    1       -1.279   6.553   0.043  0.00  0.00    +0.170 S 
ENDBRANCH   5  12
BRANCH   1  18
ATOM     17  C   LIG    1       -5.241   0.672   0.054  0.00  0.00    +0.460 C 
ATOM     18  N   LIG    1       -4.870   1.968   0.058  0.00  0.00    -0.670 NA
ATOM     19  O   LIG    1       -4.399  -0.200   0.041  0.00  0.00    -0.550 OA
BRANCH  17  20
ATOM     20  C   LIG    1       -6.703   0.307   0.066  0.00  0.00    +0.050 C 
BRANCH  20  21
ATOM     21  C   LIG    1       -6.849  -1.216   0.059  0.00  0.00    -0.010 C 
ATOM     22  C   LIG    1       -6.303  -1.774  -1.258  0.00  0.00    +0.010 C 
BRANCH  21  24
ATOM     23  C   LIG    1       -8.461  -3.107   0.314  0.00  0.00    +0.010 C 
ATOM     24  C   LIG    1       -8.327  -1.588   0.196  0.00  0.00    +0.000 C 
ENDBRANCH  21  24
ENDBRANCH  20  21
ENDBRANCH  17  20
ENDBRANCH   1  18
TORSDOF 5
