REMARK  Name = ZINCrH000004r5Gv.0
REMARK                            x       y       z     vdW  Elec       q    Type
REMARK                         _______ _______ _______ _____ _____    ______ ____
ROOT
ATOM      1  C   LIG    1       -3.665  -0.378   1.723  0.00  0.00    +0.570 C 
ATOM      2  N   LIG    1       -2.592  -0.347   0.907  0.00  0.00    -0.660 N 
ATOM      3  H   LIG    1       -2.607   0.199   0.106  0.00  0.00    +0.410 HD
ATOM      4  O   LIG    1       -3.678  -1.123   2.683  0.00  0.00    -0.500 OA
ENDROOT
BRANCH   1   9
ATOM      5  C   LIG    1       -8.185   3.020   0.657  0.00  0.00    +0.140 C 
ATOM      6  C   LIG    1       -7.002   2.130   0.936  0.00  0.00    +0.010 A 
ATOM      7  C   LIG    1       -5.902   2.164   0.098  0.00  0.00    +0.040 A 
ATOM      8  C   LIG    1       -4.812   1.356   0.351  0.00  0.00    +0.110 A 
ATOM      9  C   LIG    1       -4.826   0.495   1.449  0.00  0.00    -0.140 A 
ATOM     10  C   LIG    1       -5.939   0.465   2.291  0.00  0.00    +0.170 A 
ATOM     11  C   LIG    1       -7.019   1.282   2.030  0.00  0.00    -0.050 A 
BRANCH  11  12
ATOM     12  N   LIG    1       -8.200   1.253   2.922  0.00  0.00    +0.020 N 
ATOM     13  O   LIG    1       -8.572   0.199   3.405  0.00  0.00    -0.150 OA
ATOM     14  O   LIG    1       -8.800   2.283   3.174  0.00  0.00    -0.140 OA
ENDBRANCH  11  12
ENDBRANCH   1   9
BRANCH   2  15
ATOM     15  C   LIG    1       -1.462  -1.099   1.216  0.00  0.00    +0.190 A 
ATOM     16  C   LIG    1       -1.589  -2.299   1.903  0.00  0.00    +0.020 A 
ATOM     17  C   LIG    1       -0.466  -3.041   2.213  0.00  0.00    +0.060 A 
ATOM     18  C   LIG    1        0.792  -2.599   1.837  0.00  0.00    -0.010 A 
ATOM     19  C   LIG    1        0.936  -1.413   1.149  0.00  0.00    +0.060 A 
ATOM     20  C   LIG    1       -0.190  -0.652   0.828  0.00  0.00    -0.160 A 
BRANCH  20  21
ATOM     21  C   LIG    1       -0.042   0.618   0.093  0.00  0.00    +0.560 C 
ATOM     22  N   LIG    1        0.733   0.673  -1.008  0.00  0.00    -0.600 N 
ATOM     23  C   LIG    1        1.356  -0.544  -1.547  0.00  0.00    +0.260 C 
ATOM     24  C   LIG    1        0.982  -0.669  -3.031  0.00  0.00    +0.010 C 
ATOM     25  C   LIG    1        1.380   0.616  -3.761  0.00  0.00    +0.020 C 
ATOM     26  C   LIG    1        0.612   1.800  -3.169  0.00  0.00    +0.020 C 
ATOM     27  C   LIG    1        0.978   1.952  -1.689  0.00  0.00    +0.270 C 
ATOM     28  O   LIG    1       -0.625   1.614   0.476  0.00  0.00    -0.530 OA
ENDBRANCH  20  21
ENDBRANCH   2  15
TORSDOF 4
