REMARK  Name = ZINCqH0000037NPA.0
REMARK                            x       y       z     vdW  Elec       q    Type
REMARK                         _______ _______ _______ _____ _____    ______ ____
ROOT
ATOM      1  C   LIG    1        0.439   1.471  -0.087  0.00  0.00    +0.230 C 
ENDROOT
BRANCH   1   5
ATOM      2  C   LIG    1       -0.113  -2.893  -2.471  0.00  0.00    +0.100 C 
ATOM      3  C   LIG    1       -0.043  -2.107  -1.187  0.00  0.00    -0.060 A 
ATOM      4  C   LIG    1        0.152  -0.740  -1.222  0.00  0.00    +0.050 A 
ATOM      5  C   LIG    1        0.221  -0.019  -0.044  0.00  0.00    -0.060 A 
ATOM      6  C   LIG    1        0.084  -0.662   1.172  0.00  0.00    +0.030 A 
ATOM      7  C   LIG    1       -0.117  -2.028   1.214  0.00  0.00    +0.020 A 
ATOM      8  C   LIG    1       -0.181  -2.755   0.033  0.00  0.00    +0.130 A 
BRANCH   8   9
ATOM      9  N   LIG    1       -0.386  -4.142   0.073  0.00  0.00    -0.330 N 
ATOM     10  C   LIG    1        0.256  -5.031   0.856  0.00  0.00    +0.480 A 
ATOM     11  N   LIG    1       -0.222  -6.221   0.593  0.00  0.00    -0.540 NA
ATOM     12  C   LIG    1       -1.164  -6.133  -0.346  0.00  0.00    +0.420 A 
ATOM     13  N   LIG    1       -1.304  -4.880  -0.692  0.00  0.00    -0.310 NA
ENDBRANCH   8   9
ENDBRANCH   1   5
BRANCH   1  14
ATOM     14  N   LIG    1        1.879   1.757  -0.052  0.00  0.00    -0.530 NA
ATOM     15  C   LIG    1        2.465   1.357   1.236  0.00  0.00    +0.180 C 
ATOM     16  C   LIG    1        3.976   1.596   1.202  0.00  0.00    +0.190 C 
ATOM     17  N   LIG    1        4.239   3.015   0.925  0.00  0.00    -0.530 NA
ATOM     18  C   LIG    1        3.654   3.415  -0.362  0.00  0.00    +0.190 C 
ATOM     19  C   LIG    1        2.142   3.176  -0.329  0.00  0.00    +0.190 C 
BRANCH  17  20
ATOM     20  C   LIG    1        5.679   3.301   0.960  0.00  0.00    +0.270 C 
BRANCH  20  21
ATOM     21  C   LIG    1        6.288   2.662   2.182  0.00  0.00    -0.150 A 
ATOM     22  C   LIG    1        6.793   1.428   2.234  0.00  0.00    -0.110 A 
ATOM     23  C   LIG    1        7.300   1.057   3.468  0.00  0.00    +0.030 A 
ATOM     24  C   LIG    1        7.208   1.990   4.417  0.00  0.00    -0.040 A 
ATOM     25 BR   LIG    1        6.813   0.273   0.737  0.00  0.00    -0.020 Br
ATOM     26  S   LIG    1        6.450   3.432   3.755  0.00  0.00    +0.170 S 
ENDBRANCH  20  21
ENDBRANCH  17  20
ENDBRANCH   1  14
TORSDOF 5
