REMARK  Name = ZINCkj000005jd7w.2
REMARK                            x       y       z     vdW  Elec       q    Type
REMARK                         _______ _______ _______ _____ _____    ______ ____
ROOT
ATOM      1  N   LIG    1        2.321   5.103  -0.883  0.00  0.00    -0.380 N 
ATOM      2  C   LIG    1        3.584   5.854  -0.891  0.00  0.00    +0.330 C 
ATOM      3  H   LIG    1        1.579   5.697  -0.547  0.00  0.00    +0.430 HD
ENDROOT
BRANCH   1   5
ATOM      4  C   LIG    1        2.775   4.404   1.420  0.00  0.00    +0.100 C 
ATOM      5  C   LIG    1        2.451   3.936  -0.000  0.00  0.00    +0.230 C 
BRANCH   5   6
ATOM      6  C   LIG    1        1.156   3.166   0.008  0.00  0.00    -0.160 A 
ATOM      7  C   LIG    1        1.175   1.783   0.000  0.00  0.00    +0.100 A 
ATOM      8  C   LIG    1       -0.013   1.076   0.008  0.00  0.00    +0.010 A 
ATOM      9  C   LIG    1       -1.221   1.752   0.017  0.00  0.00    +0.130 A 
ATOM     10  C   LIG    1       -1.238   3.136   0.030  0.00  0.00    +0.010 A 
ATOM     11  F   LIG    1       -2.382   1.062   0.019  0.00  0.00    -0.120 F 
ATOM     12  C   LIG    1       -0.050   3.842   0.023  0.00  0.00    +0.030 A 
ENDBRANCH   5   6
ENDBRANCH   1   5
BRANCH   1  13
ATOM     13  C   LIG    1        2.010   4.653  -2.247  0.00  0.00    +0.320 C 
BRANCH  13  14
ATOM     14  C   LIG    1        1.756   5.851  -3.125  0.00  0.00    +0.550 C 
ATOM     15  N   LIG    1        1.450   5.680  -4.426  0.00  0.00    -0.570 N 
ATOM     16  C   LIG    1        1.175   6.759  -5.386  0.00  0.00    +0.300 C 
ATOM     17  C   LIG    1        0.891   6.016  -6.706  0.00  0.00    +0.280 C 
ATOM     18  N   LIG    1        1.028   4.597  -6.348  0.00  0.00    -0.710 N 
ATOM     19  H   LIG    1        0.909   3.850  -6.955  0.00  0.00    +0.450 HD
ATOM     20  C   LIG    1        1.343   4.499  -5.049  0.00  0.00    +0.700 C 
ATOM     21  O   LIG    1        1.515   3.435  -4.487  0.00  0.00    -0.550 OA
ATOM     22  O   LIG    1        1.827   6.969  -2.661  0.00  0.00    -0.490 OA
ENDBRANCH  13  14
ENDBRANCH   1  13
TORSDOF 4
