REMARK  Name = ZINCkj000005jd7w.1
REMARK                            x       y       z     vdW  Elec       q    Type
REMARK                         _______ _______ _______ _____ _____    ______ ____
ROOT
ATOM      1  N   LIG    1        4.046  -0.270  -0.038  0.00  0.00    -0.380 N 
ATOM      2  C   LIG    1        4.644   0.213   1.214  0.00  0.00    +0.330 C 
ATOM      3  H   LIG    1        4.466   0.211  -0.819  0.00  0.00    +0.420 HD
ENDROOT
BRANCH   1   5
ATOM      4  C   LIG    1        3.658  -2.217  -1.472  0.00  0.00    +0.100 C 
ATOM      5  C   LIG    1        4.281  -1.714  -0.168  0.00  0.00    +0.230 C 
BRANCH   5   6
ATOM      6  C   LIG    1        5.764  -1.982  -0.183  0.00  0.00    -0.150 A 
ATOM      7  C   LIG    1        6.611  -1.139  -0.879  0.00  0.00    +0.040 A 
ATOM      8  C   LIG    1        7.971  -1.380  -0.890  0.00  0.00    +0.010 A 
ATOM      9  C   LIG    1        8.485  -2.473  -0.212  0.00  0.00    +0.130 A 
ATOM     10  C   LIG    1        7.636  -3.320   0.480  0.00  0.00    +0.010 A 
ATOM     11  F   LIG    1        9.815  -2.713  -0.226  0.00  0.00    -0.120 F 
ATOM     12  C   LIG    1        6.276  -3.073   0.493  0.00  0.00    +0.090 A 
ENDBRANCH   5   6
ENDBRANCH   1   5
BRANCH   1  13
ATOM     13  C   LIG    1        2.600  -0.009  -0.022  0.00  0.00    +0.330 C 
BRANCH  13  14
ATOM     14  C   LIG    1        2.358   1.479  -0.013  0.00  0.00    +0.540 C 
ATOM     15  N   LIG    1        1.098   1.957   0.002  0.00  0.00    -0.570 N 
ATOM     16  C   LIG    1        0.727   3.380   0.013  0.00  0.00    +0.300 C 
ATOM     17  C   LIG    1       -0.814   3.358   0.028  0.00  0.00    +0.280 C 
ATOM     18  N   LIG    1       -1.147   1.926   0.018  0.00  0.00    -0.710 N 
ATOM     19  H   LIG    1       -2.044   1.558   0.020  0.00  0.00    +0.450 HD
ATOM     20  C   LIG    1       -0.014   1.211   0.009  0.00  0.00    +0.700 C 
ATOM     21  O   LIG    1        0.002  -0.004   0.002  0.00  0.00    -0.560 OA
ATOM     22  O   LIG    1        3.297   2.246  -0.018  0.00  0.00    -0.490 OA
ENDBRANCH  13  14
ENDBRANCH   1  13
TORSDOF 4
