REMARK  Name = ZINCnE000001KIGD.0
REMARK                            x       y       z     vdW  Elec       q    Type
REMARK                         _______ _______ _______ _____ _____    ______ ____
ROOT
ATOM      1  N   LIG    1       -2.924   0.715   1.402  0.00  0.00    -0.670 NA
ATOM      2  C   LIG    1       -4.022   1.248   1.866  0.00  0.00    +0.440 A 
ATOM      3  N   LIG    1       -4.882   2.070   1.183  0.00  0.00    -0.520 NA
ATOM      4  N   LIG    1       -5.917   2.393   2.073  0.00  0.00    -0.260 NA
ATOM      5  C   LIG    1       -5.671   1.805   3.206  0.00  0.00    +0.100 A 
ATOM      6  O   LIG    1       -4.522   1.099   3.110  0.00  0.00    -0.290 OA
ENDROOT
BRANCH   5   7
ATOM      7  C   LIG    1       -6.519   1.893   4.415  0.00  0.00    +0.080 A 
ATOM      8  C   LIG    1       -6.170   1.216   5.589  0.00  0.00    -0.020 A 
ATOM      9  C   LIG    1       -6.986   1.331   6.695  0.00  0.00    +0.250 A 
ATOM     10  N   LIG    1       -8.087   2.058   6.652  0.00  0.00    -0.500 NA
ATOM     11  C   LIG    1       -8.455   2.708   5.564  0.00  0.00    +0.260 A 
ATOM     12  C   LIG    1       -7.695   2.653   4.415  0.00  0.00    -0.010 A 
ENDBRANCH   5   7
BRANCH   1  13
ATOM     13  C   LIG    1       -2.512   0.974   0.020  0.00  0.00    +0.240 C 
BRANCH  13  16
ATOM     14  C   LIG    1       -0.059   3.847   0.022  0.00  0.00    +0.140 A 
ATOM     15  C   LIG    1       -1.245   3.132   0.030  0.00  0.00    -0.050 A 
ATOM     16  C   LIG    1       -1.220   1.749   0.017  0.00  0.00    -0.010 A 
ATOM     17  C   LIG    1       -0.013   1.076   0.008  0.00  0.00    +0.000 A 
ATOM     18  C   LIG    1        1.176   1.782   0.000  0.00  0.00    +0.020 A 
ATOM     19  C   LIG    1        1.159   3.169   0.008  0.00  0.00    -0.130 A 
BRANCH  14  21
ATOM     20  C   LIG    1       -1.367   5.833   0.045  0.00  0.00    +0.250 C 
ATOM     21  O   LIG    1       -0.083   5.207   0.030  0.00  0.00    -0.310 OA
ENDBRANCH  14  21
BRANCH  19  22
ATOM     22  S   LIG    1        2.672   4.072  -0.002  0.00  0.00    -0.110 S 
ATOM     23  C   LIG    1        3.928   2.763  -0.019  0.00  0.00    +0.110 C 
ENDBRANCH  19  22
ENDBRANCH  13  16
ENDBRANCH   1  13
TORSDOF 5
