REMARK  Name = ZINCqH0000000qPq.0
REMARK                            x       y       z     vdW  Elec       q    Type
REMARK                         _______ _______ _______ _____ _____    ______ ____
ROOT
ATOM      1  C   LIG    1       -1.089  -2.063  -2.333  0.00  0.00    +0.510 C 
ATOM      2  N   LIG    1       -0.649  -2.521  -3.522  0.00  0.00    -0.670 N 
ATOM      3  H   LIG    1        0.199  -2.988  -3.578  0.00  0.00    +0.410 HD
ATOM      4  O   LIG    1       -2.103  -1.399  -2.277  0.00  0.00    -0.500 OA
ENDROOT
BRANCH   2   5
ATOM      5  C   LIG    1       -1.417  -2.321  -4.677  0.00  0.00    +0.130 A 
ATOM      6  C   LIG    1       -2.803  -2.326  -4.599  0.00  0.00    +0.060 A 
ATOM      7  C   LIG    1       -3.559  -2.126  -5.737  0.00  0.00    -0.030 A 
ATOM      8  C   LIG    1       -2.934  -1.929  -6.960  0.00  0.00    +0.090 A 
ATOM      9  C   LIG    1       -1.549  -1.929  -7.040  0.00  0.00    +0.040 A 
ATOM     10  C   LIG    1       -0.792  -2.125  -5.902  0.00  0.00    +0.030 A 
BRANCH   8  11
ATOM     11  O   LIG    1       -3.679  -1.737  -8.081  0.00  0.00    -0.310 OA
BRANCH  11  12
ATOM     12  C   LIG    1       -5.099  -1.750  -7.926  0.00  0.00    +0.600 C 
ATOM     13  F   LIG    1       -5.502  -2.988  -7.415  0.00  0.00    -0.160 F 
ATOM     14  F   LIG    1       -5.706  -1.539  -9.169  0.00  0.00    -0.130 F 
ATOM     15  F   LIG    1       -5.481  -0.734  -7.043  0.00  0.00    -0.160 F 
ENDBRANCH  11  12
ENDBRANCH   8  11
ENDBRANCH   2   5
BRANCH   1  16
ATOM     16  C   LIG    1       -0.323  -2.377  -1.075  0.00  0.00    +0.080 C 
BRANCH  16  17
ATOM     17  C   LIG    1       -1.031  -1.744   0.125  0.00  0.00    +0.310 C 
BRANCH  17  18
ATOM     18  C   LIG    1       -0.334  -2.159   1.395  0.00  0.00    -0.100 A 
ATOM     19  C   LIG    1        0.805  -1.494   1.808  0.00  0.00    +0.010 A 
ATOM     20  C   LIG    1        1.441  -1.871   2.975  0.00  0.00    +0.000 A 
ATOM     21  C   LIG    1        0.943  -2.920   3.726  0.00  0.00    +0.000 A 
ATOM     22  C   LIG    1       -0.193  -3.589   3.311  0.00  0.00    +0.000 A 
ATOM     23  C   LIG    1       -0.832  -3.208   2.145  0.00  0.00    +0.020 A 
ENDBRANCH  17  18
BRANCH  17  26
ATOM     24  C   LIG    1       -1.790   1.974   0.617  0.00  0.00    +0.100 C 
ATOM     25  C   LIG    1       -1.895   0.471   0.657  0.00  0.00    +0.520 C 
ATOM     26  N   LIG    1       -0.992  -0.285   0.001  0.00  0.00    -0.720 N 
ATOM     27  H   LIG    1       -0.317   0.137  -0.553  0.00  0.00    +0.400 HD
ATOM     28  O   LIG    1       -2.791  -0.058   1.279  0.00  0.00    -0.540 OA
ENDBRANCH  17  26
ENDBRANCH  16  17
ENDBRANCH   1  16
TORSDOF 7
