REMARK  Name = ZINCrg00000SjSBL.0
REMARK                            x       y       z     vdW  Elec       q    Type
REMARK                         _______ _______ _______ _____ _____    ______ ____
ROOT
ATOM      1  N   LIG    1      -11.033   2.354  -3.085  0.00  0.00    -0.480 N 
ATOM      2  C   LIG    1      -11.207   2.417  -1.628  0.00  0.00    +0.230 C 
ATOM      3  C   LIG    1      -10.077   3.248  -1.016  0.00  0.00    +0.210 C 
ATOM      4  N   LIG    1       -8.784   2.643  -1.363  0.00  0.00    -0.560 NA
ATOM      5  C   LIG    1       -8.609   2.580  -2.821  0.00  0.00    +0.210 C 
ATOM      6  C   LIG    1       -9.739   1.749  -3.432  0.00  0.00    +0.210 C 
ENDROOT
BRANCH   1  11
ATOM      7  C   LIG    1      -13.158   0.806  -5.649  0.00  0.00    +0.050 A 
ATOM      8  C   LIG    1      -14.164   0.305  -4.813  0.00  0.00    -0.010 A 
ATOM      9  C   LIG    1      -14.073   0.514  -3.453  0.00  0.00    +0.310 A 
ATOM     10  N   LIG    1      -13.053   1.170  -2.933  0.00  0.00    -0.500 NA
ATOM     11  C   LIG    1      -12.082   1.666  -3.684  0.00  0.00    +0.320 A 
ATOM     12  C   LIG    1      -12.097   1.500  -5.064  0.00  0.00    +0.010 A 
BRANCH   7  14
ATOM     13  N   LIG    1      -13.261   0.456  -8.191  0.00  0.00    -0.390 NA
ATOM     14  C   LIG    1      -13.215   0.611  -7.067  0.00  0.00    +0.250 C 
ENDBRANCH   7  14
ENDBRANCH   1  11
BRANCH   4  15
ATOM     15  C   LIG    1       -7.675   3.370  -0.731  0.00  0.00    +0.530 C 
BRANCH  15  16
ATOM     16  N   LIG    1       -6.527   2.474  -0.577  0.00  0.00    -0.400 N 
ATOM     17  N   LIG    1       -6.396   1.451   0.370  0.00  0.00    +0.030 NA
ATOM     18  N   LIG    1       -5.307   0.887   0.215  0.00  0.00    +0.030 NA
ATOM     19  N   LIG    1       -4.617   1.494  -0.841  0.00  0.00    -0.400 N 
ATOM     20  C   LIG    1       -5.402   2.482  -1.324  0.00  0.00    +0.460 A 
ATOM     21  S   LIG    1       -5.041   3.535  -2.624  0.00  0.00    -0.530 S 
BRANCH  19  22
ATOM     22  C   LIG    1       -3.289   1.123  -1.336  0.00  0.00    +0.390 C 
BRANCH  22  23
ATOM     23  C   LIG    1       -2.223   1.924  -0.587  0.00  0.00    +0.140 C 
ATOM     24  C   LIG    1       -0.833   1.634  -1.185  0.00  0.00    +0.030 C 
ATOM     25  C   LIG    1       -0.013   1.086   0.008  0.00  0.00    +0.010 C 
ATOM     26  C   LIG    1       -0.810   1.621   1.224  0.00  0.00    +0.210 C 
ATOM     27  O   LIG    1       -2.186   1.524   0.793  0.00  0.00    -0.370 OA
ENDBRANCH  22  23
ENDBRANCH  19  22
ENDBRANCH  15  16
ENDBRANCH   4  15
TORSDOF 6
