REMARK  Name = ZINCqH0000007P1A.0
REMARK                            x       y       z     vdW  Elec       q    Type
REMARK                         _______ _______ _______ _____ _____    ______ ____
ROOT
ATOM      1  N   LIG    1        2.037   0.549   1.839  0.00  0.00    -0.980 NA
ENDROOT
BRANCH   1   2
ATOM      2  S   LIG    1        2.858   1.803   2.542  0.00  0.00    +2.720 S 
ATOM      3  O   LIG    1        3.700   2.347   1.535  0.00  0.00    -0.930 OA
ATOM      4  O   LIG    1        3.347   1.316   3.785  0.00  0.00    -0.940 OA
BRANCH   2   5
ATOM      5  C   LIG    1        1.674   3.050   2.928  0.00  0.00    -0.800 A 
ATOM      6  C   LIG    1        1.313   4.119   2.178  0.00  0.00    +0.110 A 
ATOM      7  O   LIG    1        0.382   4.779   2.881  0.00  0.00    +0.100 OA
ATOM      8  N   LIG    1        0.160   4.240   3.940  0.00  0.00    -0.360 NA
ATOM      9  C   LIG    1        1.852   4.491   0.821  0.00  0.00    +0.220 C 
ATOM     10  C   LIG    1        0.885   3.170   4.095  0.00  0.00    +0.100 A 
ATOM     11  C   LIG    1        0.883   2.242   5.283  0.00  0.00    +0.190 C 
ENDBRANCH   2   5
ENDBRANCH   1   2
BRANCH   1  12
ATOM     12  C   LIG    1        1.980   0.438   0.379  0.00  0.00    +0.350 C 
BRANCH  12  18
ATOM     13  C   LIG    1        4.199  -0.613  -0.130  0.00  0.00    +0.140 A 
ATOM     14  C   LIG    1        5.484  -0.551  -0.650  0.00  0.00    -0.100 A 
ATOM     15  C   LIG    1        5.941   0.621  -1.221  0.00  0.00    +0.050 A 
ATOM     16  C   LIG    1        5.117   1.730  -1.279  0.00  0.00    -0.050 A 
ATOM     17  C   LIG    1        3.838   1.672  -0.756  0.00  0.00    +0.130 A 
ATOM     18  C   LIG    1        3.376   0.502  -0.184  0.00  0.00    -0.170 A 
BRANCH  13  20
ATOM     19  C   LIG    1        4.638  -2.884   0.424  0.00  0.00    +0.220 C 
ATOM     20  O   LIG    1        3.748  -1.765   0.433  0.00  0.00    -0.290 OA
ENDBRANCH  13  20
ENDBRANCH  12  18
ENDBRANCH   1  12
BRANCH   1  21
ATOM     21  C   LIG    1        1.368  -0.450   2.676  0.00  0.00    +0.390 C 
BRANCH  21  22
ATOM     22  C   LIG    1        2.291  -1.621   2.896  0.00  0.00    -0.200 A 
ATOM     23  C   LIG    1        3.250  -1.681   3.821  0.00  0.00    +0.030 A 
ATOM     24  C   LIG    1        3.973  -2.862   3.835  0.00  0.00    +0.010 A 
ATOM     25  C   LIG    1        3.602  -3.759   2.921  0.00  0.00    -0.070 A 
ATOM     26  S   LIG    1        2.265  -3.120   1.975  0.00  0.00    +0.140 S 
ENDBRANCH  21  22
ENDBRANCH   1  21
TORSDOF 7
