REMARK  Name = ZINCqH0000008vAK.0
REMARK                            x       y       z     vdW  Elec       q    Type
REMARK                         _______ _______ _______ _____ _____    ______ ____
ROOT
ATOM      1  C   LIG    1       -0.937   0.736  -2.268  0.00  0.00    +0.520 C 
ATOM      2  N   LIG    1       -0.494   1.581  -1.316  0.00  0.00    -0.610 N 
ATOM      3  C   LIG    1        0.415   1.110  -0.262  0.00  0.00    +0.280 C 
ATOM      4  C   LIG    1       -0.180   1.469   1.103  0.00  0.00    +0.030 C 
ATOM      5  C   LIG    1       -0.474   2.970   1.148  0.00  0.00    +0.070 C 
ATOM      6  C   LIG    1       -1.494   3.327   0.064  0.00  0.00    +0.020 C 
ATOM      7  C   LIG    1       -0.911   2.990  -1.312  0.00  0.00    +0.270 C 
ATOM      8  O   LIG    1       -0.586  -0.425  -2.260  0.00  0.00    -0.510 OA
ENDROOT
BRANCH   5   9
ATOM      9  C   LIG    1       -1.032   3.332   2.500  0.00  0.00    -0.160 A 
ATOM     10  C   LIG    1       -2.155   2.850   3.056  0.00  0.00    +0.230 A 
ATOM     11  N   LIG    1       -2.340   3.409   4.292  0.00  0.00    -0.600 N 
ATOM     12  H   LIG    1       -3.083   3.215   4.884  0.00  0.00    +0.420 HD
ATOM     13  C   LIG    1       -1.315   4.285   4.568  0.00  0.00    +0.090 A 
ATOM     14  C   LIG    1       -1.019   5.100   5.655  0.00  0.00    -0.010 A 
ATOM     15  C   LIG    1        0.113   5.886   5.634  0.00  0.00    +0.030 A 
ATOM     16  C   LIG    1        0.963   5.873   4.537  0.00  0.00    -0.030 A 
ATOM     17  C   LIG    1        0.690   5.080   3.457  0.00  0.00    +0.050 A 
ATOM     18  C   LIG    1       -0.448   4.272   3.460  0.00  0.00    -0.100 A 
ENDBRANCH   5   9
BRANCH   1  20
ATOM     19  C   LIG    1       -1.145   2.265  -4.209  0.00  0.00    +0.060 C 
ATOM     20  C   LIG    1       -1.870   1.234  -3.342  0.00  0.00    +0.170 C 
BRANCH  20  21
ATOM     21  O   LIG    1       -2.287   0.137  -4.157  0.00  0.00    -0.280 OA
BRANCH  21  22
ATOM     22  C   LIG    1       -3.477   0.264  -4.802  0.00  0.00    +0.080 A 
ATOM     23  C   LIG    1       -4.182   1.462  -4.750  0.00  0.00    -0.030 A 
ATOM     24  C   LIG    1       -5.390   1.544  -5.423  0.00  0.00    +0.010 A 
ATOM     25  C   LIG    1       -5.851   0.443  -6.120  0.00  0.00    +0.220 A 
ATOM     26  N   LIG    1       -5.158  -0.678  -6.149  0.00  0.00    -0.440 NA
ATOM     27  C   LIG    1       -4.001  -0.796  -5.527  0.00  0.00    +0.250 A 
ENDBRANCH  21  22
ENDBRANCH  20  21
ENDBRANCH   1  20
TORSDOF 4
