REMARK  Name = ZINCrH000004nh6g.0
REMARK                            x       y       z     vdW  Elec       q    Type
REMARK                         _______ _______ _______ _____ _____    ______ ____
ROOT
ATOM      1  C   LIG    1       -2.160   5.344   3.850  0.00  0.00    +0.380 A 
ATOM      2  N   LIG    1       -2.705   4.508   4.714  0.00  0.00    -0.500 NA
ATOM      3  C   LIG    1       -3.379   4.972   5.775  0.00  0.00    +0.170 A 
ATOM      4  C   LIG    1       -3.969   4.113   6.712  0.00  0.00    +0.030 A 
ATOM      5  C   LIG    1       -4.644   4.637   7.775  0.00  0.00    +0.070 A 
ATOM      6  C   LIG    1       -4.757   6.014   7.944  0.00  0.00    +0.000 A 
ATOM      7  C   LIG    1       -4.194   6.878   7.051  0.00  0.00    +0.090 A 
ATOM      8  C   LIG    1       -3.495   6.374   5.950  0.00  0.00    -0.140 A 
ATOM      9  C   LIG    1       -2.890   7.224   4.990  0.00  0.00    +0.400 A 
ATOM     10  N   LIG    1       -2.241   6.667   3.979  0.00  0.00    -0.540 NA
ENDROOT
BRANCH   9  11
ATOM     11  N   LIG    1       -2.971   8.595   5.110  0.00  0.00    -0.490 N 
ATOM     12  C   LIG    1       -3.701   9.174   3.990  0.00  0.00    +0.200 C 
ATOM     13  C   LIG    1       -3.821  10.676   4.083  0.00  0.00    +0.050 C 
ATOM     14  C   LIG    1       -2.583  11.401   4.522  0.00  0.00    -0.020 C 
ATOM     15  C   LIG    1       -1.547  11.530   3.385  0.00  0.00    +0.200 C 
ATOM     16  O   LIG    1       -0.305  11.807   4.058  0.00  0.00    -0.380 OA
ATOM     17  C   LIG    1       -0.359  11.304   5.402  0.00  0.00    +0.200 C 
ATOM     18  C   LIG    1       -1.761  10.673   5.601  0.00  0.00    +0.000 C 
ATOM     19  C   LIG    1       -1.643   9.186   5.264  0.00  0.00    +0.210 C 
ENDBRANCH   9  11
BRANCH   1  24
ATOM     20  C   LIG    1       -0.625   2.893   1.444  0.00  0.00    +0.120 A 
ATOM     21  C   LIG    1       -0.039   3.751   0.524  0.00  0.00    -0.060 A 
ATOM     22  C   LIG    1       -0.150   5.120   0.681  0.00  0.00    +0.040 A 
ATOM     23  C   LIG    1       -0.836   5.642   1.759  0.00  0.00    +0.030 A 
ATOM     24  C   LIG    1       -1.423   4.787   2.691  0.00  0.00    -0.010 A 
ATOM     25  C   LIG    1       -1.315   3.407   2.529  0.00  0.00    +0.050 A 
BRANCH  20  27
ATOM     26  C   LIG    1        0.209   1.087   0.141  0.00  0.00    +0.250 C 
ATOM     27  O   LIG    1       -0.517   1.548   1.283  0.00  0.00    -0.320 OA
ENDBRANCH  20  27
ENDBRANCH   1  24
TORSDOF 3
