REMARK  Name = ZINCkj00000GeR3h.0
REMARK                            x       y       z     vdW  Elec       q    Type
REMARK                         _______ _______ _______ _____ _____    ______ ____
ROOT
ATOM      1  N   LIG    1       -0.012   1.005   0.008  0.00  0.00    -0.500 N 
ATOM      2  H   LIG    1        0.935   1.354   0.000  0.00  0.00    +0.440 HD
ATOM      3  H   LIG    1        0.002  -0.004   0.002  0.00  0.00    +0.430 HD
ENDROOT
BRANCH   1   8
ATOM      4  C   LIG    1       -4.131   1.451  -4.162  0.00  0.00    +0.450 A 
ATOM      5  N   LIG    1       -4.066   1.083  -2.906  0.00  0.00    -0.300 NA
ATOM      6  N   LIG    1       -2.721   1.164  -2.535  0.00  0.00    -0.390 N 
ATOM      7  C   LIG    1       -2.119   0.861  -1.237  0.00  0.00    +0.350 C 
ATOM      8  C   LIG    1       -0.722   1.492  -1.183  0.00  0.00    +0.170 C 
ATOM      9  C   LIG    1        0.063   1.104  -2.439  0.00  0.00    +0.070 C 
ATOM     10  C   LIG    1       -0.554   1.806  -3.657  0.00  0.00    +0.210 C 
ATOM     11  C   LIG    1       -2.046   1.585  -3.622  0.00  0.00    +0.270 A 
ATOM     12  N   LIG    1       -2.903   1.754  -4.589  0.00  0.00    -0.520 NA
ENDBRANCH   1   8
BRANCH   1  13
ATOM     13  C   LIG    1       -0.699   1.479   1.216  0.00  0.00    +0.330 C 
BRANCH  13  14
ATOM     14  C   LIG    1        0.030   0.979   2.437  0.00  0.00    -0.210 A 
ATOM     15  C   LIG    1       -0.316  -0.233   3.004  0.00  0.00    +0.090 A 
ATOM     16  C   LIG    1        0.349  -0.696   4.121  0.00  0.00    +0.000 A 
ATOM     17  C   LIG    1        1.367   0.062   4.694  0.00  0.00    +0.150 A 
ATOM     18  O   LIG    1        2.132  -0.192   5.792  0.00  0.00    -0.290 OA
ATOM     19  C   LIG    1        3.311   0.630   5.748  0.00  0.00    +0.260 C 
ATOM     20  C   LIG    1        2.841   1.860   4.936  0.00  0.00    +0.080 C 
ATOM     21  C   LIG    1        1.706   1.278   4.115  0.00  0.00    -0.170 A 
ATOM     22  C   LIG    1        1.043   1.736   2.998  0.00  0.00    +0.090 A 
ENDBRANCH  13  14
ENDBRANCH   1  13
TORSDOF 3
