REMARK  Name = ZINCqH0000008w8q.0
REMARK                            x       y       z     vdW  Elec       q    Type
REMARK                         _______ _______ _______ _____ _____    ______ ____
ROOT
ATOM      1  C   LIG    1       -4.079   3.288   4.364  0.00  0.00    +0.100 C 
ATOM      2  C   LIG    1       -2.786   3.359   5.179  0.00  0.00    +0.110 C 
ENDROOT
BRANCH   2   3
ATOM      3  C   LIG    1       -2.995   4.251   6.376  0.00  0.00    +0.470 A 
ATOM      4  N   LIG    1       -3.513   3.728   7.453  0.00  0.00    -0.580 NA
ATOM      5  C   LIG    1       -3.730   4.460   8.562  0.00  0.00    +0.540 A 
ATOM      6  C   LIG    1       -3.365   5.888   8.533  0.00  0.00    -0.210 A 
ATOM      7  C   LIG    1       -3.554   6.721   9.632  0.00  0.00    +0.130 A 
ATOM      8  C   LIG    1       -3.193   8.049   9.546  0.00  0.00    +0.000 A 
ATOM      9  C   LIG    1       -2.646   8.555   8.375  0.00  0.00    +0.090 A 
ATOM     10  C   LIG    1       -2.453   7.740   7.278  0.00  0.00    -0.020 A 
ATOM     11  C   LIG    1       -2.810   6.401   7.346  0.00  0.00    +0.170 A 
ATOM     12  O   LIG    1       -4.215   3.957   9.560  0.00  0.00    -0.470 OA
ATOM     13  N   LIG    1       -2.633   5.542   6.279  0.00  0.00    -0.620 N 
ATOM     14  H   LIG    1       -2.249   5.874   5.453  0.00  0.00    +0.420 HD
ENDBRANCH   2   3
BRANCH   2  15
ATOM     15  S   LIG    1       -1.460   4.034   4.148  0.00  0.00    +0.070 S 
BRANCH  15  16
ATOM     16  C   LIG    1       -1.327   2.755   2.944  0.00  0.00    +0.130 A 
ATOM     17  N   LIG    1       -2.040   1.656   2.895  0.00  0.00    -0.270 NA
ATOM     18  N   LIG    1       -1.676   0.957   1.878  0.00  0.00    -0.270 NA
ATOM     19  C   LIG    1       -0.718   1.572   1.248  0.00  0.00    +0.190 A 
ATOM     20  O   LIG    1       -0.475   2.725   1.902  0.00  0.00    -0.200 OA
BRANCH  19  21
ATOM     21  C   LIG    1       -0.013   1.086   0.008  0.00  0.00    +0.260 C 
BRANCH  21  22
ATOM     22  C   LIG    1       -0.742   1.585  -1.213  0.00  0.00    -0.100 A 
ATOM     23  C   LIG    1       -1.750   0.825  -1.775  0.00  0.00    +0.030 A 
ATOM     24  C   LIG    1       -2.422   1.285  -2.892  0.00  0.00    +0.010 A 
ATOM     25  C   LIG    1       -2.078   2.501  -3.453  0.00  0.00    +0.020 A 
ATOM     26  C   LIG    1       -1.066   3.259  -2.894  0.00  0.00    +0.010 A 
ATOM     27  C   LIG    1       -0.398   2.801  -1.774  0.00  0.00    +0.010 A 
ENDBRANCH  21  22
ENDBRANCH  19  21
ENDBRANCH  15  16
ENDBRANCH   2  15
TORSDOF 5
