REMARK  Name = ZINCpk00001AZins.0
REMARK                            x       y       z     vdW  Elec       q    Type
REMARK                         _______ _______ _______ _____ _____    ______ ____
ROOT
ATOM      1  C   LIG    1       -1.105   2.268   0.020  0.00  0.00    +0.530 C 
ATOM      2  N   LIG    1       -0.018   1.471   0.010  0.00  0.00    -0.630 N 
ATOM      3  C   LIG    1        0.002  -0.004   0.002  0.00  0.00    +0.250 C 
ATOM      4  C   LIG    1        1.331  -0.435  -0.645  0.00  0.00    +0.280 C 
ATOM      5  C   LIG    1        2.067   0.886  -0.968  0.00  0.00    +0.080 C 
ATOM      6  C   LIG    1        1.401   1.897  -0.001  0.00  0.00    +0.290 C 
ATOM      7  O   LIG    1       -0.973   3.473   0.025  0.00  0.00    -0.540 OA
ENDROOT
BRANCH   5   8
ATOM      8  C   LIG    1        3.541   0.761  -0.677  0.00  0.00    +0.010 A 
ATOM      9  C   LIG    1        4.130   0.954   0.519  0.00  0.00    +0.130 A 
ATOM     10  N   LIG    1        5.470   0.737   0.340  0.00  0.00    -0.460 N 
ATOM     11  C   LIG    1        5.653   0.427  -0.962  0.00  0.00    +0.400 A 
ATOM     12  C   LIG    1        6.510   0.828   1.367  0.00  0.00    +0.330 C 
ATOM     13  N   LIG    1        4.495   0.443  -1.563  0.00  0.00    -0.480 NA
ENDBRANCH   5   8
BRANCH   4  14
ATOM     14  N   LIG    1        1.077  -1.189  -1.875  0.00  0.00    -0.680 N 
ATOM     15  H   LIG    1        1.061  -0.732  -2.731  0.00  0.00    +0.420 HD
BRANCH  14  16
ATOM     16  C   LIG    1        0.861  -2.555  -1.817  0.00  0.00    +0.600 A 
ATOM     17  N   LIG    1        0.887  -3.164  -0.641  0.00  0.00    -0.590 NA
ATOM     18  C   LIG    1        0.684  -4.469  -0.546  0.00  0.00    +0.390 A 
ATOM     19  C   LIG    1        0.443  -5.200  -1.694  0.00  0.00    -0.150 A 
ATOM     20  C   LIG    1        0.421  -4.532  -2.917  0.00  0.00    +0.400 A 
ATOM     21  N   LIG    1        0.627  -3.220  -2.939  0.00  0.00    -0.620 NA
BRANCH  20  22
ATOM     22  O   LIG    1        0.188  -5.209  -4.067  0.00  0.00    -0.300 OA
ATOM     23  C   LIG    1        0.182  -4.451  -5.278  0.00  0.00    +0.260 C 
ENDBRANCH  20  22
ENDBRANCH  14  16
ENDBRANCH   4  14
BRANCH   1  24
ATOM     24  C   LIG    1       -2.484   1.661   0.024  0.00  0.00    +0.040 C 
BRANCH  24  26
ATOM     25  C   LIG    1       -4.932   2.160   0.039  0.00  0.00    +0.010 C 
ATOM     26  C   LIG    1       -3.532   2.776   0.035  0.00  0.00    +0.030 C 
ENDBRANCH  24  26
ENDBRANCH   1  24
TORSDOF 6
