REMARK  Name = ZINCpe000000YAi4.0
REMARK                            x       y       z     vdW  Elec       q    Type
REMARK                         _______ _______ _______ _____ _____    ______ ____
ROOT
ATOM      1  C   LIG    1       -5.786   4.562  -0.953  0.00  0.00    +0.420 A 
ATOM      2  C   LIG    1       -4.939   4.122   0.078  0.00  0.00    -0.040 A 
ATOM      3  N   LIG    1       -4.866   4.348   1.412  0.00  0.00    -0.450 NA
ATOM      4  C   LIG    1       -3.872   3.673   1.913  0.00  0.00    +0.500 A 
ATOM      5  N   LIG    1       -3.237   2.976   0.925  0.00  0.00    -0.430 N 
ATOM      6  C   LIG    1       -3.896   3.239  -0.251  0.00  0.00    +0.290 A 
ATOM      7  N   LIG    1       -3.749   2.856  -1.515  0.00  0.00    -0.520 NA
ATOM      8  C   LIG    1       -4.567   3.294  -2.449  0.00  0.00    +0.550 A 
ATOM      9  N   LIG    1       -5.561   4.124  -2.188  0.00  0.00    -0.550 NA
ENDROOT
BRANCH   1  15
ATOM     10  C   LIG    1       -7.888   5.307  -1.702  0.00  0.00    +0.160 C 
ATOM     11  C   LIG    1       -9.046   6.241  -1.341  0.00  0.00    +0.250 C 
ATOM     12  O   LIG    1       -8.556   7.580  -1.232  0.00  0.00    -0.380 OA
ATOM     13  C   LIG    1       -7.524   7.738  -0.254  0.00  0.00    +0.240 C 
ATOM     14  C   LIG    1       -6.351   6.819  -0.605  0.00  0.00    +0.190 C 
ATOM     15  N   LIG    1       -6.830   5.432  -0.690  0.00  0.00    -0.470 N 
BRANCH  10  16
ATOM     16  C   LIG    1       -8.390   3.862  -1.741  0.00  0.00    +0.060 C 
BRANCH  16  20
ATOM     17  N   LIG    1      -10.033   2.539  -3.033  0.00  0.00    -0.860 N 
ATOM     18  H   LIG    1      -10.661   2.435  -3.765  0.00  0.00    +0.400 HD
ATOM     19  H   LIG    1       -9.886   1.809  -2.412  0.00  0.00    +0.400 HD
ATOM     20  C   LIG    1       -9.365   3.700  -2.878  0.00  0.00    +0.520 C 
ATOM     21  O   LIG    1       -9.549   4.613  -3.655  0.00  0.00    -0.540 OA
ENDBRANCH  16  20
ENDBRANCH  10  16
ENDBRANCH   1  15
BRANCH   5  22
ATOM     22  C   LIG    1       -2.122   2.142   1.084  0.00  0.00    +0.110 A 
ATOM     23  C   LIG    1       -2.133   0.859   0.553  0.00  0.00    +0.030 A 
ATOM     24  C   LIG    1       -1.035   0.037   0.715  0.00  0.00    +0.030 A 
ATOM     25  C   LIG    1        0.079   0.494   1.396  0.00  0.00    +0.020 A 
ATOM     26  C   LIG    1        0.094   1.773   1.921  0.00  0.00    +0.040 A 
ATOM     27  C   LIG    1       -1.003   2.598   1.767  0.00  0.00    +0.020 A 
ENDBRANCH   5  22
TORSDOF 4
