REMARK  Name = ZINCvU0000000JGz.0
REMARK                            x       y       z     vdW  Elec       q    Type
REMARK                         _______ _______ _______ _____ _____    ______ ____
ROOT
ATOM      1  C   LIG    1       -3.453  -1.246  -0.044  0.00  0.00    +0.310 A 
ATOM      2  C   LIG    1       -2.563  -0.220  -0.076  0.00  0.00    -0.070 A 
ATOM      3  C   LIG    1       -1.270  -0.769   0.006  0.00  0.00    +0.140 A 
ATOM      4  N   LIG    1       -1.383  -2.078   0.093  0.00  0.00    -0.270 NA
ATOM      5  N   LIG    1       -2.745  -2.404   0.064  0.00  0.00    -0.340 N 
ENDROOT
BRANCH   3   6
ATOM      6  C   LIG    1        0.002  -0.004   0.002  0.00  0.00    -0.020 A 
ATOM      7  C   LIG    1       -0.017   1.389   0.010  0.00  0.00    +0.040 A 
ATOM      8  C   LIG    1        1.171   2.087   0.002  0.00  0.00    +0.010 A 
ATOM      9  C   LIG    1        2.388   1.416  -0.013  0.00  0.00    -0.060 A 
ATOM     10  C   LIG    1        3.644   2.248  -0.035  0.00  0.00    +0.080 C 
ATOM     11  C   LIG    1        4.850   1.411   0.389  0.00  0.00    +0.020 C 
ATOM     12  C   LIG    1        4.867   0.128  -0.451  0.00  0.00    +0.020 C 
ATOM     13  C   LIG    1        3.696  -0.750  -0.013  0.00  0.00    +0.070 C 
ATOM     14  C   LIG    1        2.412   0.038  -0.015  0.00  0.00    -0.080 A 
ATOM     15  C   LIG    1        1.222  -0.673  -0.010  0.00  0.00    +0.040 A 
ENDBRANCH   3   6
BRANCH   5  16
ATOM     16  C   LIG    1       -3.283  -3.696   0.133  0.00  0.00    +0.150 A 
ATOM     17  C   LIG    1       -4.483  -3.915   0.797  0.00  0.00    -0.020 A 
ATOM     18  C   LIG    1       -5.014  -5.188   0.859  0.00  0.00    +0.050 A 
ATOM     19  C   LIG    1       -4.347  -6.246   0.268  0.00  0.00    +0.010 A 
ATOM     20  C   LIG    1       -3.150  -6.032  -0.390  0.00  0.00    +0.050 A 
ATOM     21  C   LIG    1       -2.616  -4.760  -0.459  0.00  0.00    +0.030 A 
ENDBRANCH   5  16
BRANCH   1  24
ATOM     22  O   LIG    1       -4.723   1.077  -0.256  0.00  0.00    -0.480 OA
ATOM     23  C   LIG    1       -5.415   0.081  -0.212  0.00  0.00    +0.540 C 
ATOM     24  N   LIG    1       -4.842  -1.134  -0.105  0.00  0.00    -0.640 N 
ATOM     25  H   LIG    1       -5.395  -1.930  -0.071  0.00  0.00    +0.420 HD
BRANCH  23  26
ATOM     26  C   LIG    1       -6.916   0.203  -0.278  0.00  0.00    +0.120 C 
BRANCH  26  27
ATOM     27  S   LIG    1       -7.374   1.949  -0.418  0.00  0.00    +0.130 S 
BRANCH  27  28
ATOM     28  C   LIG    1       -9.129   1.801  -0.475  0.00  0.00    -0.030 A 
ATOM     29  N   LIG    1       -9.809   0.691  -0.423  0.00  0.00    -0.270 NA
ATOM     30  N   LIG    1      -11.066   0.773  -0.476  0.00  0.00    -0.250 NA
ATOM     31  C   LIG    1      -11.594   1.949  -0.579  0.00  0.00    +0.230 A 
ATOM     32  S   LIG    1      -10.283   3.130  -0.605  0.00  0.00    +0.130 S 
ENDBRANCH  27  28
ENDBRANCH  26  27
ENDBRANCH  23  26
ENDBRANCH   1  24
TORSDOF 6
