REMARK  Name = ZINCqH0000003MJg.0
REMARK                            x       y       z     vdW  Elec       q    Type
REMARK                         _______ _______ _______ _____ _____    ______ ____
ROOT
ATOM      1  N   LIG    1       -2.046   7.910  -1.379  0.00  0.00    -1.120 NA
ATOM      2  H   LIG    1       -2.521   8.130  -0.562  0.00  0.00    +0.420 HD
ENDROOT
BRANCH   1   3
ATOM      3  S   LIG    1       -2.320   8.786  -2.757  0.00  0.00    +2.700 S 
ATOM      4  O   LIG    1       -1.042   9.131  -3.274  0.00  0.00    -0.960 OA
ATOM      5  O   LIG    1       -3.311   9.750  -2.430  0.00  0.00    -0.960 OA
BRANCH   3   9
ATOM      6  C   LIG    1       -4.207   5.986  -5.775  0.00  0.00    +0.190 A 
ATOM      7  C   LIG    1       -5.008   6.713  -4.906  0.00  0.00    -0.030 A 
ATOM      8  C   LIG    1       -4.430   7.567  -3.986  0.00  0.00    +0.170 A 
ATOM      9  C   LIG    1       -3.054   7.697  -3.931  0.00  0.00    -0.720 A 
ATOM     10  C   LIG    1       -2.254   6.977  -4.800  0.00  0.00    +0.160 A 
ATOM     11  C   LIG    1       -2.827   6.118  -5.717  0.00  0.00    -0.090 A 
BRANCH   6  12
ATOM     12  O   LIG    1       -4.774   5.146  -6.681  0.00  0.00    -0.310 OA
BRANCH  12  14
ATOM     13  C   LIG    1       -4.702   3.542  -8.487  0.00  0.00    +0.070 C 
ATOM     14  C   LIG    1       -3.888   4.429  -7.543  0.00  0.00    +0.190 C 
ENDBRANCH  12  14
ENDBRANCH   6  12
ENDBRANCH   3   9
ENDBRANCH   1   3
BRANCH   1  15
ATOM     15  C   LIG    1       -1.088   6.802  -1.394  0.00  0.00    +0.270 C 
BRANCH  15  16
ATOM     16  C   LIG    1       -0.741   6.409   0.043  0.00  0.00    +0.110 C 
BRANCH  16  17
ATOM     17  C   LIG    1        0.245   5.269   0.029  0.00  0.00    -0.180 A 
ATOM     18  C   LIG    1        1.583   5.371   0.017  0.00  0.00    +0.090 A 
ATOM     19  N   LIG    1        2.147   4.124   0.004  0.00  0.00    -0.590 N 
ATOM     20  H   LIG    1        3.099   3.943  -0.006  0.00  0.00    +0.410 HD
ATOM     21  C   LIG    1        1.159   3.165   0.008  0.00  0.00    +0.090 A 
ATOM     22  C   LIG    1        1.175   1.774   0.000  0.00  0.00    -0.010 A 
ATOM     23  C   LIG    1       -0.013   1.076   0.008  0.00  0.00    +0.020 A 
ATOM     24  C   LIG    1       -1.228   1.746   0.017  0.00  0.00    -0.110 A 
ATOM     25  C   LIG    1       -1.267   3.112   0.031  0.00  0.00    +0.050 A 
ATOM     26  C   LIG    1       -2.514   0.962   0.019  0.00  0.00    +0.080 C 
ATOM     27  C   LIG    1        2.352   6.668   0.016  0.00  0.00    +0.140 C 
ATOM     28  C   LIG    1       -0.075   3.840   0.023  0.00  0.00    -0.090 A 
ENDBRANCH  16  17
ENDBRANCH  15  16
ENDBRANCH   1  15
TORSDOF 7
