REMARK  Name = ZINCrg00000fSva3.0
REMARK                            x       y       z     vdW  Elec       q    Type
REMARK                         _______ _______ _______ _____ _____    ______ ____
ROOT
ATOM      1  C   LIG    1       -0.821   1.627  -1.190  0.00  0.00    +0.270 C 
ATOM      2  C   LIG    1       -0.013   1.086   0.008  0.00  0.00    +0.100 C 
ATOM      3  C   LIG    1       -0.802   1.617   1.234  0.00  0.00    +0.180 C 
ATOM      4  C   LIG    1       -2.264   1.534   0.716  0.00  0.00    +0.250 C 
ATOM      5  N   LIG    1       -2.183   1.902  -0.710  0.00  0.00    -0.600 N 
ATOM      6  C   LIG    1       -3.190   2.407  -1.449  0.00  0.00    +0.540 C 
ATOM      7  O   LIG    1       -3.008   2.675  -2.618  0.00  0.00    -0.520 OA
ENDROOT
BRANCH   1   8
ATOM      8  C   LIG    1       -0.859   0.598  -2.290  0.00  0.00    +0.460 C 
ATOM      9  O   LIG    1       -1.836  -0.099  -2.431  0.00  0.00    -0.490 OA
BRANCH   8  10
ATOM     10  O   LIG    1        0.191   0.455  -3.112  0.00  0.00    -0.350 OA
BRANCH  10  11
ATOM     11  C   LIG    1        0.084  -0.557  -4.149  0.00  0.00    +0.280 C 
BRANCH  11  14
ATOM     12  C   LIG    1        3.562  -1.373  -5.396  0.00  0.00    +0.400 A 
ATOM     13  C   LIG    1        2.411  -1.385  -4.615  0.00  0.00    -0.090 A 
ATOM     14  C   LIG    1        1.349  -0.572  -4.968  0.00  0.00    -0.010 A 
ATOM     15  C   LIG    1        1.472   0.225  -6.098  0.00  0.00    -0.070 A 
ATOM     16  C   LIG    1        2.646   0.191  -6.824  0.00  0.00    +0.310 A 
ATOM     17  N   LIG    1        3.643  -0.594  -6.463  0.00  0.00    -0.540 NA
BRANCH  12  18
ATOM     18  N   LIG    1        4.636  -2.185  -5.052  0.00  0.00    -0.850 N 
ATOM     19  H   LIG    1        5.441  -2.180  -5.594  0.00  0.00    +0.410 HD
ATOM     20  H   LIG    1        4.581  -2.757  -4.270  0.00  0.00    +0.410 HD
ENDBRANCH  12  18
ENDBRANCH  11  14
ENDBRANCH  10  11
ENDBRANCH   8  10
ENDBRANCH   1   8
BRANCH   3  21
ATOM     21  O   LIG    1       -0.439   2.967   1.530  0.00  0.00    -0.550 OA
ATOM     22  H   LIG    1       -0.907   3.343   2.289  0.00  0.00    +0.390 HD
ENDBRANCH   3  21
BRANCH   6  23
ATOM     23  C   LIG    1       -4.541   2.639  -0.824  0.00  0.00    +0.130 C 
BRANCH  23  24
ATOM     24  C   LIG    1       -5.482   3.205  -1.857  0.00  0.00    -0.110 A 
ATOM     25  C   LIG    1       -6.391   2.379  -2.490  0.00  0.00    +0.050 A 
ATOM     26  C   LIG    1       -7.254   2.898  -3.437  0.00  0.00    +0.000 A 
ATOM     27  C   LIG    1       -7.208   4.243  -3.753  0.00  0.00    +0.040 A 
ATOM     28  C   LIG    1       -6.300   5.071  -3.120  0.00  0.00    -0.010 A 
ATOM     29  C   LIG    1       -5.439   4.553  -2.167  0.00  0.00    +0.120 A 
ATOM     30  F   LIG    1       -4.554   5.363  -1.545  0.00  0.00    -0.140 F 
ENDBRANCH  23  24
ENDBRANCH   6  23
TORSDOF 8
