REMARK  Name = ZINCah0000002pWE.0
REMARK                            x       y       z     vdW  Elec       q    Type
REMARK                         _______ _______ _______ _____ _____    ______ ____
ROOT
ATOM      1  C   LIG    1       -4.312   1.155   2.556  0.00  0.00    +0.060 C 
ATOM      2  C   LIG    1       -2.805   1.413   2.623  0.00  0.00    +0.000 C 
ATOM      3  C   LIG    1       -2.171   1.057   1.277  0.00  0.00    +0.040 C 
ATOM      4  C   LIG    1       -0.729   1.579   1.267  0.00  0.00    -0.080 C 
ATOM      5  C   LIG    1       -0.758   3.108   1.274  0.00  0.00    +0.270 C 
ATOM      6  N   LIG    1       -1.624   3.596   2.340  0.00  0.00    -0.720 N 
ATOM      7  H   LIG    1       -1.513   4.515   2.631  0.00  0.00    +0.400 HD
ATOM      8  C   LIG    1        0.009   1.074   2.508  0.00  0.00    +0.030 C 
ATOM      9  C   LIG    1       -0.013   1.086   0.008  0.00  0.00    +0.040 C 
ATOM     10  C   LIG    1       -2.560   2.860   2.940  0.00  0.00    +0.520 C 
ATOM     11  O   LIG    1       -3.249   3.386   3.788  0.00  0.00    -0.550 OA
ENDROOT
TORSDOF 0
