REMARK  Name = ZINCrH000004oswg.0
REMARK                            x       y       z     vdW  Elec       q    Type
REMARK                         _______ _______ _______ _____ _____    ______ ____
ROOT
ATOM      1  C   LIG    1        5.451   0.638  -1.494  0.00  0.00    +0.150 A 
ATOM      2  N   LIG    1        6.306  -0.358  -1.502  0.00  0.00    -0.290 NA
ATOM      3  N   LIG    1        5.674  -1.476  -1.502  0.00  0.00    -0.270 NA
ATOM      4  C   LIG    1        4.389  -1.264  -1.488  0.00  0.00    +0.190 A 
ATOM      5  N   LIG    1        4.200   0.091  -1.479  0.00  0.00    -0.450 N 
ENDROOT
BRANCH   1   6
ATOM      6  S   LIG    1        5.843   2.356  -1.498  0.00  0.00    +0.070 S 
BRANCH   6   8
ATOM      7  C   LIG    1        8.145   1.631  -0.219  0.00  0.00    +0.080 C 
ATOM      8  C   LIG    1        7.650   2.266  -1.520  0.00  0.00    +0.010 C 
BRANCH   8   9
ATOM      9  C   LIG    1        8.221   3.655  -1.650  0.00  0.00    +0.540 C 
ATOM     10  N   LIG    1        9.447   3.833  -2.181  0.00  0.00    -0.610 N 
ATOM     11  C   LIG    1       10.225   2.676  -2.632  0.00  0.00    +0.290 C 
ATOM     12  C   LIG    1       10.001   5.183  -2.308  0.00  0.00    +0.290 C 
ATOM     13  O   LIG    1        7.577   4.612  -1.277  0.00  0.00    -0.520 OA
ENDBRANCH   8   9
ENDBRANCH   6   8
ENDBRANCH   1   6
BRANCH   4  14
ATOM     14  C   LIG    1        3.309  -2.316  -1.482  0.00  0.00    +0.250 C 
BRANCH  14  15
ATOM     15  C   LIG    1        2.935  -2.659  -2.901  0.00  0.00    -0.190 A 
ATOM     16  C   LIG    1        3.508  -3.611  -3.638  0.00  0.00    +0.040 A 
ATOM     17  C   LIG    1        2.994  -3.748  -4.916  0.00  0.00    +0.000 A 
ATOM     18  C   LIG    1        2.010  -2.900  -5.220  0.00  0.00    -0.030 A 
ATOM     19  S   LIG    1        1.681  -1.861  -3.840  0.00  0.00    +0.090 S 
ENDBRANCH  14  15
ENDBRANCH   4  14
BRANCH   5  20
ATOM     20  C   LIG    1        2.922   0.806  -1.464  0.00  0.00    +0.310 C 
BRANCH  20  21
ATOM     21  C   LIG    1        2.490   1.048  -0.016  0.00  0.00    +0.080 C 
BRANCH  21  22
ATOM     22  C   LIG    1        1.175   1.783   0.000  0.00  0.00    -0.090 A 
ATOM     23  C   LIG    1       -0.013   1.076   0.008  0.00  0.00    +0.010 A 
ATOM     24  C   LIG    1       -1.219   1.751   0.017  0.00  0.00    +0.000 A 
ATOM     25  C   LIG    1       -1.238   3.133   0.029  0.00  0.00    +0.000 A 
ATOM     26  C   LIG    1       -0.050   3.840   0.022  0.00  0.00    +0.000 A 
ATOM     27  C   LIG    1        1.156   3.165   0.008  0.00  0.00    +0.020 A 
ENDBRANCH  21  22
ENDBRANCH  20  21
ENDBRANCH   5  20
TORSDOF 8
