REMARK  Name = ZINC5d0000002omw.0
REMARK                            x       y       z     vdW  Elec       q    Type
REMARK                         _______ _______ _______ _____ _____    ______ ____
ROOT
ATOM      1  C   LIG    1        0.011   1.072   2.506  0.00  0.00    +0.170 C 
ATOM      2  C   LIG    1       -0.772   1.460   3.762  0.00  0.00    +0.080 C 
ENDROOT
BRANCH   1   3
ATOM      3  N   LIG    1        1.349   1.676   2.559  0.00  0.00    -0.640 N 
ATOM      4  H   LIG    1        1.866   1.421   1.731  0.00  0.00    +0.430 HD
ATOM      5  H   LIG    1        1.837   1.342   3.376  0.00  0.00    +0.440 HD
ATOM      6  H   LIG    1        1.264   2.680   2.605  0.00  0.00    +0.430 HD
ENDBRANCH   1   3
BRANCH   1   8
ATOM      7  C   LIG    1       -0.013   1.086   0.008  0.00  0.00    +0.020 C 
ATOM      8  C   LIG    1       -0.729   1.579   1.267  0.00  0.00    +0.050 C 
ENDBRANCH   1   8
TORSDOF 2
