REMARK  Name = ZINCpk00000xIhQb.0
REMARK                            x       y       z     vdW  Elec       q    Type
REMARK                         _______ _______ _______ _____ _____    ______ ____
ROOT
ATOM      1  C   LIG    1        2.133  -2.994  -2.240  0.00  0.00    +0.540 C 
ATOM      2  N   LIG    1        1.110  -2.679  -1.421  0.00  0.00    -0.590 N 
ATOM      3  O   LIG    1        1.915  -3.284  -3.397  0.00  0.00    -0.510 OA
ENDROOT
BRANCH   2   4
ATOM      4  C   LIG    1       -0.271  -2.801  -1.893  0.00  0.00    +0.270 C 
ATOM      5  C   LIG    1       -0.508  -1.826  -3.059  0.00  0.00    +0.070 C 
ATOM      6  C   LIG    1       -1.852  -2.233  -3.713  0.00  0.00    -0.300 C 
ATOM      7  S   LIG    1       -1.736  -4.062  -3.752  0.00  0.00    +2.400 S 
ATOM      8  O   LIG    1       -2.977  -4.625  -3.350  0.00  0.00    -0.940 OA
ATOM      9  O   LIG    1       -1.137  -4.470  -4.974  0.00  0.00    -0.920 OA
ATOM     10  C   LIG    1       -0.522  -4.237  -2.394  0.00  0.00    -0.330 C 
ENDBRANCH   2   4
BRANCH   1  11
ATOM     11  C   LIG    1        3.546  -2.988  -1.717  0.00  0.00    +0.100 C 
BRANCH  11  12
ATOM     12  S   LIG    1        4.697  -3.310  -3.082  0.00  0.00    +0.120 S 
BRANCH  12  17
ATOM     13  N   LIG    1       10.131  -3.332  -1.337  0.00  0.00    -0.800 N 
ATOM     14  C   LIG    1        8.755  -3.279  -1.524  0.00  0.00    +0.340 A 
ATOM     15  N   LIG    1        7.836  -3.056  -0.620  0.00  0.00    -0.370 NA
ATOM     16  N   LIG    1        6.522  -3.043  -1.028  0.00  0.00    -0.270 NA
ATOM     17  C   LIG    1        6.271  -3.264  -2.293  0.00  0.00    +0.010 A 
ATOM     18  S   LIG    1        7.862  -3.501  -3.041  0.00  0.00    +0.050 S 
ATOM     19  H   LIG    1       10.506  -3.193  -0.454  0.00  0.00    +0.420 HD
ATOM     20  H   LIG    1       10.716  -3.507  -2.091  0.00  0.00    +0.420 HD
ENDBRANCH  12  17
ENDBRANCH  11  12
ENDBRANCH   1  11
BRANCH   2  21
ATOM     21  C   LIG    1        1.380  -2.213  -0.058  0.00  0.00    +0.340 C 
BRANCH  21  22
ATOM     22  C   LIG    1        1.378  -0.706  -0.033  0.00  0.00    -0.120 A 
ATOM     23  C   LIG    1        0.187  -0.018   0.103  0.00  0.00    +0.020 A 
ATOM     24  C   LIG    1        0.186   1.364   0.127  0.00  0.00    +0.000 A 
ATOM     25  C   LIG    1        1.376   2.058   0.014  0.00  0.00    +0.010 A 
ATOM     26  C   LIG    1        2.567   1.371  -0.122  0.00  0.00    +0.000 A 
ATOM     27  C   LIG    1        2.568  -0.012  -0.145  0.00  0.00    +0.010 A 
ENDBRANCH  21  22
ENDBRANCH   2  21
TORSDOF 6
