REMARK  Name = ZINCpe00000bVfyw.0
REMARK                            x       y       z     vdW  Elec       q    Type
REMARK                         _______ _______ _______ _____ _____    ______ ____
ROOT
ATOM      1  C   LIG    1        4.121  -4.402   0.551  0.00  0.00    -0.020 C 
ATOM      2  C   LIG    1        4.863  -3.182  -0.054  0.00  0.00    +0.040 C 
ATOM      3  C   LIG    1        3.780  -2.083  -0.060  0.00  0.00    +0.280 C 
ATOM      4  N   LIG    1        2.474  -2.757  -0.019  0.00  0.00    -0.600 N 
ATOM      5  C   LIG    1        1.274  -2.144   0.011  0.00  0.00    +0.580 C 
ATOM      6  O   LIG    1        0.255  -2.804   0.038  0.00  0.00    -0.520 OA
ATOM      7  C   LIG    1        2.694  -4.215  -0.024  0.00  0.00    +0.280 C 
ENDROOT
BRANCH   5   8
ATOM      8  C   LIG    1        1.198  -0.660   0.012  0.00  0.00    +0.130 A 
ATOM      9  C   LIG    1       -0.028  -0.028   0.043  0.00  0.00    -0.040 A 
ATOM     10  C   LIG    1       -0.054   1.387   0.042  0.00  0.00    +0.520 A 
ATOM     11  N   LIG    1        1.119   2.055   0.011  0.00  0.00    -0.630 N 
ATOM     12  H   LIG    1        1.123   3.025   0.010  0.00  0.00    +0.420 HD
ATOM     13  C   LIG    1        2.284   1.378  -0.018  0.00  0.00    +0.590 A 
ATOM     14  O   LIG    1       -1.113   1.990   0.064  0.00  0.00    -0.520 OA
ATOM     15  N   LIG    1        2.322   0.074  -0.018  0.00  0.00    -0.530 NA
ENDBRANCH   5   8
BRANCH   1  17
ATOM     16  C   LIG    1        3.922  -6.892   0.610  0.00  0.00    +0.020 C 
ATOM     17  C   LIG    1        4.738  -5.716   0.069  0.00  0.00    +0.250 C 
BRANCH  17  18
ATOM     18  N   LIG    1        6.117  -5.814   0.553  0.00  0.00    -0.720 N 
ATOM     19  H   LIG    1        6.386  -5.334   1.351  0.00  0.00    +0.400 HD
ATOM     20  C   LIG    1        7.012  -6.573  -0.111  0.00  0.00    +0.600 C 
ATOM     21  O   LIG    1        6.675  -7.176  -1.111  0.00  0.00    -0.550 OA
BRANCH  20  22
ATOM     22  C   LIG    1        8.398  -6.672   0.376  0.00  0.00    -0.240 A 
ATOM     23  C   LIG    1        9.416  -7.395  -0.182  0.00  0.00    +0.250 A 
ATOM     24  N   LIG    1       10.522  -7.219   0.565  0.00  0.00    -0.450 N 
ATOM     25  C   LIG    1       10.257  -6.388   1.615  0.00  0.00    +0.150 A 
ATOM     26  C   LIG    1       11.824  -7.832   0.291  0.00  0.00    +0.330 C 
ATOM     27  C   LIG    1        8.968  -6.010   1.555  0.00  0.00    -0.030 A 
ENDBRANCH  20  22
ENDBRANCH  17  18
ENDBRANCH   1  17
TORSDOF 4
