REMARK  Name = ZINCrH000004ne69.0
REMARK                            x       y       z     vdW  Elec       q    Type
REMARK                         _______ _______ _______ _____ _____    ______ ____
ROOT
ATOM      1  N   LIG    1       -4.142   6.197   1.455  0.00  0.00    -0.610 N 
ATOM      2  C   LIG    1       -4.916   5.296   2.092  0.00  0.00    +0.520 C 
ATOM      3  O   LIG    1       -5.272   4.289   1.519  0.00  0.00    -0.510 OA
ATOM      4  C   LIG    1       -3.711   7.414   2.148  0.00  0.00    +0.280 C 
ENDROOT
BRANCH   1   5
ATOM      5  C   LIG    1       -3.732   5.960   0.069  0.00  0.00    +0.350 C 
BRANCH   5  11
ATOM      6  C   LIG    1        1.195   1.782   0.000  0.00  0.00    +0.130 A 
ATOM      7  C   LIG    1        1.208   3.147   0.008  0.00  0.00    -0.020 A 
ATOM      8  C   LIG    1       -0.006   3.853   0.023  0.00  0.00    -0.010 A 
ATOM      9  C   LIG    1       -0.032   5.258   0.031  0.00  0.00    +0.010 A 
ATOM     10  C   LIG    1       -1.227   5.910   0.045  0.00  0.00    +0.030 A 
ATOM     11  C   LIG    1       -2.428   5.205   0.053  0.00  0.00    -0.130 A 
ATOM     12  C   LIG    1       -2.442   3.843   0.045  0.00  0.00    +0.070 A 
ATOM     13  C   LIG    1       -1.229   3.136   0.031  0.00  0.00    -0.090 A 
ATOM     14  C   LIG    1       -1.205   1.730   0.017  0.00  0.00    +0.070 A 
ATOM     15  C   LIG    1       -0.013   1.076   0.008  0.00  0.00    -0.060 A 
BRANCH   6  17
ATOM     16  C   LIG    1        2.292  -0.327  -0.022  0.00  0.00    +0.250 C 
ATOM     17  O   LIG    1        2.370   1.100  -0.015  0.00  0.00    -0.320 OA
ENDBRANCH   6  17
ENDBRANCH   5  11
ENDBRANCH   1   5
BRANCH   2  18
ATOM     18  C   LIG    1       -5.338   5.541   3.519  0.00  0.00    +0.240 C 
BRANCH  18  19
ATOM     19  O   LIG    1       -6.146   4.452   3.969  0.00  0.00    -0.280 OA
BRANCH  19  20
ATOM     20  C   LIG    1       -6.612   4.516   5.242  0.00  0.00    +0.170 A 
ATOM     21  C   LIG    1       -6.299   5.603   6.044  0.00  0.00    -0.070 A 
ATOM     22  C   LIG    1       -6.774   5.667   7.340  0.00  0.00    +0.090 A 
ATOM     23  C   LIG    1       -7.564   4.649   7.847  0.00  0.00    -0.020 A 
ATOM     24  C   LIG    1       -7.885   3.561   7.064  0.00  0.00    +0.110 A 
ATOM     25  C   LIG    1       -7.416   3.486   5.751  0.00  0.00    -0.060 A 
BRANCH  25  26
ATOM     26  C   LIG    1       -7.750   2.362   4.930  0.00  0.00    +0.260 C 
ATOM     27  N   LIG    1       -8.016   1.470   4.278  0.00  0.00    -0.410 NA
ENDBRANCH  25  26
ENDBRANCH  19  20
ENDBRANCH  18  19
ENDBRANCH   2  18
TORSDOF 7
