REMARK  Name = ZINCpe000000ZuVO.0
REMARK                            x       y       z     vdW  Elec       q    Type
REMARK                         _______ _______ _______ _____ _____    ______ ____
ROOT
ATOM      1  O   LIG    1       -1.576   3.084   1.774  0.00  0.00    -0.470 OA
ATOM      2  C   LIG    1       -2.293   3.693   1.006  0.00  0.00    +0.580 C 
ATOM      3  N   LIG    1       -3.139   3.022   0.198  0.00  0.00    -0.610 N 
ATOM      4  C   LIG    1       -4.329   3.695  -0.326  0.00  0.00    +0.350 C 
ATOM      5  C   LIG    1       -4.230   3.797  -1.851  0.00  0.00    -0.320 C 
ATOM      6  S   LIG    1       -4.062   2.127  -2.546  0.00  0.00    +2.410 S 
ATOM      7  C   LIG    1       -2.603   1.514  -1.653  0.00  0.00    -0.430 C 
ATOM      8  C   LIG    1       -1.388   2.365  -2.028  0.00  0.00    +0.060 C 
ATOM      9  C   LIG    1       -0.160   1.872  -1.259  0.00  0.00    +0.020 C 
ATOM     10  C   LIG    1       -0.418   1.994   0.244  0.00  0.00    +0.030 C 
ATOM     11  C   LIG    1       -1.620   1.122   0.614  0.00  0.00    +0.060 C 
ATOM     12  O   LIG    1       -5.190   1.357  -2.156  0.00  0.00    -0.930 OA
ATOM     13  O   LIG    1       -3.737   2.239  -3.925  0.00  0.00    -0.930 OA
ATOM     14  C   LIG    1       -2.851   1.617  -0.145  0.00  0.00    +0.270 C 
ENDROOT
BRANCH   2  15
ATOM     15  C   LIG    1       -2.239   5.171   0.956  0.00  0.00    -0.000 A 
ATOM     16  C   LIG    1       -1.475   5.877   1.891  0.00  0.00    +0.150 A 
ATOM     17  C   LIG    1       -1.455   7.259   1.804  0.00  0.00    +0.040 A 
ATOM     18  C   LIG    1       -2.197   7.862   0.791  0.00  0.00    +0.320 A 
ATOM     19  N   LIG    1       -2.895   7.113  -0.054  0.00  0.00    -0.250 NA
ATOM     20  N   LIG    1       -2.911   5.832   0.021  0.00  0.00    -0.170 NA
BRANCH  18  21
ATOM     21  N   LIG    1       -2.208   9.251   0.665  0.00  0.00    -0.420 N 
ATOM     22  C   LIG    1       -2.957   9.985  -0.220  0.00  0.00    +0.160 A 
ATOM     23  C   LIG    1       -2.663  11.280   0.000  0.00  0.00    +0.160 A 
ATOM     24  N   LIG    1       -1.754  11.342   0.985  0.00  0.00    -0.470 NA
ATOM     25  C   LIG    1       -1.472  10.135   1.391  0.00  0.00    +0.420 A 
ENDBRANCH  18  21
ENDBRANCH   2  15
TORSDOF 2
