REMARK  Name = ZINCrD000000fO42.0
REMARK                            x       y       z     vdW  Elec       q    Type
REMARK                         _______ _______ _______ _____ _____    ______ ____
ROOT
ATOM      1  C   LIG    1       -3.662   2.575   3.161  0.00  0.00    +0.590 C 
ATOM      2  N   LIG    1       -4.667   2.776   2.285  0.00  0.00    -0.680 N 
ATOM      3  H   LIG    1       -4.541   2.566   1.346  0.00  0.00    +0.410 HD
ATOM      4  O   LIG    1       -3.848   2.749   4.350  0.00  0.00    -0.500 OA
ENDROOT
BRANCH   1   9
ATOM      5  C   LIG    1       -0.203   1.516   2.587  0.00  0.00    -0.260 A 
ATOM      6  C   LIG    1       -0.717   1.534   1.300  0.00  0.00    +0.110 A 
ATOM      7  N   LIG    1       -2.001   1.918   1.363  0.00  0.00    -0.530 N 
ATOM      8  H   LIG    1       -2.594   2.018   0.603  0.00  0.00    +0.420 HD
ATOM      9  C   LIG    1       -2.344   2.145   2.679  0.00  0.00    -0.070 A 
ATOM     10  C   LIG    1        0.039   1.188   0.043  0.00  0.00    +0.160 C 
ATOM     11  C   LIG    1       -1.250   1.907   3.456  0.00  0.00    -0.020 A 
ATOM     12  C   LIG    1       -1.170   2.036   4.955  0.00  0.00    +0.130 C 
BRANCH   5  14
ATOM     13  C   LIG    1        1.532  -0.285   3.202  0.00  0.00    +0.070 C 
ATOM     14  C   LIG    1        1.165   1.159   2.975  0.00  0.00    +0.440 C 
ATOM     15  O   LIG    1        2.002   2.026   3.114  0.00  0.00    -0.450 OA
ENDBRANCH   5  14
ENDBRANCH   1   9
BRANCH   2  16
ATOM     16  C   LIG    1       -5.885   3.287   2.728  0.00  0.00    +0.180 A 
ATOM     17  C   LIG    1       -7.069   2.890   2.113  0.00  0.00    -0.020 A 
ATOM     18  C   LIG    1       -8.274   3.389   2.551  0.00  0.00    +0.070 A 
ATOM     19  C   LIG    1       -8.308   4.303   3.608  0.00  0.00    -0.160 A 
ATOM     20  C   LIG    1       -7.117   4.703   4.220  0.00  0.00    +0.110 A 
ATOM     21  C   LIG    1       -5.915   4.197   3.780  0.00  0.00    +0.020 A 
BRANCH  19  22
ATOM     22  C   LIG    1       -9.599   4.845   4.076  0.00  0.00    +0.570 C 
ATOM     23  N   LIG    1      -10.746   4.457   3.485  0.00  0.00    -0.730 N 
ATOM     24  H   LIG    1      -10.724   3.823   2.752  0.00  0.00    +0.410 HD
ATOM     25  O   LIG    1       -9.627   5.640   4.995  0.00  0.00    -0.520 OA
BRANCH  23  26
ATOM     26  C   LIG    1      -12.027   4.995   3.950  0.00  0.00    +0.320 C 
BRANCH  26  27
ATOM     27  C   LIG    1      -13.164   4.398   3.116  0.00  0.00    +0.450 C 
ATOM     28  F   LIG    1      -12.979   4.731   1.770  0.00  0.00    -0.180 F 
ATOM     29  F   LIG    1      -14.387   4.912   3.560  0.00  0.00    -0.170 F 
ATOM     30  F   LIG    1      -13.163   3.006   3.257  0.00  0.00    -0.180 F 
ENDBRANCH  26  27
ENDBRANCH  23  26
ENDBRANCH  19  22
ENDBRANCH   2  16
TORSDOF 6
