REMARK  Name = ZINCkj000005hESL.0
REMARK                            x       y       z     vdW  Elec       q    Type
REMARK                         _______ _______ _______ _____ _____    ______ ____
ROOT
ATOM      1  C   LIG    1        2.197  -0.033  -1.697  0.00  0.00    +0.500 C 
ATOM      2  N   LIG    1        2.722   1.160  -1.350  0.00  0.00    -0.590 N 
ATOM      3  C   LIG    1        3.527   1.913  -2.314  0.00  0.00    +0.310 C 
ATOM      4  O   LIG    1        1.454  -0.613  -0.934  0.00  0.00    -0.500 OA
ENDROOT
BRANCH   1   5
ATOM      5  C   LIG    1        2.535  -0.645  -3.032  0.00  0.00    +0.200 C 
BRANCH   5   6
ATOM      6  N   LIG    1        1.521  -1.649  -3.381  0.00  0.00    -0.620 N 
ATOM      7  H   LIG    1        1.747  -2.058  -4.275  0.00  0.00    +0.450 HD
ATOM      8  H   LIG    1        0.615  -1.207  -3.433  0.00  0.00    +0.440 HD
ATOM      9  H   LIG    1        1.504  -2.369  -2.675  0.00  0.00    +0.440 HD
ENDBRANCH   5   6
BRANCH   5  10
ATOM     10  C   LIG    1        3.909  -1.315  -2.953  0.00  0.00    +0.170 C 
BRANCH  10  11
ATOM     11  C   LIG    1        4.301  -1.820  -4.317  0.00  0.00    +0.460 C 
ATOM     12  O   LIG    1        3.558  -1.660  -5.257  0.00  0.00    -0.520 OA
BRANCH  11  14
ATOM     13  C   LIG    1        5.787  -2.906  -5.831  0.00  0.00    +0.300 C 
ATOM     14  O   LIG    1        5.475  -2.446  -4.489  0.00  0.00    -0.340 OA
ENDBRANCH  11  14
ENDBRANCH  10  11
ENDBRANCH   5  10
ENDBRANCH   1   5
BRANCH   2  15
ATOM     15  C   LIG    1        2.486   1.702  -0.010  0.00  0.00    +0.390 C 
BRANCH  15  16
ATOM     16  C   LIG    1        1.172   2.440   0.009  0.00  0.00    -0.110 A 
ATOM     17  C   LIG    1        0.456   2.606  -1.161  0.00  0.00    +0.050 A 
ATOM     18  C   LIG    1       -0.749   3.283  -1.145  0.00  0.00    +0.000 A 
ATOM     19  C   LIG    1       -1.240   3.794   0.044  0.00  0.00    +0.120 A 
ATOM     20  C   LIG    1       -0.525   3.623   1.218  0.00  0.00    +0.010 A 
ATOM     21  F   LIG    1       -2.418   4.456   0.061  0.00  0.00    -0.120 F 
ATOM     22  C   LIG    1        0.683   2.951   1.199  0.00  0.00    -0.000 A 
ATOM     23 CL   LIG    1        1.583   2.740   2.668  0.00  0.00    -0.040 Cl
ENDBRANCH  15  16
ENDBRANCH   2  15
TORSDOF 7
