REMARK  Name = ZINCpk00000ebLcZ.0
REMARK                            x       y       z     vdW  Elec       q    Type
REMARK                         _______ _______ _______ _____ _____    ______ ____
ROOT
ATOM      1  C   LIG    1        0.649  -1.949  -1.284  0.00  0.00    +0.240 C 
ENDROOT
BRANCH   1  10
ATOM      2  O   LIG    1       -0.672   2.720   3.288  0.00  0.00    -0.550 OA
ATOM      3  C   LIG    1       -0.034   2.400   2.307  0.00  0.00    +0.480 C 
ATOM      4  C   LIG    1        1.464   2.492   2.368  0.00  0.00    +0.260 C 
ATOM      5  N   LIG    1        2.063   1.719   1.271  0.00  0.00    -0.670 NA
ATOM      6  H   LIG    1        2.002   0.728   1.452  0.00  0.00    +0.340 HD
ATOM      7  C   LIG    1        1.413   2.062  -0.000  0.00  0.00    +0.160 C 
ATOM      8  C   LIG    1        2.193   1.478  -1.173  0.00  0.00    +0.070 C 
ATOM      9  C   LIG    1        2.143  -0.050  -1.121  0.00  0.00    +0.160 C 
ATOM     10  N   LIG    1        0.741  -0.488  -1.170  0.00  0.00    -0.530 NA
ATOM     11  C   LIG    1        0.002  -0.004   0.002  0.00  0.00    +0.170 C 
ATOM     12  C   LIG    1       -0.019   1.527   0.010  0.00  0.00    +0.210 C 
ATOM     13  N   LIG    1       -0.698   1.983   1.224  0.00  0.00    -0.720 N 
ATOM     14  H   LIG    1       -1.668   1.982   1.244  0.00  0.00    +0.400 HD
ENDBRANCH   1  10
BRANCH   1  15
ATOM     15  C   LIG    1        1.203  -2.385  -2.616  0.00  0.00    -0.190 A 
ATOM     16  C   LIG    1        0.379  -2.490  -3.726  0.00  0.00    +0.350 A 
ATOM     17  N   LIG    1        0.897  -2.870  -4.881  0.00  0.00    -0.510 NA
ATOM     18  C   LIG    1        2.187  -3.160  -4.982  0.00  0.00    +0.360 A 
ATOM     19  N   LIG    1        3.001  -3.075  -3.939  0.00  0.00    -0.510 NA
ATOM     20  C   LIG    1        2.547  -2.696  -2.757  0.00  0.00    +0.330 A 
BRANCH  18  21
ATOM     21  C   LIG    1        2.732  -3.589  -6.293  0.00  0.00    -0.050 A 
ATOM     22  C   LIG    1        4.086  -3.893  -6.421  0.00  0.00    +0.090 A 
ATOM     23  C   LIG    1        4.588  -4.296  -7.642  0.00  0.00    +0.020 A 
ATOM     24  C   LIG    1        3.750  -4.390  -8.740  0.00  0.00    -0.010 A 
ATOM     25  C   LIG    1        2.405  -4.084  -8.619  0.00  0.00    +0.020 A 
ATOM     26 CL   LIG    1        4.388  -4.892 -10.275  0.00  0.00    -0.060 Cl
ATOM     27  C   LIG    1        1.893  -3.685  -7.402  0.00  0.00    +0.090 A 
ENDBRANCH  18  21
ENDBRANCH   1  15
TORSDOF 3
