REMARK  Name = ZINCkj000005lpmm.0
REMARK                            x       y       z     vdW  Elec       q    Type
REMARK                         _______ _______ _______ _____ _____    ______ ____
ROOT
ATOM      1  C   LIG    1        0.002  -0.004   0.002  0.00  0.00    +0.510 C 
ATOM      2  N   LIG    1       -0.016   1.344   0.009  0.00  0.00    -0.700 N 
ATOM      3  H   LIG    1        0.817   1.840   0.004  0.00  0.00    +0.420 HD
ATOM      4  O   LIG    1       -1.040  -0.625   0.009  0.00  0.00    -0.500 OA
ENDROOT
BRANCH   1   5
ATOM      5  C   LIG    1        1.317  -0.740  -0.015  0.00  0.00    +0.190 C 
BRANCH   5   6
ATOM      6  N   LIG    1        1.114  -2.117   0.454  0.00  0.00    -0.630 N 
ATOM      7  H   LIG    1        0.749  -2.102   1.394  0.00  0.00    +0.450 HD
ATOM      8  H   LIG    1        1.994  -2.610   0.443  0.00  0.00    +0.440 HD
ATOM      9  H   LIG    1        0.459  -2.586  -0.154  0.00  0.00    +0.450 HD
ENDBRANCH   5   6
BRANCH   5  10
ATOM     10  C   LIG    1        1.871  -0.762  -1.441  0.00  0.00    +0.130 C 
BRANCH  10  11
ATOM     11  C   LIG    1        3.263  -1.399  -1.437  0.00  0.00    +0.450 C 
ATOM     12  F   LIG    1        4.115  -0.651  -0.618  0.00  0.00    -0.160 F 
ATOM     13  F   LIG    1        3.769  -1.419  -2.741  0.00  0.00    -0.150 F 
ATOM     14  F   LIG    1        3.176  -2.707  -0.950  0.00  0.00    -0.180 F 
ENDBRANCH  10  11
ENDBRANCH   5  10
ENDBRANCH   1   5
BRANCH   2  15
ATOM     15  C   LIG    1       -1.295   2.059   0.019  0.00  0.00    +0.440 C 
BRANCH  15  16
ATOM     16  C   LIG    1       -1.040   3.544   0.026  0.00  0.00    +0.180 A 
ATOM     17  N   LIG    1       -0.820   4.273   1.086  0.00  0.00    -0.420 NA
ATOM     18  C   LIG    1       -0.632   5.548   0.715  0.00  0.00    -0.090 A 
ATOM     19  C   LIG    1       -0.747   5.613  -0.626  0.00  0.00    +0.250 A 
ATOM     20  N   LIG    1       -1.006   4.342  -1.063  0.00  0.00    -0.550 N 
ATOM     21  H   LIG    1       -1.140   4.066  -1.983  0.00  0.00    +0.430 HD
BRANCH  18  22
ATOM     22  C   LIG    1       -0.348   6.706   1.636  0.00  0.00    +0.550 C 
ATOM     23  F   LIG    1        0.423   7.660   0.963  0.00  0.00    -0.170 F 
ATOM     24  F   LIG    1        0.351   6.249   2.758  0.00  0.00    -0.170 F 
ATOM     25  F   LIG    1       -1.555   7.285   2.043  0.00  0.00    -0.170 F 
ENDBRANCH  18  22
ENDBRANCH  15  16
ENDBRANCH   2  15
TORSDOF 7
