REMARK  Name = ZINCnE000001DLyh.0
REMARK                            x       y       z     vdW  Elec       q    Type
REMARK                         _______ _______ _______ _____ _____    ______ ____
ROOT
ATOM      1  N   LIG    1       -4.912   5.239   4.152  0.00  0.00    -0.680 N 
ATOM      2  H   LIG    1       -5.045   6.200   4.147  0.00  0.00    +0.410 HD
ATOM      3  C   LIG    1       -5.734   4.449   4.870  0.00  0.00    +0.720 C 
ATOM      4  N   LIG    1       -6.685   4.999   5.651  0.00  0.00    -0.630 N 
ATOM      5  C   LIG    1       -6.963   6.436   5.835  0.00  0.00    +0.230 C 
ATOM      6  C   LIG    1       -8.441   6.562   6.246  0.00  0.00    +0.040 C 
ATOM      7  C   LIG    1       -8.964   5.108   6.314  0.00  0.00    -0.140 C 
ATOM      8  C   LIG    1       -9.673   4.725   5.013  0.00  0.00    +0.030 C 
ATOM      9  C   LIG    1       -7.669   4.284   6.496  0.00  0.00    +0.300 C 
ATOM     10  O   LIG    1       -5.617   3.240   4.814  0.00  0.00    -0.580 OA
ENDROOT
BRANCH   1  14
ATOM     11  C   LIG    1       -1.795   3.553   1.951  0.00  0.00    +0.120 A 
ATOM     12  C   LIG    1       -2.999   2.876   2.080  0.00  0.00    +0.010 A 
ATOM     13  C   LIG    1       -4.029   3.432   2.813  0.00  0.00    +0.090 A 
ATOM     14  C   LIG    1       -3.865   4.673   3.412  0.00  0.00    +0.150 A 
ATOM     15  C   LIG    1       -2.660   5.353   3.278  0.00  0.00    -0.030 A 
ATOM     16 CL   LIG    1       -2.452   6.906   4.027  0.00  0.00    -0.060 Cl
ATOM     17  C   LIG    1       -1.629   4.794   2.549  0.00  0.00    -0.050 A 
BRANCH  11  18
ATOM     18  O   LIG    1       -0.780   3.003   1.233  0.00  0.00    -0.310 OA
BRANCH  18  20
ATOM     19  C   LIG    1        1.614   2.676   1.181  0.00  0.00    +0.070 C 
ATOM     20  C   LIG    1        0.472   3.692   1.247  0.00  0.00    +0.150 C 
ATOM     21  C   LIG    1        0.552   4.628   0.039  0.00  0.00    +0.020 C 
ENDBRANCH  18  20
ENDBRANCH  11  18
ENDBRANCH   1  14
BRANCH   7  22
ATOM     22  C   LIG    1       -9.885   4.927   7.494  0.00  0.00    +0.510 C 
ATOM     23  O   LIG    1       -9.725   5.598   8.500  0.00  0.00    -0.690 OA
ATOM     24  O   LIG    1      -10.788   4.111   7.442  0.00  0.00    -0.690 OA
ENDBRANCH   7  22
TORSDOF 4
