REMARK  Name = ZINCrH000004uP23.0
REMARK                            x       y       z     vdW  Elec       q    Type
REMARK                         _______ _______ _______ _____ _____    ______ ____
ROOT
ATOM      1  C   LIG    1        1.225   2.175   0.002  0.00  0.00    +0.270 C 
ATOM      2  C   LIG    1        2.432   1.333   0.421  0.00  0.00    +0.040 C 
ATOM      3  C   LIG    1        2.424   0.035  -0.396  0.00  0.00    +0.030 C 
ATOM      4  C   LIG    1        1.219  -0.805   0.032  0.00  0.00    +0.270 C 
ATOM      5  N   LIG    1        0.002  -0.004   0.002  0.00  0.00    -0.560 N 
ATOM      6  C   LIG    1       -0.016   1.329   0.009  0.00  0.00    +0.510 C 
ATOM      7  O   LIG    1       -1.092   1.889   0.017  0.00  0.00    -0.500 OA
ENDROOT
BRANCH   5   8
ATOM      8  C   LIG    1       -1.225  -0.677  -0.038  0.00  0.00    +0.150 A 
ATOM      9  C   LIG    1       -1.802  -0.999  -1.258  0.00  0.00    +0.060 A 
ATOM     10  C   LIG    1       -3.011  -1.668  -1.295  0.00  0.00    +0.050 A 
ATOM     11  C   LIG    1       -3.652  -2.007  -0.117  0.00  0.00    -0.020 A 
ATOM     12  C   LIG    1       -3.082  -1.682   1.102  0.00  0.00    +0.050 A 
ATOM     13 CL   LIG    1       -5.173  -2.841  -0.167  0.00  0.00    -0.050 Cl
ATOM     14  C   LIG    1       -1.871  -1.018   1.145  0.00  0.00    -0.010 A 
ATOM     15 CL   LIG    1       -1.156  -0.612   2.674  0.00  0.00    -0.040 Cl
ENDBRANCH   5   8
BRANCH   1  18
ATOM     16  O   LIG    1        0.084   4.419  -0.967  0.00  0.00    -0.480 OA
ATOM     17  C   LIG    1        0.825   3.837  -1.735  0.00  0.00    +0.610 C 
ATOM     18  N   LIG    1        1.445   2.705  -1.346  0.00  0.00    -0.710 N 
ATOM     19  H   LIG    1        2.036   2.240  -1.959  0.00  0.00    +0.410 HD
BRANCH  17  20
ATOM     20  C   LIG    1        1.047   4.370  -3.092  0.00  0.00    -0.090 A 
ATOM     21  C   LIG    1        0.500   5.483  -3.632  0.00  0.00    -0.110 A 
ATOM     22  C   LIG    1       -0.443   6.502  -3.061  0.00  0.00    +0.130 C 
ATOM     23  C   LIG    1       -0.395   7.750  -3.955  0.00  0.00    +0.030 C 
ATOM     24  C   LIG    1       -0.571   7.345  -5.420  0.00  0.00    +0.030 C 
ATOM     25  C   LIG    1        0.690   6.631  -5.923  0.00  0.00    +0.140 C 
ATOM     26  C   LIG    1        1.034   5.540  -4.942  0.00  0.00    +0.020 A 
ATOM     27  N   LIG    1        1.807   4.515  -5.070  0.00  0.00    -0.330 NA
ATOM     28  O   LIG    1        1.835   3.845  -4.057  0.00  0.00    +0.100 OA
ENDBRANCH  17  20
ENDBRANCH   1  18
TORSDOF 3
