REMARK  Name = ZINCvU0000000JNp.0
REMARK                            x       y       z     vdW  Elec       q    Type
REMARK                         _______ _______ _______ _____ _____    ______ ____
ROOT
ATOM      1  C   LIG    1        1.226   5.671   2.110  0.00  0.00    +0.540 C 
ATOM      2  N   LIG    1        1.888   4.743   1.391  0.00  0.00    -0.590 N 
ATOM      3  O   LIG    1        1.668   6.038   3.178  0.00  0.00    -0.510 OA
ENDROOT
BRANCH   2   4
ATOM      4  C   LIG    1        3.084   4.102   1.945  0.00  0.00    +0.190 C 
ATOM      5  C   LIG    1        4.149   5.164   2.224  0.00  0.00    +0.030 C 
ATOM      6  C   LIG    1        5.397   4.495   2.803  0.00  0.00    -0.010 C 
ATOM      7  C   LIG    1        5.035   3.780   4.106  0.00  0.00    +0.010 C 
ATOM      8  C   LIG    1        3.970   2.718   3.826  0.00  0.00    -0.010 C 
ATOM      9  C   LIG    1        4.515   1.701   2.822  0.00  0.00    +0.020 C 
ATOM     10  C   LIG    1        4.877   2.416   1.518  0.00  0.00    +0.000 C 
ATOM     11  C   LIG    1        5.942   3.478   1.798  0.00  0.00    +0.020 C 
ATOM     12  C   LIG    1        2.721   3.387   3.248  0.00  0.00    +0.020 C 
ATOM     13  C   LIG    1        3.629   3.085   0.940  0.00  0.00    +0.030 C 
ENDBRANCH   2   4
BRANCH   1  14
ATOM     14  C   LIG    1       -0.063   6.251   1.588  0.00  0.00    +0.100 C 
BRANCH  14  15
ATOM     15  S   LIG    1       -0.704   7.460   2.773  0.00  0.00    +0.080 S 
BRANCH  15  20
ATOM     16  N   LIG    1       -3.081   8.880   2.371  0.00  0.00    -0.460 N 
ATOM     17  C   LIG    1       -4.038   8.945   1.396  0.00  0.00    +0.380 A 
ATOM     18  N   LIG    1       -3.696   8.105   0.460  0.00  0.00    -0.290 NA
ATOM     19  N   LIG    1       -2.594   7.523   0.772  0.00  0.00    -0.300 NA
ATOM     20  C   LIG    1       -2.169   7.963   1.933  0.00  0.00    +0.140 A 
BRANCH  16  21
ATOM     21  C   LIG    1       -3.041   9.640   3.623  0.00  0.00    +0.300 C 
BRANCH  21  22
ATOM     22  C   LIG    1       -2.184  10.892   3.432  0.00  0.00    +0.010 C 
BRANCH  22  23
ATOM     23  C   LIG    1       -2.142  11.686   4.740  0.00  0.00    +0.020 C 
BRANCH  23  25
ATOM     24  C   LIG    1       -1.242  13.732   5.856  0.00  0.00    +0.020 C 
ATOM     25  C   LIG    1       -1.284  12.938   4.549  0.00  0.00    +0.000 C 
ENDBRANCH  23  25
ENDBRANCH  22  23
ENDBRANCH  21  22
ENDBRANCH  16  21
ENDBRANCH  15  20
ENDBRANCH  14  15
ENDBRANCH   1  14
BRANCH   2  26
ATOM     26  C   LIG    1        1.413   4.376   0.054  0.00  0.00    +0.400 C 
BRANCH  26  27
ATOM     27  C   LIG    1        0.440   3.231   0.165  0.00  0.00    -0.040 A 
ATOM     28  C   LIG    1       -0.892   3.342   0.321  0.00  0.00    -0.040 A 
ATOM     29  C   LIG    1       -1.410   2.028   0.372  0.00  0.00    -0.060 A 
ATOM     30  C   LIG    1       -0.363   1.192   0.253  0.00  0.00    +0.170 A 
ATOM     31  O   LIG    1        0.754   1.926   0.125  0.00  0.00    -0.170 OA
ENDBRANCH  26  27
ENDBRANCH   2  26
TORSDOF 10
