REMARK  Name = ZINCrD000000CQfy.0
REMARK                            x       y       z     vdW  Elec       q    Type
REMARK                         _______ _______ _______ _____ _____    ______ ____
ROOT
ATOM      1  C   LIG    1        0.180   9.940   1.639  0.00  0.00    +0.510 C 
ATOM      2  N   LIG    1       -0.354   8.710   1.497  0.00  0.00    -0.670 N 
ATOM      3  H   LIG    1       -1.148   8.465   1.997  0.00  0.00    +0.410 HD
ATOM      4  O   LIG    1        1.122  10.274   0.953  0.00  0.00    -0.500 OA
ENDROOT
BRANCH   1   8
ATOM      5  O   LIG    1       -2.876  11.836   0.302  0.00  0.00    -0.520 OA
ATOM      6  C   LIG    1       -1.963  12.015   1.080  0.00  0.00    +0.520 C 
ATOM      7  C   LIG    1       -1.864  11.167   2.319  0.00  0.00    +0.090 C 
ATOM      8  C   LIG    1       -0.395  10.898   2.650  0.00  0.00    +0.070 C 
ATOM      9  C   LIG    1        0.375  12.192   2.609  0.00  0.00    -0.110 A 
ATOM     10  C   LIG    1        1.432  12.398   3.473  0.00  0.00    +0.060 A 
ATOM     11  C   LIG    1        2.138  13.587   3.432  0.00  0.00    -0.010 A 
ATOM     12  C   LIG    1        1.787  14.572   2.528  0.00  0.00    +0.050 A 
ATOM     13  C   LIG    1        0.730  14.372   1.661  0.00  0.00    -0.020 A 
ATOM     14  C   LIG    1        0.021  13.180   1.699  0.00  0.00    +0.170 A 
ATOM     15  N   LIG    1       -1.050  12.970   0.824  0.00  0.00    -0.660 N 
ATOM     16  H   LIG    1       -1.135  13.517   0.027  0.00  0.00    +0.410 HD
ENDBRANCH   1   8
BRANCH   2  17
ATOM     17  C   LIG    1        0.239   7.786   0.629  0.00  0.00    +0.180 A 
ATOM     18  C   LIG    1        0.827   8.220  -0.552  0.00  0.00    -0.020 A 
ATOM     19  C   LIG    1        1.412   7.308  -1.409  0.00  0.00    +0.070 A 
ATOM     20  C   LIG    1        1.419   5.964  -1.092  0.00  0.00    -0.090 A 
ATOM     21  C   LIG    1        0.828   5.524   0.085  0.00  0.00    +0.150 A 
ATOM     22  C   LIG    1        0.239   6.435   0.947  0.00  0.00    -0.050 A 
BRANCH  21  23
ATOM     23  O   LIG    1        0.830   4.200   0.393  0.00  0.00    -0.310 OA
BRANCH  23  24
ATOM     24  C   LIG    1        1.454   3.317  -0.542  0.00  0.00    +0.220 C 
BRANCH  24  25
ATOM     25  C   LIG    1        1.358   1.880  -0.027  0.00  0.00    +0.160 C 
ATOM     26  C   LIG    1        2.040   0.900  -1.016  0.00  0.00    +0.020 C 
ATOM     27  C   LIG    1        1.318  -0.433  -0.701  0.00  0.00    +0.000 C 
ATOM     28  C   LIG    1        0.006  -0.000  -0.018  0.00  0.00    +0.190 C 
ATOM     29  O   LIG    1       -0.016   1.437  -0.007  0.00  0.00    -0.370 OA
ENDBRANCH  24  25
ENDBRANCH  23  24
ENDBRANCH  21  23
ENDBRANCH   2  17
TORSDOF 5
