REMARK  Name = ZINCtV000002wRIj.0
REMARK                            x       y       z     vdW  Elec       q    Type
REMARK                         _______ _______ _______ _____ _____    ______ ____
ROOT
ATOM      1  C   LIG    1        4.698   0.942  -2.341  0.00  0.00    +0.170 C 
ENDROOT
BRANCH   1   4
ATOM      2  C   LIG    1        6.493   1.593  -5.442  0.00  0.00    +0.130 A 
ATOM      3  N   LIG    1        5.756   0.962  -4.573  0.00  0.00    -0.460 NA
ATOM      4  C   LIG    1        5.538   1.565  -3.426  0.00  0.00    +0.090 A 
ATOM      5  C   LIG    1        6.113   2.763  -3.279  0.00  0.00    -0.050 A 
ATOM      6  S   LIG    1        7.001   3.133  -4.756  0.00  0.00    +0.100 S 
BRANCH   2  10
ATOM      7  C   LIG    1        7.524   0.155  -9.306  0.00  0.00    +0.150 A 
ATOM      8  C   LIG    1        7.989   1.392  -8.880  0.00  0.00    -0.010 A 
ATOM      9  C   LIG    1        7.657   1.862  -7.627  0.00  0.00    +0.080 A 
ATOM     10  C   LIG    1        6.851   1.093  -6.786  0.00  0.00    -0.070 A 
ATOM     11  C   LIG    1        6.389  -0.153  -7.216  0.00  0.00    +0.120 A 
ATOM     12  C   LIG    1        6.721  -0.614  -8.472  0.00  0.00    -0.070 A 
BRANCH   7  13
ATOM     13  O   LIG    1        7.853  -0.305 -10.541  0.00  0.00    -0.310 OA
BRANCH  13  15
ATOM     14  C   LIG    1        7.814  -1.931 -12.328  0.00  0.00    +0.070 C 
ATOM     15  C   LIG    1        7.340  -1.585 -10.915  0.00  0.00    +0.190 C 
ENDBRANCH  13  15
ENDBRANCH   7  13
ENDBRANCH   2  10
ENDBRANCH   1   4
BRANCH   1  16
ATOM     16  S   LIG    1        2.967   1.440  -2.556  0.00  0.00    -0.160 S 
BRANCH  16  17
ATOM     17  C   LIG    1        2.128   0.606  -1.181  0.00  0.00    +0.010 C 
ATOM     18  C   LIG    1        2.218  -0.909  -1.373  0.00  0.00    +0.080 C 
BRANCH  17  19
ATOM     19  C   LIG    1        0.681   1.023  -1.148  0.00  0.00    +0.550 C 
ATOM     20  N   LIG    1       -0.011   0.966   0.007  0.00  0.00    -0.680 N 
ATOM     21  H   LIG    1        0.400   0.588   0.800  0.00  0.00    +0.410 HD
ATOM     22  O   LIG    1        0.138   1.411  -2.161  0.00  0.00    -0.490 OA
BRANCH  20  23
ATOM     23  C   LIG    1       -1.325   1.446   0.061  0.00  0.00    +0.150 A 
ATOM     24  C   LIG    1       -1.567   2.779   0.371  0.00  0.00    -0.020 A 
ATOM     25  C   LIG    1       -2.866   3.251   0.419  0.00  0.00    +0.050 A 
ATOM     26  C   LIG    1       -3.923   2.396   0.169  0.00  0.00    +0.060 A 
ATOM     27  C   LIG    1       -3.687   1.068  -0.135  0.00  0.00    +0.050 A 
ATOM     28 CL   LIG    1       -0.240   3.851   0.693  0.00  0.00    -0.040 Cl
ATOM     29  C   LIG    1       -2.390   0.590  -0.190  0.00  0.00    -0.020 A 
ATOM     30 CL   LIG    1       -2.094  -1.077  -0.570  0.00  0.00    -0.040 Cl
ENDBRANCH  20  23
ENDBRANCH  17  19
ENDBRANCH  16  17
ENDBRANCH   1  16
TORSDOF 8
