REMARK  Name = ZINCrH000004jn8M.0
REMARK                            x       y       z     vdW  Elec       q    Type
REMARK                         _______ _______ _______ _____ _____    ______ ____
ROOT
ATOM      1  C   LIG    1       -1.326   1.929  -0.143  0.00  0.00    +0.060 C 
ENDROOT
BRANCH   1   2
ATOM      2  C   LIG    1       -0.003   1.208  -0.159  0.00  0.00    +0.520 C 
ATOM      3  N   LIG    1        1.143   1.898   0.001  0.00  0.00    -0.670 N 
ATOM      4  H   LIG    1        1.123   2.867   0.054  0.00  0.00    +0.420 HD
ATOM      5  O   LIG    1        0.031   0.006  -0.320  0.00  0.00    -0.510 OA
BRANCH   3   6
ATOM      6  C   LIG    1        2.364   1.218   0.092  0.00  0.00    +0.160 A 
ATOM      7  C   LIG    1        3.524   1.796  -0.419  0.00  0.00    +0.020 A 
ATOM      8  C   LIG    1        4.718   1.148  -0.338  0.00  0.00    +0.100 A 
ATOM      9  C   LIG    1        4.803  -0.123   0.266  0.00  0.00    +0.070 A 
ATOM     10  N   LIG    1        5.875  -0.920   0.444  0.00  0.00    -0.470 NA
ATOM     11  C   LIG    1        5.693  -2.044   1.027  0.00  0.00    +0.090 A 
ATOM     12  S   LIG    1        4.058  -2.269   1.459  0.00  0.00    +0.110 S 
ATOM     13  C   LIG    1        6.787  -3.044   1.299  0.00  0.00    +0.190 C 
ATOM     14  C   LIG    1        3.635  -0.701   0.778  0.00  0.00    -0.160 A 
ATOM     15  C   LIG    1        2.421  -0.026   0.693  0.00  0.00    +0.070 A 
ENDBRANCH   3   6
ENDBRANCH   1   2
BRANCH   1  16
ATOM     16  C   LIG    1       -2.458   0.922  -0.351  0.00  0.00    +0.350 C 
BRANCH  16  19
ATOM     17  N   LIG    1       -5.527   2.716  -1.024  0.00  0.00    -0.540 N 
ATOM     18  C   LIG    1       -4.369   2.147  -1.407  0.00  0.00    +0.680 A 
ATOM     19  N   LIG    1       -3.744   1.623  -0.336  0.00  0.00    -0.540 N 
ATOM     20  C   LIG    1       -4.532   1.856   0.789  0.00  0.00    +0.090 A 
ATOM     21  C   LIG    1       -4.391   1.542   2.132  0.00  0.00    +0.030 A 
ATOM     22  C   LIG    1       -5.368   1.919   3.033  0.00  0.00    +0.020 A 
ATOM     23  C   LIG    1       -6.488   2.607   2.601  0.00  0.00    +0.020 A 
ATOM     24  C   LIG    1       -6.634   2.932   1.266  0.00  0.00    +0.030 A 
ATOM     25  O   LIG    1       -3.950   2.112  -2.549  0.00  0.00    -0.550 OA
ATOM     26  C   LIG    1       -5.661   2.555   0.353  0.00  0.00    +0.090 A 
BRANCH  17  28
ATOM     27  C   LIG    1       -7.503   2.371  -2.424  0.00  0.00    +0.030 C 
ATOM     28  C   LIG    1       -6.485   3.389  -1.905  0.00  0.00    +0.310 C 
ENDBRANCH  17  28
ENDBRANCH  16  19
ENDBRANCH   1  16
TORSDOF 5
