REMARK  Name = ZINCpe000000Xm4I.0
REMARK                            x       y       z     vdW  Elec       q    Type
REMARK                         _______ _______ _______ _____ _____    ______ ____
ROOT
ATOM      1  C   LIG    1       -4.693   0.231   2.594  0.00  0.00    +0.100 C 
ATOM      2  C   LIG    1       -3.626  -0.858   2.729  0.00  0.00    +0.010 C 
ENDROOT
BRANCH   2   3
ATOM      3  C   LIG    1       -4.273  -2.213   2.608  0.00  0.00    +0.540 C 
ATOM      4  N   LIG    1       -4.909  -2.753   3.666  0.00  0.00    -0.690 N 
ATOM      5  H   LIG    1       -4.950  -2.269   4.506  0.00  0.00    +0.410 HD
ATOM      6  C   LIG    1       -5.488  -3.966   3.558  0.00  0.00    +0.700 C 
ATOM      7  N   LIG    1       -6.124  -4.506   4.617  0.00  0.00    -0.730 N 
ATOM      8  H   LIG    1       -6.165  -4.022   5.456  0.00  0.00    +0.400 HD
ATOM      9  O   LIG    1       -5.436  -4.572   2.506  0.00  0.00    -0.520 OA
ATOM     10  O   LIG    1       -4.222  -2.818   1.558  0.00  0.00    -0.450 OA
BRANCH   7  11
ATOM     11  C   LIG    1       -6.753  -5.823   4.499  0.00  0.00    +0.180 C 
ATOM     12  C   LIG    1       -7.823  -5.782   3.407  0.00  0.00    +0.030 C 
ATOM     13  C   LIG    1       -7.400  -6.200   5.833  0.00  0.00    +0.040 C 
ATOM     14  C   LIG    1       -5.692  -6.864   4.135  0.00  0.00    +0.030 C 
ENDBRANCH   7  11
ENDBRANCH   2   3
BRANCH   2  15
ATOM     15  S   LIG    1       -2.393  -0.659   1.419  0.00  0.00    +0.100 S 
BRANCH  15  16
ATOM     16  C   LIG    1       -1.708   0.898   1.877  0.00  0.00    +0.240 A 
ATOM     17  N   LIG    1       -2.071   1.616   2.901  0.00  0.00    -0.280 NA
ATOM     18  N   LIG    1       -1.287   2.778   2.916  0.00  0.00    -0.540 N 
ATOM     19  H   LIG    1       -1.339   3.496   3.566  0.00  0.00    +0.460 HD
ATOM     20  C   LIG    1       -0.445   2.711   1.865  0.00  0.00    +0.660 A 
ATOM     21  O   LIG    1        0.391   3.542   1.558  0.00  0.00    -0.540 OA
ATOM     22  N   LIG    1       -0.698   1.558   1.213  0.00  0.00    -0.530 N 
BRANCH  22  23
ATOM     23  C   LIG    1       -0.013   1.086   0.008  0.00  0.00    +0.330 C 
BRANCH  23  24
ATOM     24  C   LIG    1       -0.753   1.593  -1.232  0.00  0.00    +0.150 C 
ATOM     25  C   LIG    1       -0.109   1.001  -2.504  0.00  0.00    +0.020 C 
ATOM     26  C   LIG    1       -0.160   2.204  -3.487  0.00  0.00    +0.010 C 
ATOM     27  C   LIG    1        0.051   3.391  -2.513  0.00  0.00    +0.200 C 
ATOM     28  O   LIG    1       -0.645   3.019  -1.312  0.00  0.00    -0.370 OA
ENDBRANCH  23  24
ENDBRANCH  22  23
ENDBRANCH  15  16
ENDBRANCH   2  15
TORSDOF 6
