REMARK  Name = ZINCrH000004pXzE.0
REMARK                            x       y       z     vdW  Elec       q    Type
REMARK                         _______ _______ _______ _____ _____    ______ ____
ROOT
ATOM      1  N   LIG    1       -4.056   0.346   1.684  0.00  0.00    -0.720 N 
ATOM      2  H   LIG    1       -4.641   0.098   0.951  0.00  0.00    +0.410 HD
ATOM      3  C   LIG    1       -2.913   1.015   1.437  0.00  0.00    +0.520 C 
ATOM      4  O   LIG    1       -2.182   1.326   2.353  0.00  0.00    -0.520 OA
ENDROOT
BRANCH   1   5
ATOM      5  C   LIG    1       -4.417  -0.005   3.060  0.00  0.00    +0.300 C 
BRANCH   5  16
ATOM      6  C   LIG    1       -7.295  -3.376   4.511  0.00  0.00    +0.050 C 
ATOM      7  C   LIG    1       -7.543  -1.889   4.250  0.00  0.00    +0.310 C 
ATOM      8  C   LIG    1       -8.387  -1.301   5.375  0.00  0.00    -0.120 A 
ATOM      9  C   LIG    1       -7.882  -0.463   6.300  0.00  0.00    -0.170 A 
ATOM     10  S   LIG    1       -9.141   0.001   7.437  0.00  0.00    +0.110 S 
ATOM     11  C   LIG    1      -10.322  -0.981   6.583  0.00  0.00    -0.040 A 
ATOM     12  C   LIG    1       -6.446   0.014   6.350  0.00  0.00    +0.110 C 
ATOM     13  C   LIG    1       -5.575  -0.927   5.503  0.00  0.00    +0.300 C 
ATOM     14  C   LIG    1       -9.741  -1.575   5.545  0.00  0.00    +0.020 A 
ATOM     15  N   LIG    1       -6.263  -1.168   4.225  0.00  0.00    -0.600 N 
ATOM     16  C   LIG    1       -5.731  -0.743   3.062  0.00  0.00    +0.520 C 
ATOM     17  O   LIG    1       -6.309  -0.954   2.018  0.00  0.00    -0.530 OA
ENDBRANCH   5  16
ENDBRANCH   1   5
BRANCH   3  18
ATOM     18  C   LIG    1       -2.542   1.377   0.022  0.00  0.00    +0.120 C 
BRANCH  18  19
ATOM     19  C   LIG    1       -1.228   2.114   0.019  0.00  0.00    -0.060 A 
ATOM     20  C   LIG    1       -1.207   3.475   0.031  0.00  0.00    +0.020 A 
ATOM     21  C   LIG    1       -0.002   4.175   0.023  0.00  0.00    +0.010 A 
ATOM     22  C   LIG    1        1.190   3.518   0.009  0.00  0.00    +0.030 A 
ATOM     23  C   LIG    1        1.209   2.112   0.002  0.00  0.00    -0.050 A 
ATOM     24  C   LIG    1        2.419   1.399  -0.013  0.00  0.00    +0.030 A 
ATOM     25  C   LIG    1        2.399   0.038  -0.020  0.00  0.00    +0.000 A 
ATOM     26  C   LIG    1        1.194  -0.661  -0.013  0.00  0.00    +0.010 A 
ATOM     27  C   LIG    1        0.002  -0.004   0.002  0.00  0.00    +0.010 A 
ATOM     28  C   LIG    1       -0.017   1.401   0.010  0.00  0.00    -0.030 A 
ENDBRANCH  18  19
ENDBRANCH   3  18
TORSDOF 4
