REMARK  Name = ZINCpe00000c84EP.0
REMARK                            x       y       z     vdW  Elec       q    Type
REMARK                         _______ _______ _______ _____ _____    ______ ____
ROOT
ATOM      1  C   LIG    1        9.086  -1.000   1.531  0.00  0.00    +0.590 C 
ATOM      2  N   LIG    1        7.761  -1.076   1.299  0.00  0.00    -0.730 N 
ATOM      3  H   LIG    1        7.144  -1.191   2.039  0.00  0.00    +0.400 HD
ATOM      4  O   LIG    1        9.860  -0.857   0.603  0.00  0.00    -0.510 OA
ENDROOT
BRANCH   1   9
ATOM      5  C   LIG    1       10.950  -1.156   4.679  0.00  0.00    -0.760 A 
ATOM      6  C   LIG    1        9.673  -1.291   5.112  0.00  0.00    +0.360 A 
ATOM      7  N   LIG    1        8.841  -1.253   4.043  0.00  0.00    -0.530 N 
ATOM      8  H   LIG    1        7.875  -1.328   4.076  0.00  0.00    +0.420 HD
ATOM      9  C   LIG    1        9.596  -1.091   2.904  0.00  0.00    -0.060 A 
ATOM     10  C   LIG    1       10.919  -1.034   3.287  0.00  0.00    +0.160 A 
BRANCH   5  11
ATOM     11  S   LIG    1       12.393  -1.144   5.691  0.00  0.00    +2.730 S 
ATOM     12  O   LIG    1       11.970  -0.749   6.988  0.00  0.00    -0.970 OA
ATOM     13  O   LIG    1       13.392  -0.452   4.955  0.00  0.00    -0.960 OA
BRANCH  11  14
ATOM     14  N   LIG    1       12.911  -2.711   5.824  0.00  0.00    -1.250 NA
ATOM     15  H   LIG    1       13.701  -2.917   6.348  0.00  0.00    +0.420 HD
ATOM     16  H   LIG    1       12.424  -3.422   5.380  0.00  0.00    +0.420 HD
ENDBRANCH  11  14
ENDBRANCH   5  11
ENDBRANCH   1   9
BRANCH   2  17
ATOM     17  C   LIG    1        7.251  -0.986  -0.072  0.00  0.00    +0.400 C 
BRANCH  17  18
ATOM     18  C   LIG    1        5.748  -1.098  -0.058  0.00  0.00    -0.040 A 
ATOM     19  C   LIG    1        4.860  -0.076  -0.049  0.00  0.00    +0.170 A 
ATOM     20  N   LIG    1        3.626  -0.650  -0.035  0.00  0.00    -0.240 N 
ATOM     21  N   LIG    1        3.779  -1.929  -0.043  0.00  0.00    -0.050 NA
ATOM     22  N   LIG    1        5.030  -2.227  -0.056  0.00  0.00    -0.240 NA
BRANCH  20  23
ATOM     23  C   LIG    1        2.401   0.032  -0.020  0.00  0.00    +0.120 A 
ATOM     24  C   LIG    1        2.378   1.419  -0.013  0.00  0.00    +0.030 A 
ATOM     25  C   LIG    1        1.169   2.089   0.002  0.00  0.00    +0.060 A 
ATOM     26  C   LIG    1       -0.017   1.379   0.010  0.00  0.00    +0.060 A 
ATOM     27  C   LIG    1        0.002  -0.004   0.002  0.00  0.00    +0.060 A 
ATOM     28  C   LIG    1        1.208  -0.680  -0.013  0.00  0.00    -0.030 A 
ATOM     29 CL   LIG    1        1.231  -2.416  -0.022  0.00  0.00    -0.020 Cl
ENDBRANCH  20  23
ENDBRANCH  17  18
ENDBRANCH   2  17
TORSDOF 6
