REMARK  Name = ZINCqH0000037pVQ.0
REMARK                            x       y       z     vdW  Elec       q    Type
REMARK                         _______ _______ _______ _____ _____    ______ ____
ROOT
ATOM      1  C   LIG    1       -0.308   3.818   2.557  0.00  0.00    +0.090 C 
ATOM      2  C   LIG    1       -1.079   2.526   2.275  0.00  0.00    +0.160 C 
ATOM      3  C   LIG    1       -2.584   2.782   2.431  0.00  0.00    +0.260 C 
ATOM      4  N   LIG    1       -3.285   1.528   2.103  0.00  0.00    -0.550 N 
ATOM      5  C   LIG    1       -2.826   0.794   0.997  0.00  0.00    +0.100 A 
ATOM      6  C   LIG    1       -3.602  -0.227   0.471  0.00  0.00    +0.050 A 
ATOM      7  C   LIG    1       -3.144  -0.952  -0.614  0.00  0.00    +0.040 A 
ATOM      8  C   LIG    1       -1.915  -0.660  -1.174  0.00  0.00    +0.010 A 
ATOM      9  C   LIG    1       -1.137   0.360  -0.654  0.00  0.00    +0.100 A 
ATOM     10  F   LIG    1        0.064   0.642  -1.207  0.00  0.00    -0.130 F 
ATOM     11  C   LIG    1       -1.589   1.094   0.434  0.00  0.00    +0.060 A 
ATOM     12  C   LIG    1       -4.329   1.099   2.840  0.00  0.00    +0.590 C 
ATOM     13  O   LIG    1       -4.861   0.037   2.580  0.00  0.00    -0.480 OA
ATOM     14  O   LIG    1       -0.820   2.096   0.936  0.00  0.00    -0.290 OA
ENDROOT
BRANCH  12  15
ATOM     15  C   LIG    1       -4.824   1.916   3.958  0.00  0.00    +0.020 A 
ATOM     16  C   LIG    1       -6.082   2.417   4.070  0.00  0.00    +0.060 A 
ATOM     17  C   LIG    1       -6.151   3.142   5.284  0.00  0.00    -0.110 A 
ATOM     18  C   LIG    1       -7.171   3.862   5.918  0.00  0.00    +0.070 A 
ATOM     19  C   LIG    1       -6.930   4.471   7.116  0.00  0.00    -0.010 A 
ATOM     20  C   LIG    1       -5.679   4.382   7.715  0.00  0.00    +0.050 A 
ATOM     21  C   LIG    1       -4.660   3.679   7.111  0.00  0.00    -0.010 A 
ATOM     22  C   LIG    1       -4.882   3.051   5.889  0.00  0.00    +0.110 A 
ATOM     23  N   LIG    1       -4.087   2.291   5.064  0.00  0.00    -0.470 N 
BRANCH  23  24
ATOM     24  C   LIG    1       -2.687   1.940   5.315  0.00  0.00    +0.470 C 
BRANCH  24  25
ATOM     25  C   LIG    1       -1.871   3.165   5.338  0.00  0.00    +0.170 C 
ATOM     26  N   LIG    1       -1.240   4.110   5.356  0.00  0.00    -0.360 NA
ENDBRANCH  24  25
ENDBRANCH  23  24
ENDBRANCH  12  15
TORSDOF 3
