REMARK  Name = ZINCvU0000000AUV.0
REMARK                            x       y       z     vdW  Elec       q    Type
REMARK                         _______ _______ _______ _____ _____    ______ ____
ROOT
ATOM      1  C   LIG    1        0.323  -2.793   0.792  0.00  0.00    +0.130 A 
ATOM      2  C   LIG    1        0.181  -1.413   0.860  0.00  0.00    +0.150 A 
ATOM      3  C   LIG    1       -0.006  -0.682  -0.297  0.00  0.00    -0.660 A 
ATOM      4  C   LIG    1       -0.059  -1.323  -1.521  0.00  0.00    +0.110 A 
ATOM      5  C   LIG    1        0.088  -2.696  -1.592  0.00  0.00    +0.020 A 
ATOM      6  C   LIG    1        0.275  -3.433  -0.440  0.00  0.00    -0.060 A 
ATOM      7  C   LIG    1        0.428  -4.930  -0.518  0.00  0.00    +0.100 C 
ENDROOT
BRANCH   1   9
ATOM      8  C   LIG    1        1.042  -2.950   3.054  0.00  0.00    +0.550 C 
ATOM      9  N   LIG    1        0.512  -3.536   1.961  0.00  0.00    -0.670 N 
ATOM     10  H   LIG    1        0.263  -4.473   1.986  0.00  0.00    +0.410 HD
ATOM     11  O   LIG    1        1.446  -1.804   2.994  0.00  0.00    -0.510 OA
BRANCH   8  13
ATOM     12  C   LIG    1        1.660  -3.106   5.405  0.00  0.00    +0.160 C 
ATOM     13  C   LIG    1        1.129  -3.692   4.311  0.00  0.00    -0.110 C 
BRANCH  12  19
ATOM     14  C   LIG    1        2.299  -3.245   7.809  0.00  0.00    +0.160 A 
ATOM     15  C   LIG    1        2.376  -3.958   8.995  0.00  0.00    -0.080 A 
ATOM     16  C   LIG    1        1.914  -5.260   9.053  0.00  0.00    +0.070 A 
ATOM     17  C   LIG    1        1.370  -5.862   7.930  0.00  0.00    -0.030 A 
ATOM     18  C   LIG    1        1.278  -5.167   6.743  0.00  0.00    +0.070 A 
ATOM     19  C   LIG    1        1.748  -3.851   6.668  0.00  0.00    -0.120 A 
BRANCH  14  21
ATOM     20  C   LIG    1        3.299  -1.418   8.952  0.00  0.00    +0.240 C 
ATOM     21  O   LIG    1        2.752  -1.968   7.751  0.00  0.00    -0.310 OA
ENDBRANCH  14  21
ENDBRANCH  12  19
ENDBRANCH   8  13
ENDBRANCH   1   9
BRANCH   3  22
ATOM     22  S   LIG    1       -0.186   1.069  -0.212  0.00  0.00    +2.690 S 
ATOM     23  O   LIG    1       -0.745   1.354   1.064  0.00  0.00    -0.940 OA
ATOM     24  O   LIG    1       -0.792   1.470  -1.433  0.00  0.00    -0.950 OA
BRANCH  22  25
ATOM     25  N   LIG    1        1.337   1.719  -0.210  0.00  0.00    -1.060 N 
ATOM     26  H   LIG    1        1.611   2.315  -0.925  0.00  0.00    +0.430 HD
BRANCH  25  27
ATOM     27  C   LIG    1        2.229   1.408   0.820  0.00  0.00    +0.140 A 
ATOM     28  C   LIG    1        1.808   1.457   2.143  0.00  0.00    +0.030 A 
ATOM     29  C   LIG    1        2.689   1.144   3.159  0.00  0.00    +0.070 A 
ATOM     30  C   LIG    1        3.994   0.792   2.861  0.00  0.00    -0.030 A 
ATOM     31  C   LIG    1        4.418   0.748   1.544  0.00  0.00    +0.050 A 
ATOM     32 CL   LIG    1        5.101   0.406   4.141  0.00  0.00    -0.070 Cl
ATOM     33  C   LIG    1        3.539   1.055   0.524  0.00  0.00    +0.020 A 
ENDBRANCH  25  27
ENDBRANCH  22  25
ENDBRANCH   3  22
TORSDOF 7
