REMARK  Name = ZINCkj000005hxqV.0
REMARK                            x       y       z     vdW  Elec       q    Type
REMARK                         _______ _______ _______ _____ _____    ______ ____
ROOT
ATOM      1  C   LIG    1       -0.378   6.630   0.612  0.00  0.00    -0.030 C 
ATOM      2  C   LIG    1       -1.344   5.796  -0.271  0.00  0.00    +0.040 C 
ATOM      3  C   LIG    1       -0.615   4.441  -0.392  0.00  0.00    +0.260 C 
ATOM      4  N   LIG    1        0.307   4.338   0.749  0.00  0.00    -0.630 N 
ATOM      5  C   LIG    1        1.141   3.308   0.994  0.00  0.00    +0.550 C 
ATOM      6  O   LIG    1        1.810   3.297   2.006  0.00  0.00    -0.490 OA
ATOM      7  C   LIG    1        0.172   5.551   1.577  0.00  0.00    +0.290 C 
ENDROOT
BRANCH   5   8
ATOM      8  C   LIG    1        1.242   2.170   0.012  0.00  0.00    +0.220 C 
ATOM      9  O   LIG    1        2.587   1.695  -0.025  0.00  0.00    -0.350 OA
ATOM     10  C   LIG    1        2.740   0.496  -0.793  0.00  0.00    +0.230 C 
ATOM     11  C   LIG    1        2.088  -0.657  -0.027  0.00  0.00    +0.060 C 
ATOM     12  C   LIG    1        0.702  -0.258   0.410  0.00  0.00    -0.060 A 
ATOM     13  C   LIG    1       -0.186  -1.249   0.796  0.00  0.00    +0.020 A 
ATOM     14  C   LIG    1       -1.463  -0.918   1.206  0.00  0.00    +0.030 A 
ATOM     15  C   LIG    1       -1.857   0.407   1.231  0.00  0.00    +0.010 A 
ATOM     16  C   LIG    1       -0.974   1.394   0.841  0.00  0.00    +0.000 A 
ATOM     17  C   LIG    1        0.309   1.064   0.431  0.00  0.00    -0.120 A 
ENDBRANCH   5   8
BRANCH   1  18
ATOM     18  C   LIG    1       -1.136   7.716   1.379  0.00  0.00    +0.280 C 
BRANCH  18  20
ATOM     19  C   LIG    1       -2.267   9.823   1.186  0.00  0.00    +0.330 C 
ATOM     20  N   LIG    1       -1.539   8.781   0.450  0.00  0.00    -0.510 N 
ATOM     21  H   LIG    1       -2.137   8.395  -0.265  0.00  0.00    +0.430 HD
ATOM     22  H   LIG    1       -0.718   9.182   0.022  0.00  0.00    +0.430 HD
ENDBRANCH  18  20
ENDBRANCH   1  18
TORSDOF 3
