REMARK  Name = ZINCqH0000008IUN.0
REMARK                            x       y       z     vdW  Elec       q    Type
REMARK                         _______ _______ _______ _____ _____    ______ ____
ROOT
ATOM      1  C   LIG    1        7.055   0.253  -1.381  0.00  0.00    +0.030 C 
ATOM      2  C   LIG    1        5.681  -0.416  -1.326  0.00  0.00    -0.020 C 
ATOM      3  C   LIG    1        4.879   0.158  -0.154  0.00  0.00    +0.300 C 
ATOM      4  N   LIG    1        3.616  -0.584  -0.036  0.00  0.00    -0.580 N 
ATOM      5  C   LIG    1        3.665  -2.048   0.072  0.00  0.00    +0.290 C 
ATOM      6  C   LIG    1        4.480  -2.598  -1.108  0.00  0.00    +0.030 C 
ATOM      7  C   LIG    1        5.854  -1.924  -1.130  0.00  0.00    +0.040 C 
ENDROOT
BRANCH   4   8
ATOM      8  C   LIG    1        2.398   0.087  -0.020  0.00  0.00    +0.420 A 
ATOM      9  N   LIG    1        2.371   1.384  -0.223  0.00  0.00    -0.340 NA
ATOM     10  N   LIG    1        1.158   2.077  -0.211  0.00  0.00    -0.240 N 
ATOM     11  C   LIG    1       -0.017   1.404   0.012  0.00  0.00    +0.150 A 
ATOM     12  C   LIG    1        0.014   0.013   0.229  0.00  0.00    +0.190 A 
ATOM     13  N   LIG    1       -0.989   2.301  -0.038  0.00  0.00    -0.230 NA
ATOM     14  N   LIG    1       -0.482   3.463  -0.267  0.00  0.00    -0.200 NA
ATOM     15  C   LIG    1        0.820   3.373  -0.382  0.00  0.00    +0.100 A 
ATOM     16  C   LIG    1        1.210  -0.632   0.212  0.00  0.00    +0.000 A 
BRANCH  15  17
ATOM     17  C   LIG    1        1.769   4.511  -0.656  0.00  0.00    +0.580 C 
ATOM     18  F   LIG    1        2.201   4.448  -1.986  0.00  0.00    -0.160 F 
ATOM     19  F   LIG    1        2.873   4.414   0.198  0.00  0.00    -0.160 F 
ATOM     20  F   LIG    1        1.114   5.727  -0.436  0.00  0.00    -0.150 F 
ENDBRANCH  15  17
ENDBRANCH   4   8
BRANCH   7  21
ATOM     21  C   LIG    1        6.671  -2.487  -2.264  0.00  0.00    -0.070 A 
ATOM     22  C   LIG    1        6.218  -2.373  -3.566  0.00  0.00    +0.010 A 
ATOM     23  C   LIG    1        6.971  -2.885  -4.606  0.00  0.00    +0.000 A 
ATOM     24  C   LIG    1        8.170  -3.520  -4.345  0.00  0.00    +0.000 A 
ATOM     25  C   LIG    1        8.621  -3.638  -3.043  0.00  0.00    +0.000 A 
ATOM     26  C   LIG    1        7.871  -3.121  -2.003  0.00  0.00    +0.000 A 
ENDBRANCH   7  21
TORSDOF 3
