REMARK  Name = ZINCpk00000KfLmy.0
REMARK                            x       y       z     vdW  Elec       q    Type
REMARK                         _______ _______ _______ _____ _____    ______ ____
ROOT
ATOM      1  C   LIG    1       -2.461   0.084   0.231  0.00  0.00    +0.130 C 
ATOM      2  C   LIG    1       -1.165  -0.677   0.115  0.00  0.00    +0.180 C 
ATOM      3  C   LIG    1       -0.011  -0.002  -0.009  0.00  0.00    -0.240 C 
ATOM      4  C   LIG    1        1.308  -0.709  -0.131  0.00  0.00    +0.260 C 
ATOM      5  C   LIG    1        1.185  -2.146   0.289  0.00  0.00    -0.120 C 
ATOM      6  C   LIG    1       -0.029  -2.748   0.398  0.00  0.00    +0.160 C 
ATOM      7  N   LIG    1       -1.183  -2.045   0.133  0.00  0.00    -0.640 N 
ATOM      8  H   LIG    1       -2.011  -2.521  -0.038  0.00  0.00    +0.420 HD
ENDROOT
BRANCH   4   9
ATOM      9  C   LIG    1        2.321  -0.022   0.748  0.00  0.00    -0.020 A 
ATOM     10  C   LIG    1        3.423   0.622   0.323  0.00  0.00    -0.040 A 
ATOM     11  C   LIG    1        4.080   1.114   1.474  0.00  0.00    -0.060 A 
ATOM     12  C   LIG    1        3.345   0.734   2.535  0.00  0.00    +0.160 A 
ATOM     13  O   LIG    1        2.281   0.046   2.089  0.00  0.00    -0.170 OA
ENDBRANCH   4   9
BRANCH   3  14
ATOM     14  C   LIG    1       -0.038   1.413  -0.019  0.00  0.00    +0.590 C 
ATOM     15  O   LIG    1        0.108   2.018  -1.066  0.00  0.00    -0.530 OA
ATOM     16  N   LIG    1       -0.221   2.092   1.131  0.00  0.00    -0.850 N 
ATOM     17  H   LIG    1       -0.313   3.058   1.115  0.00  0.00    +0.400 HD
ATOM     18  H   LIG    1       -0.261   1.616   1.974  0.00  0.00    +0.400 HD
ENDBRANCH   3  14
BRANCH   5  19
ATOM     19  C   LIG    1        2.370  -2.897   0.578  0.00  0.00    +0.260 C 
ATOM     20  N   LIG    1        3.309  -3.493   0.808  0.00  0.00    -0.400 NA
ENDBRANCH   5  19
BRANCH   6  21
ATOM     21  S   LIG    1       -0.127  -4.439   0.882  0.00  0.00    +0.050 S 
BRANCH  21  22
ATOM     22  C   LIG    1       -1.922  -4.671   0.854  0.00  0.00    +0.070 C 
BRANCH  22  23
ATOM     23  C   LIG    1       -2.252  -6.088   1.246  0.00  0.00    +0.540 C 
ATOM     24  N   LIG    1       -3.537  -6.492   1.295  0.00  0.00    -0.690 N 
ATOM     25  H   LIG    1       -4.249  -5.871   1.077  0.00  0.00    +0.400 HD
ATOM     26  O   LIG    1       -1.361  -6.865   1.518  0.00  0.00    -0.510 OA
BRANCH  24  27
ATOM     27  C   LIG    1       -3.857  -7.870   1.676  0.00  0.00    +0.210 C 
ATOM     28  C   LIG    1       -4.921  -8.601   0.855  0.00  0.00    +0.020 C 
ATOM     29  C   LIG    1       -5.240  -8.133   2.277  0.00  0.00    +0.020 C 
ENDBRANCH  24  27
ENDBRANCH  22  23
ENDBRANCH  21  22
ENDBRANCH   6  21
TORSDOF 7
