REMARK  Name = ZINCpk00000y6yvU.2
REMARK                            x       y       z     vdW  Elec       q    Type
REMARK                         _______ _______ _______ _____ _____    ______ ____
ROOT
ATOM      1  C   LIG    1        1.643   3.954  -0.128  0.00  0.00    +0.260 C 
ENDROOT
BRANCH   1   6
ATOM      2  N   LIG    1       -0.546   2.676   0.149  0.00  0.00    -0.320 N 
ATOM      3  N   LIG    1       -0.925   1.339   0.333  0.00  0.00    -0.280 NA
ATOM      4  C   LIG    1        0.160   0.609   0.373  0.00  0.00    +0.240 A 
ATOM      5  C   LIG    1        1.264   1.453   0.208  0.00  0.00    -0.090 A 
ATOM      6  C   LIG    1        0.803   2.719   0.072  0.00  0.00    +0.090 A 
BRANCH   2  13
ATOM      7  C   LIG    1       -2.689   2.544  -1.721  0.00  0.00    +0.110 C 
ATOM      8  C   LIG    1       -2.471   3.750  -0.843  0.00  0.00    -0.070 A 
ATOM      9  C   LIG    1       -3.327   4.830  -0.929  0.00  0.00    +0.020 A 
ATOM     10  C   LIG    1       -3.124   5.940  -0.128  0.00  0.00    +0.020 A 
ATOM     11  C   LIG    1       -2.069   5.968   0.764  0.00  0.00    +0.020 A 
ATOM     12  C   LIG    1       -1.213   4.888   0.858  0.00  0.00    +0.010 A 
ATOM     13  C   LIG    1       -1.413   3.773   0.056  0.00  0.00    +0.150 A 
ENDBRANCH   2  13
ENDBRANCH   1   6
BRANCH   1  14
ATOM     14  N   LIG    1        1.775   4.229  -1.565  0.00  0.00    -0.510 NA
ATOM     15  C   LIG    1        0.542   4.833  -2.102  0.00  0.00    +0.190 C 
ATOM     16  C   LIG    1        0.937   6.179  -2.748  0.00  0.00    +0.000 C 
ATOM     17  C   LIG    1        2.449   5.995  -3.041  0.00  0.00    +0.120 C 
ATOM     18  C   LIG    1        2.903   5.147  -1.827  0.00  0.00    +0.230 C 
BRANCH  17  19
ATOM     19  O   LIG    1        2.650   5.286  -4.266  0.00  0.00    -0.530 OA
ATOM     20  H   LIG    1        2.294   5.736  -5.044  0.00  0.00    +0.390 HD
ENDBRANCH  17  19
BRANCH  17  21
ATOM     21  C   LIG    1        3.170   7.345  -3.068  0.00  0.00    +0.320 C 
BRANCH  21  22
ATOM     22  N   LIG    1        2.532   8.219  -4.056  0.00  0.00    -0.290 N 
ATOM     23  C   LIG    1        2.042   9.458  -3.818  0.00  0.00    +0.140 A 
ATOM     24  C   LIG    1        1.548   9.900  -4.998  0.00  0.00    +0.140 A 
ATOM     25  N   LIG    1        1.758   8.924  -5.888  0.00  0.00    -0.260 NA
ATOM     26  N   LIG    1        2.348   7.944  -5.299  0.00  0.00    -0.090 NA
ENDBRANCH  21  22
ENDBRANCH  17  21
ENDBRANCH   1  14
TORSDOF 6
