REMARK  Name = ZINCrH000004uccc.0
REMARK                            x       y       z     vdW  Elec       q    Type
REMARK                         _______ _______ _______ _____ _____    ______ ____
ROOT
ATOM      1  C   LIG    1       -5.891   2.259   1.928  0.00  0.00    -0.120 A 
ATOM      2  C   LIG    1       -7.077   1.809   1.346  0.00  0.00    +0.040 A 
ATOM      3  C   LIG    1       -7.425   2.232   0.080  0.00  0.00    +0.010 A 
ATOM      4  C   LIG    1       -6.604   3.105  -0.611  0.00  0.00    +0.040 A 
ATOM      5  C   LIG    1       -5.430   3.560  -0.037  0.00  0.00    +0.030 A 
ATOM      6  C   LIG    1       -5.070   3.145   1.228  0.00  0.00    -0.030 A 
ENDROOT
BRANCH   1   8
ATOM      7  O   LIG    1       -4.426   2.109   3.742  0.00  0.00    -0.510 OA
ATOM      8  C   LIG    1       -5.509   1.805   3.282  0.00  0.00    +0.550 C 
ATOM      9  N   LIG    1       -6.362   1.054   4.007  0.00  0.00    -0.730 N 
ATOM     10  H   LIG    1       -7.227   0.811   3.640  0.00  0.00    +0.400 HD
BRANCH   9  11
ATOM     11  C   LIG    1       -5.984   0.604   5.348  0.00  0.00    +0.260 C 
BRANCH  11  12
ATOM     12  C   LIG    1       -7.121  -0.225   5.948  0.00  0.00    +0.060 C 
BRANCH  12  13
ATOM     13  C   LIG    1       -6.783  -0.582   7.397  0.00  0.00    -0.120 C 
ATOM     14  C   LIG    1       -7.948  -0.733   8.378  0.00  0.00    +0.040 C 
ATOM     15  C   LIG    1       -7.028   0.487   8.464  0.00  0.00    +0.030 C 
BRANCH  13  16
ATOM     16  C   LIG    1       -5.577  -1.505   7.585  0.00  0.00    +0.210 C 
BRANCH  16  17
ATOM     17  O   LIG    1       -5.780  -2.710   6.845  0.00  0.00    -0.570 OA
ATOM     18  H   LIG    1       -5.053  -3.344   6.918  0.00  0.00    +0.380 HD
ENDBRANCH  16  17
ENDBRANCH  13  16
ENDBRANCH  12  13
ENDBRANCH  11  12
ENDBRANCH   9  11
ENDBRANCH   1   8
BRANCH   6  19
ATOM     19  C   LIG    1       -3.791   3.641   1.851  0.00  0.00    +0.170 C 
BRANCH  19  20
ATOM     20  S   LIG    1       -2.480   2.421   1.590  0.00  0.00    +0.020 S 
BRANCH  20  21
ATOM     21  C   LIG    1       -1.140   3.235   2.395  0.00  0.00    +0.270 A 
ATOM     22  N   LIG    1       -1.213   4.404   2.982  0.00  0.00    -0.490 NA
ATOM     23  C   LIG    1        0.001   4.732   3.498  0.00  0.00    +0.060 A 
ATOM     24  C   LIG    1        0.475   5.837   4.209  0.00  0.00    +0.060 A 
ATOM     25  C   LIG    1        1.791   5.878   4.613  0.00  0.00    +0.000 A 
ATOM     26  C   LIG    1        2.651   4.832   4.315  0.00  0.00    +0.030 A 
ATOM     27  C   LIG    1        2.200   3.735   3.609  0.00  0.00    +0.010 A 
ATOM     28  C   LIG    1        0.878   3.678   3.194  0.00  0.00    +0.050 A 
ATOM     29  N   LIG    1        0.133   2.747   2.489  0.00  0.00    -0.590 N 
ATOM     30  H   LIG    1        0.452   1.901   2.138  0.00  0.00    +0.430 HD
ENDBRANCH  20  21
ENDBRANCH  19  20
ENDBRANCH   6  19
TORSDOF 9
