REMARK  Name = ZINCpk00000ebtTr.0
REMARK                            x       y       z     vdW  Elec       q    Type
REMARK                         _______ _______ _______ _____ _____    ______ ____
ROOT
ATOM      1  C   LIG    1       -3.763   4.210   3.792  0.00  0.00    +0.230 C 
ENDROOT
BRANCH   1   2
ATOM      2  N   LIG    1       -4.655   5.356   3.571  0.00  0.00    -0.520 NA
ATOM      3  C   LIG    1       -5.542   5.121   2.423  0.00  0.00    +0.160 C 
ATOM      4  C   LIG    1       -6.410   6.361   2.192  0.00  0.00    +0.230 C 
ATOM      5  O   LIG    1       -7.138   6.656   3.388  0.00  0.00    -0.380 OA
ATOM      6  C   LIG    1       -6.304   6.892   4.526  0.00  0.00    +0.170 C 
ATOM      7  C   LIG    1       -5.436   5.657   4.780  0.00  0.00    +0.170 C 
BRANCH   6   8
ATOM      8  C   LIG    1       -7.179   7.162   5.752  0.00  0.00    +0.360 C 
BRANCH   8   9
ATOM      9  N   LIG    1       -7.921   8.410   5.556  0.00  0.00    -0.370 N 
ATOM     10  C   LIG    1       -9.253   8.575   5.631  0.00  0.00    +0.480 A 
ATOM     11  N   LIG    1       -9.521   9.834   5.395  0.00  0.00    -0.550 NA
ATOM     12  C   LIG    1       -8.390  10.501   5.166  0.00  0.00    +0.420 A 
ATOM     13  N   LIG    1       -7.383   9.673   5.259  0.00  0.00    -0.320 NA
ENDBRANCH   8   9
ENDBRANCH   6   8
ENDBRANCH   1   2
BRANCH   1  15
ATOM     14  O   LIG    1       -3.077   4.672   1.582  0.00  0.00    -0.500 OA
ATOM     15  C   LIG    1       -3.004   3.913   2.525  0.00  0.00    +0.520 C 
ATOM     16  N   LIG    1       -2.244   2.803   2.439  0.00  0.00    -0.540 N 
BRANCH  16  17
ATOM     17  C   LIG    1       -1.454   2.585   1.313  0.00  0.00    +0.120 C 
ATOM     18  C   LIG    1       -0.911   1.411   1.163  0.00  0.00    -0.110 C 
ATOM     19  C   LIG    1       -0.028   1.034   0.010  0.00  0.00    +0.070 C 
ATOM     20  C   LIG    1       -0.208   2.032  -1.136  0.00  0.00    +0.010 C 
ATOM     21  C   LIG    1       -0.082   3.451  -0.569  0.00  0.00    +0.010 C 
ATOM     22  C   LIG    1       -1.282   3.717   0.343  0.00  0.00    +0.090 C 
ENDBRANCH  16  17
BRANCH  16  23
ATOM     23  C   LIG    1       -2.248   1.826   3.531  0.00  0.00    +0.180 C 
ATOM     24  C   LIG    1       -2.020   2.352   4.950  0.00  0.00    +0.030 C 
ATOM     25  C   LIG    1       -0.920   1.556   4.242  0.00  0.00    +0.040 C 
ENDBRANCH  16  23
ENDBRANCH   1  15
TORSDOF 6
