REMARK  Name = ZINCpe00000gNiv9.0
REMARK                            x       y       z     vdW  Elec       q    Type
REMARK                         _______ _______ _______ _____ _____    ______ ____
ROOT
ATOM      1  O   LIG    1        0.575   3.917  -0.081  0.00  0.00    -0.490 OA
ATOM      2  C   LIG    1        1.486   3.119  -0.136  0.00  0.00    +0.530 C 
ATOM      3  N   LIG    1        1.232   1.798  -0.051  0.00  0.00    -0.540 N 
ATOM      4  C   LIG    1       -0.044   1.230   0.003  0.00  0.00    +0.150 A 
ATOM      5  C   LIG    1       -1.293   1.854  -0.016  0.00  0.00    +0.010 A 
ATOM      6  C   LIG    1       -2.447   1.102   0.047  0.00  0.00    +0.040 A 
ATOM      7  C   LIG    1       -2.376  -0.276   0.129  0.00  0.00    -0.010 A 
ATOM      8  C   LIG    1       -1.143  -0.901   0.148  0.00  0.00    +0.040 A 
ATOM      9  C   LIG    1        0.016  -0.152   0.085  0.00  0.00    -0.130 A 
ATOM     10  C   LIG    1        1.469  -0.572   0.088  0.00  0.00    +0.110 C 
ATOM     11  C   LIG    1        2.252   0.748  -0.004  0.00  0.00    +0.230 C 
ENDROOT
BRANCH   2  12
ATOM     12  C   LIG    1        2.904   3.605  -0.297  0.00  0.00    +0.160 C 
ATOM     13  C   LIG    1        3.770   3.141   0.895  0.00  0.00    +0.020 C 
ATOM     14  C   LIG    1        4.721   4.331   1.154  0.00  0.00    +0.020 C 
ATOM     15  C   LIG    1        4.317   5.373   0.088  0.00  0.00    +0.150 C 
ATOM     16  O   LIG    1        2.950   5.047  -0.247  0.00  0.00    -0.320 OA
BRANCH  15  17
ATOM     17  C   LIG    1        4.403   6.787   0.665  0.00  0.00    +0.200 C 
BRANCH  17  18
ATOM     18  N   LIG    1        4.015   7.761  -0.364  0.00  0.00    -0.530 NA
ATOM     19  C   LIG    1        4.989   7.780  -1.465  0.00  0.00    +0.140 C 
ATOM     20  C   LIG    1        4.516   8.762  -2.540  0.00  0.00    +0.220 C 
ATOM     21  O   LIG    1        4.337  10.054  -1.953  0.00  0.00    -0.390 OA
ATOM     22  C   LIG    1        3.395  10.072  -0.878  0.00  0.00    +0.220 C 
ATOM     23  C   LIG    1        3.857   9.104   0.214  0.00  0.00    +0.150 C 
ENDBRANCH  17  18
ENDBRANCH  15  17
ENDBRANCH   2  12
BRANCH  11  24
ATOM     24  C   LIG    1        3.101   0.774  -1.277  0.00  0.00    +0.180 C 
BRANCH  24  25
ATOM     25  O   LIG    1        2.257   0.591  -2.416  0.00  0.00    -0.560 OA
ATOM     26  H   LIG    1        2.729   0.596  -3.260  0.00  0.00    +0.380 HD
ENDBRANCH  24  25
ENDBRANCH  11  24
TORSDOF 5
