REMARK  Name = ZINCrH000004rj9N.0
REMARK                            x       y       z     vdW  Elec       q    Type
REMARK                         _______ _______ _______ _____ _____    ______ ____
ROOT
ATOM      1  N   LIG    1        0.506   6.085   1.537  0.00  0.00    -0.990 NA
ATOM      2  C   LIG    1       -0.278   6.285   2.764  0.00  0.00    +0.290 C 
ATOM      3  C   LIG    1       -0.015   7.692   3.298  0.00  0.00    +0.030 C 
ATOM      4  C   LIG    1        1.491   7.896   3.474  0.00  0.00    +0.180 C 
ATOM      5  C   LIG    1        2.189   7.754   2.119  0.00  0.00    -0.000 C 
ATOM      6  C   LIG    1        1.952   6.342   1.573  0.00  0.00    +0.290 C 
ENDROOT
BRANCH   4   7
ATOM      7  N   LIG    1        1.743   9.238   4.016  0.00  0.00    -0.480 N 
ATOM      8  C   LIG    1        1.507  10.222   3.049  0.00  0.00    +0.100 A 
ATOM      9  C   LIG    1        0.304  10.734   2.568  0.00  0.00    +0.010 A 
ATOM     10  C   LIG    1        0.305  11.711   1.595  0.00  0.00    +0.030 A 
ATOM     11  C   LIG    1        1.499  12.189   1.088  0.00  0.00    +0.000 A 
ATOM     12  C   LIG    1        2.699  11.688   1.562  0.00  0.00    +0.030 A 
ATOM     13  C   LIG    1        2.703  10.714   2.538  0.00  0.00    -0.140 A 
ATOM     14  C   LIG    1        3.840   9.996   3.238  0.00  0.00    +0.060 C 
ATOM     15  C   LIG    1        3.145   9.371   4.469  0.00  0.00    +0.180 C 
ATOM     16  C   LIG    1        3.744   8.001   4.793  0.00  0.00    +0.050 C 
ENDBRANCH   4   7
BRANCH   1  17
ATOM     17  S   LIG    1       -0.228   5.587   0.139  0.00  0.00    +2.690 S 
ATOM     18  O   LIG    1       -1.596   5.954   0.251  0.00  0.00    -0.950 OA
ATOM     19  O   LIG    1        0.607   6.016  -0.928  0.00  0.00    -0.940 OA
BRANCH  17  25
ATOM     20  C   LIG    1       -2.614   0.937   0.234  0.00  0.00    +0.100 C 
ATOM     21  C   LIG    1       -1.329   1.722   0.173  0.00  0.00    -0.110 A 
ATOM     22  C   LIG    1       -0.117   1.060   0.109  0.00  0.00    +0.100 A 
ATOM     23  C   LIG    1        1.062   1.779   0.048  0.00  0.00    -0.020 A 
ATOM     24  C   LIG    1        1.029   3.163   0.057  0.00  0.00    +0.190 A 
ATOM     25  C   LIG    1       -0.184   3.825   0.127  0.00  0.00    -0.710 A 
ATOM     26  F   LIG    1        2.181   3.866  -0.004  0.00  0.00    -0.120 F 
ATOM     27  C   LIG    1       -1.362   3.104   0.188  0.00  0.00    +0.150 A 
ENDBRANCH  17  25
ENDBRANCH   1  17
TORSDOF 3
