REMARK  Name = ZINCrH000004jov0.0
REMARK                            x       y       z     vdW  Elec       q    Type
REMARK                         _______ _______ _______ _____ _____    ______ ____
ROOT
ATOM      1  C   LIG    1       -1.256   3.418   0.128  0.00  0.00    +0.540 C 
ATOM      2  N   LIG    1       -1.239   2.075   0.019  0.00  0.00    -0.660 N 
ATOM      3  H   LIG    1       -2.072   1.583  -0.045  0.00  0.00    +0.430 HD
ATOM      4  O   LIG    1       -0.215   4.041   0.127  0.00  0.00    -0.500 OA
ENDROOT
BRANCH   2   5
ATOM      5  C   LIG    1       -0.016   1.390  -0.002  0.00  0.00    +0.170 A 
ATOM      6  C   LIG    1        1.091   1.963  -0.608  0.00  0.00    +0.080 A 
ATOM      7  C   LIG    1        2.295   1.283  -0.632  0.00  0.00    +0.100 A 
ATOM      8  C   LIG    1        2.397   0.032  -0.053  0.00  0.00    -0.020 A 
ATOM      9  C   LIG    1        1.297  -0.546   0.553  0.00  0.00    +0.030 A 
ATOM     10  C   LIG    1        0.088   0.129   0.582  0.00  0.00    +0.110 A 
BRANCH   8  11
ATOM     11  N   LIG    1        3.688  -0.691  -0.082  0.00  0.00    +0.030 N 
ATOM     12  O   LIG    1        4.659  -0.184  -0.615  0.00  0.00    -0.150 OA
ATOM     13  O   LIG    1        3.780  -1.794   0.427  0.00  0.00    -0.160 OA
ENDBRANCH   8  11
BRANCH  10  14
ATOM     14  O   LIG    1       -0.995  -0.437   1.178  0.00  0.00    -0.310 OA
ATOM     15  C   LIG    1       -0.815  -1.732   1.756  0.00  0.00    +0.250 C 
ENDBRANCH  10  14
ENDBRANCH   2   5
BRANCH   1  16
ATOM     16  C   LIG    1       -2.570   4.147   0.252  0.00  0.00    +0.130 C 
BRANCH  16  17
ATOM     17  S   LIG    1       -2.263   5.926   0.380  0.00  0.00    +0.080 S 
BRANCH  17  26
ATOM     18  N   LIG    1       -4.279   7.825   0.639  0.00  0.00    -0.470 N 
ATOM     19  C   LIG    1       -5.662   7.867   0.705  0.00  0.00    +0.060 A 
ATOM     20  C   LIG    1       -6.588   8.890   0.834  0.00  0.00    +0.010 A 
ATOM     21  C   LIG    1       -7.936   8.597   0.878  0.00  0.00    +0.030 A 
ATOM     22  C   LIG    1       -8.371   7.283   0.793  0.00  0.00    +0.010 A 
ATOM     23  C   LIG    1       -7.466   6.253   0.665  0.00  0.00    +0.060 A 
ATOM     24  C   LIG    1       -6.098   6.534   0.620  0.00  0.00    +0.060 A 
ATOM     25  N   LIG    1       -4.989   5.757   0.502  0.00  0.00    -0.500 NA
ATOM     26  C   LIG    1       -3.919   6.513   0.510  0.00  0.00    +0.240 A 
BRANCH  18  28
ATOM     27  C   LIG    1       -3.126   9.497  -0.724  0.00  0.00    +0.040 C 
ATOM     28  C   LIG    1       -3.372   8.974   0.693  0.00  0.00    +0.300 C 
ENDBRANCH  18  28
ENDBRANCH  17  26
ENDBRANCH  16  17
ENDBRANCH   1  16
TORSDOF 7
