REMARK  Name = ZINCrD00000F5LvT.0
REMARK                            x       y       z     vdW  Elec       q    Type
REMARK                         _______ _______ _______ _____ _____    ______ ____
ROOT
ATOM      1  C   LIG    1       -3.776   0.056   5.339  0.00  0.00    -0.640 A 
ATOM      2  C   LIG    1       -5.059   0.467   5.633  0.00  0.00    +0.220 A 
ATOM      3  C   LIG    1       -5.735   1.309   4.767  0.00  0.00    -0.050 A 
ATOM      4  C   LIG    1       -5.129   1.745   3.602  0.00  0.00    +0.170 A 
ATOM      5  C   LIG    1       -3.844   1.346   3.299  0.00  0.00    +0.050 A 
ATOM      6  C   LIG    1       -3.158   0.492   4.165  0.00  0.00    +0.190 A 
ENDROOT
BRANCH   1   7
ATOM      7  S   LIG    1       -2.917  -1.015   6.443  0.00  0.00    +2.700 S 
ATOM      8  O   LIG    1       -3.815  -1.298   7.507  0.00  0.00    -0.940 OA
ATOM      9  O   LIG    1       -1.633  -0.441   6.642  0.00  0.00    -0.930 OA
BRANCH   7  10
ATOM     10  N   LIG    1       -2.671  -2.446   5.645  0.00  0.00    -0.980 NA
BRANCH  10  12
ATOM     11  C   LIG    1       -0.403  -3.358   5.704  0.00  0.00    +0.030 C 
ATOM     12  C   LIG    1       -1.454  -2.643   4.854  0.00  0.00    +0.290 C 
ENDBRANCH  10  12
BRANCH  10  13
ATOM     13  C   LIG    1       -3.670  -3.514   5.732  0.00  0.00    +0.300 C 
ATOM     14  C   LIG    1       -4.614  -3.428   4.530  0.00  0.00    +0.000 C 
ENDBRANCH  10  13
ENDBRANCH   7  10
ENDBRANCH   1   7
BRANCH   3  15
ATOM     15  N   LIG    1       -7.112   1.746   5.089  0.00  0.00    +0.020 N 
ATOM     16  O   LIG    1       -7.709   2.486   4.329  0.00  0.00    -0.150 OA
ATOM     17  O   LIG    1       -7.648   1.364   6.114  0.00  0.00    -0.140 OA
ENDBRANCH   3  15
BRANCH   6  18
ATOM     18  N   LIG    1       -1.883   0.088   3.867  0.00  0.00    -0.220 NA
ATOM     19  N   LIG    1       -1.337   0.477   2.823  0.00  0.00    -0.170 NA
BRANCH  19  20
ATOM     20  C   LIG    1        0.026   0.045   2.505  0.00  0.00    +0.280 C 
BRANCH  20  21
ATOM     21  C   LIG    1        0.023  -0.702   1.196  0.00  0.00    -0.090 A 
ATOM     22  C   LIG    1        0.042  -2.084   1.188  0.00  0.00    +0.020 A 
ATOM     23  C   LIG    1        0.039  -2.768  -0.013  0.00  0.00    +0.000 A 
ATOM     24  C   LIG    1        0.018  -2.071  -1.206  0.00  0.00    +0.030 A 
ATOM     25  C   LIG    1       -0.006  -0.689  -1.199  0.00  0.00    +0.010 A 
ATOM     26  C   LIG    1        0.002  -0.004   0.002  0.00  0.00    -0.060 A 
ATOM     27  C   LIG    1       -0.018   1.503   0.010  0.00  0.00    +0.090 C 
ENDBRANCH  20  21
ENDBRANCH  19  20
ENDBRANCH   6  18
TORSDOF 8
