REMARK  Name = ZINCpk000000o03p.0
REMARK                            x       y       z     vdW  Elec       q    Type
REMARK                         _______ _______ _______ _____ _____    ______ ____
ROOT
ATOM      1  C   LIG    1        7.432   2.276   2.473  0.00  0.00    +0.040 C 
ATOM      2  C   LIG    1        7.313   2.355   0.949  0.00  0.00    +0.160 C 
ATOM      3  C   LIG    1        8.115   3.562   0.419  0.00  0.00    +0.050 C 
ATOM      4  C   LIG    1        7.210   4.111  -0.716  0.00  0.00    +0.030 C 
ATOM      5  C   LIG    1        5.796   3.851  -0.140  0.00  0.00    +0.280 C 
ATOM      6  C   LIG    1        7.839   1.065   0.316  0.00  0.00    +0.040 C 
ATOM      7  N   LIG    1        5.908   2.563   0.568  0.00  0.00    -0.600 N 
ATOM      8  C   LIG    1        4.891   1.718   0.828  0.00  0.00    +0.610 C 
ATOM      9  O   LIG    1        5.100   0.679   1.422  0.00  0.00    -0.490 OA
ENDROOT
BRANCH   8  10
ATOM     10  C   LIG    1        3.519   2.056   0.390  0.00  0.00    +0.020 A 
ATOM     11  C   LIG    1        2.380   1.312   0.574  0.00  0.00    -0.030 A 
ATOM     12  C   LIG    1        2.136   0.011   1.223  0.00  0.00    +0.590 C 
ATOM     13  N   LIG    1        0.931  -0.562   0.978  0.00  0.00    -0.730 N 
ATOM     14  H   LIG    1        0.680  -1.363   1.464  0.00  0.00    +0.420 HD
ATOM     15  C   LIG    1        0.002  -0.004   0.002  0.00  0.00    +0.300 C 
ATOM     16  C   LIG    1       -0.019   1.524   0.010  0.00  0.00    +0.350 C 
ATOM     17  O   LIG    1        2.966  -0.517   1.936  0.00  0.00    -0.450 OA
ATOM     18  N   LIG    1        1.357   2.027   0.000  0.00  0.00    -0.270 N 
ATOM     19  N   LIG    1        1.850   3.100  -0.481  0.00  0.00    -0.040 NA
ATOM     20  N   LIG    1        3.122   3.160  -0.275  0.00  0.00    -0.240 NA
ENDBRANCH   8  10
BRANCH   4  21
ATOM     21  C   LIG    1        7.444   5.585  -0.928  0.00  0.00    -0.070 A 
ATOM     22  C   LIG    1        7.344   6.461   0.137  0.00  0.00    +0.010 A 
ATOM     23  C   LIG    1        7.564   7.812  -0.057  0.00  0.00    +0.000 A 
ATOM     24  C   LIG    1        7.873   8.288  -1.317  0.00  0.00    +0.000 A 
ATOM     25  C   LIG    1        7.968   7.413  -2.383  0.00  0.00    +0.000 A 
ATOM     26  C   LIG    1        7.753   6.061  -2.188  0.00  0.00    +0.010 A 
ENDBRANCH   4  21
TORSDOF 2
