REMARK  Name = ZINCqH0000036F5a.0
REMARK                            x       y       z     vdW  Elec       q    Type
REMARK                         _______ _______ _______ _____ _____    ______ ____
ROOT
ATOM      1  N   LIG    1       -8.496  -1.867  -3.670  0.00  0.00    -0.620 N 
ATOM      2  C   LIG    1       -7.413  -1.109  -3.407  0.00  0.00    +0.710 C 
ATOM      3  N   LIG    1       -7.323  -0.444  -2.238  0.00  0.00    -0.690 N 
ATOM      4  H   LIG    1       -8.005  -0.563  -1.559  0.00  0.00    +0.410 HD
ATOM      5  O   LIG    1       -6.517  -1.025  -4.225  0.00  0.00    -0.560 OA
ATOM      6  C   LIG    1       -9.575  -1.969  -2.684  0.00  0.00    +0.280 C 
ENDROOT
BRANCH   3   7
ATOM      7  C   LIG    1       -6.246   0.418  -2.005  0.00  0.00    +0.170 A 
ATOM      8  C   LIG    1       -4.988   0.113  -2.509  0.00  0.00    +0.020 A 
ATOM      9  C   LIG    1       -3.927   0.966  -2.277  0.00  0.00    +0.060 A 
ATOM     10  C   LIG    1       -4.117   2.124  -1.544  0.00  0.00    -0.140 A 
ATOM     11  C   LIG    1       -5.366   2.428  -1.036  0.00  0.00    +0.040 A 
ATOM     12  C   LIG    1       -6.433   1.581  -1.270  0.00  0.00    -0.030 A 
BRANCH  10  13
ATOM     13  C   LIG    1       -2.957   3.053  -1.293  0.00  0.00    +0.380 C 
BRANCH  13  14
ATOM     14  N   LIG    1       -2.879   4.040  -2.373  0.00  0.00    -0.630 N 
ATOM     15  C   LIG    1       -3.553   5.347  -2.387  0.00  0.00    +0.240 C 
ATOM     16  C   LIG    1       -3.134   5.962  -3.736  0.00  0.00    +0.260 C 
ATOM     17  O   LIG    1       -2.276   4.950  -4.337  0.00  0.00    -0.330 OA
ATOM     18  C   LIG    1       -2.183   3.899  -3.510  0.00  0.00    +0.640 C 
ATOM     19  O   LIG    1       -1.528   2.909  -3.767  0.00  0.00    -0.520 OA
ENDBRANCH  13  14
ENDBRANCH  10  13
ENDBRANCH   3   7
BRANCH   1  21
ATOM     20  C   LIG    1       -8.704  -4.092  -4.665  0.00  0.00    +0.030 C 
ATOM     21  C   LIG    1       -8.593  -2.591  -4.940  0.00  0.00    +0.270 C 
BRANCH  21  22
ATOM     22  C   LIG    1       -9.834  -2.119  -5.701  0.00  0.00    +0.100 C 
BRANCH  22  23
ATOM     23  C   LIG    1       -9.670  -0.669  -6.079  0.00  0.00    -0.090 A 
ATOM     24  C   LIG    1      -10.076   0.328  -5.291  0.00  0.00    -0.050 A 
ATOM     25  S   LIG    1       -9.718   1.869  -6.059  0.00  0.00    +0.090 S 
ATOM     26  C   LIG    1       -9.025   1.049  -7.452  0.00  0.00    -0.050 A 
ATOM     27  C   LIG    1       -9.093  -0.271  -7.272  0.00  0.00    +0.010 A 
ENDBRANCH  22  23
ENDBRANCH  21  22
ENDBRANCH   1  21
TORSDOF 6
