REMARK  Name = ZINCrD00000hQ67n.0
REMARK                            x       y       z     vdW  Elec       q    Type
REMARK                         _______ _______ _______ _____ _____    ______ ____
ROOT
ATOM      1  C   LIG    1        0.494   9.751  -1.045  0.00  0.00    +0.040 C 
ENDROOT
BRANCH   1   2
ATOM      2  C   LIG    1        0.614   8.261  -1.232  0.00  0.00    +0.370 C 
ATOM      3  O   LIG    1        1.174   7.815  -2.213  0.00  0.00    -0.430 OA
BRANCH   2   5
ATOM      4  C   LIG    1        0.187   6.045  -0.436  0.00  0.00    +0.140 C 
ATOM      5  C   LIG    1        0.079   7.385  -0.268  0.00  0.00    -0.100 C 
BRANCH   4   8
ATOM      6  C   LIG    1       -0.787   2.893   1.346  0.00  0.00    +0.100 A 
ATOM      7  C   LIG    1       -0.256   3.745   0.401  0.00  0.00    -0.030 A 
ATOM      8  C   LIG    1       -0.371   5.132   0.569  0.00  0.00    -0.060 A 
ATOM      9  C   LIG    1       -1.016   5.644   1.702  0.00  0.00    +0.020 A 
ATOM     10  C   LIG    1       -1.539   4.785   2.643  0.00  0.00    +0.030 A 
ATOM     11  C   LIG    1       -1.429   3.411   2.472  0.00  0.00    +0.090 A 
BRANCH   6  13
ATOM     12  C   LIG    1       -0.013   1.086   0.008  0.00  0.00    +0.240 C 
ATOM     13  O   LIG    1       -0.682   1.547   1.184  0.00  0.00    -0.310 OA
ENDBRANCH   6  13
BRANCH  11  14
ATOM     14  O   LIG    1       -1.946   2.569   3.404  0.00  0.00    -0.480 OA
ATOM     15  H   LIG    1       -1.326   2.334   4.108  0.00  0.00    +0.390 HD
ENDBRANCH  11  14
ENDBRANCH   4   8
ENDBRANCH   2   5
ENDBRANCH   1   2
BRANCH   1  16
ATOM     16  C   LIG    1        1.144  10.457  -2.207  0.00  0.00    +0.370 C 
ATOM     17  O   LIG    1        1.655   9.812  -3.101  0.00  0.00    -0.430 OA
BRANCH  16  18
ATOM     18  C   LIG    1        1.158  11.864  -2.258  0.00  0.00    -0.100 C 
ATOM     19  C   LIG    1        1.742  12.499  -3.303  0.00  0.00    +0.140 C 
BRANCH  19  20
ATOM     20  C   LIG    1        1.757  13.966  -3.356  0.00  0.00    -0.050 A 
ATOM     21  C   LIG    1        1.169  14.711  -2.327  0.00  0.00    +0.020 A 
ATOM     22  C   LIG    1        1.185  16.088  -2.379  0.00  0.00    +0.030 A 
ATOM     23  C   LIG    1        1.783  16.739  -3.450  0.00  0.00    +0.090 A 
ATOM     24  C   LIG    1        2.372  16.003  -4.479  0.00  0.00    +0.100 A 
ATOM     25  C   LIG    1        2.366  14.624  -4.433  0.00  0.00    -0.030 A 
BRANCH  24  26
ATOM     26  O   LIG    1        2.957  16.646  -5.525  0.00  0.00    -0.310 OA
ATOM     27  C   LIG    1        3.541  15.830  -6.543  0.00  0.00    +0.240 C 
ENDBRANCH  24  26
BRANCH  23  28
ATOM     28  O   LIG    1        1.796  18.096  -3.494  0.00  0.00    -0.480 OA
ATOM     29  H   LIG    1        2.569  18.496  -3.073  0.00  0.00    +0.390 HD
ENDBRANCH  23  28
ENDBRANCH  19  20
ENDBRANCH  16  18
ENDBRANCH   1  16
TORSDOF 10
