REMARK  Name = ZINCrD00000D51RL.0
REMARK                            x       y       z     vdW  Elec       q    Type
REMARK                         _______ _______ _______ _____ _____    ______ ____
ROOT
ATOM      1  C   LIG    1        1.168   3.571   0.010  0.00  0.00    +0.210 A 
ATOM      2  N   LIG    1        0.108   4.337   0.018  0.00  0.00    -0.370 NA
ATOM      3  O   LIG    1        0.438   5.504   0.025  0.00  0.00    +0.100 OA
ATOM      4  C   LIG    1        1.771   5.603   0.014  0.00  0.00    +0.160 A 
ATOM      5  N   LIG    1        2.248   4.383   0.004  0.00  0.00    -0.460 NA
ENDROOT
BRANCH   4   6
ATOM      6  C   LIG    1        2.573   6.877   0.012  0.00  0.00    +0.220 C 
ATOM      7  C   LIG    1        3.486   6.913   1.237  0.00  0.00    +0.030 C 
ATOM      8  C   LIG    1        4.217   8.251   1.308  0.00  0.00    +0.030 C 
ATOM      9  C   LIG    1        4.127   8.842   2.713  0.00  0.00    +0.000 C 
ATOM     10  C   LIG    1        2.679   8.904   3.190  0.00  0.00    +0.000 C 
ATOM     11  C   LIG    1        1.781   9.459   2.086  0.00  0.00    +0.010 C 
ATOM     12  C   LIG    1        1.046   8.305   1.401  0.00  0.00    +0.020 C 
ATOM     13  C   LIG    1        1.633   8.080   0.008  0.00  0.00    +0.070 C 
BRANCH   6  14
ATOM     14  O   LIG    1        3.383   6.910  -1.174  0.00  0.00    -0.360 OA
ATOM     15  C   LIG    1        4.302   5.821  -1.280  0.00  0.00    +0.220 C 
ENDBRANCH   6  14
ENDBRANCH   4   6
BRANCH   1  19
ATOM     16  C   LIG    1        1.208  -0.682  -0.013  0.00  0.00    -0.080 A 
ATOM     17  C   LIG    1        0.002  -0.004   0.002  0.00  0.00    +0.040 A 
ATOM     18  C   LIG    1       -0.017   1.376   0.010  0.00  0.00    +0.060 A 
ATOM     19  C   LIG    1        1.182   2.086   0.002  0.00  0.00    -0.010 A 
ATOM     20  C   LIG    1        2.393   1.399  -0.013  0.00  0.00    +0.070 A 
ATOM     21  C   LIG    1        2.401   0.018  -0.020  0.00  0.00    +0.030 A 
BRANCH  16  22
ATOM     22  C   LIG    1        1.222  -2.189  -0.021  0.00  0.00    -0.300 C 
BRANCH  22  23
ATOM     23  S   LIG    1        1.211  -2.784  -1.735  0.00  0.00    +2.610 S 
ATOM     24  O   LIG    1        2.439  -2.473  -2.378  0.00  0.00    -0.950 OA
ATOM     25  O   LIG    1       -0.035  -2.496  -2.355  0.00  0.00    -0.940 OA
BRANCH  23  27
ATOM     26  C   LIG    1        0.090  -5.131  -0.994  0.00  0.00    +0.300 C 
ATOM     27  N   LIG    1        1.228  -4.434  -1.599  0.00  0.00    -1.120 NA
ATOM     28  H   LIG    1        1.991  -4.940  -1.920  0.00  0.00    +0.420 HD
ENDBRANCH  23  27
ENDBRANCH  22  23
ENDBRANCH  16  22
ENDBRANCH   1  19
TORSDOF 6
