REMARK  Name = ZINCrH00000tj1hU.0
REMARK                            x       y       z     vdW  Elec       q    Type
REMARK                         _______ _______ _______ _____ _____    ______ ____
ROOT
ATOM      1  C   LIG    1       -4.795   1.191   2.399  0.00  0.00    +0.290 C 
ATOM      2  N   LIG    1       -4.969   2.365   1.541  0.00  0.00    -0.610 N 
ATOM      3  C   LIG    1       -5.728   3.398   1.958  0.00  0.00    +0.530 C 
ATOM      4  O   LIG    1       -5.774   4.419   1.305  0.00  0.00    -0.530 OA
ENDROOT
BRANCH   3   5
ATOM      5  C   LIG    1       -6.520   3.284   3.237  0.00  0.00    -0.020 C 
ATOM      6  C   LIG    1       -7.688   2.323   3.020  0.00  0.00    +0.060 C 
ATOM      7  C   LIG    1       -8.485   2.175   4.322  0.00  0.00    -0.030 C 
ATOM      8  C   LIG    1       -9.919   2.667   4.086  0.00  0.00    +0.040 C 
ATOM      9  C   LIG    1       -9.906   4.128   3.644  0.00  0.00    +0.010 C 
ATOM     10  C   LIG    1       -9.257   5.017   4.703  0.00  0.00    +0.040 C 
ATOM     11  C   LIG    1       -7.811   4.569   4.954  0.00  0.00    -0.040 C 
ATOM     12  C   LIG    1       -7.853   3.102   5.349  0.00  0.00    +0.370 C 
ATOM     13  O   LIG    1       -7.416   2.701   6.401  0.00  0.00    -0.450 OA
ATOM     14  C   LIG    1       -7.026   4.669   3.639  0.00  0.00    +0.070 C 
ENDBRANCH   3   5
BRANCH   2  15
ATOM     15  C   LIG    1       -4.318   2.418   0.230  0.00  0.00    +0.420 C 
BRANCH  15  16
ATOM     16  C   LIG    1       -2.951   3.037   0.371  0.00  0.00    +0.280 A 
ATOM     17  N   LIG    1       -1.856   2.377   0.611  0.00  0.00    -0.470 NA
ATOM     18  C   LIG    1       -0.809   3.240   0.677  0.00  0.00    +0.050 A 
ATOM     19  C   LIG    1        0.560   3.078   0.903  0.00  0.00    +0.070 A 
ATOM     20  C   LIG    1        1.384   4.168   0.904  0.00  0.00    +0.010 A 
ATOM     21  C   LIG    1        0.874   5.440   0.686  0.00  0.00    +0.040 A 
ATOM     22  C   LIG    1       -0.475   5.624   0.466  0.00  0.00    +0.020 A 
ATOM     23  C   LIG    1       -1.326   4.529   0.462  0.00  0.00    +0.060 A 
ATOM     24  N   LIG    1       -2.685   4.368   0.278  0.00  0.00    -0.540 N 
BRANCH  24  25
ATOM     25  C   LIG    1       -3.658   5.431   0.014  0.00  0.00    +0.650 C 
ATOM     26  F   LIG    1       -4.709   4.922  -0.756  0.00  0.00    -0.160 F 
ATOM     27  F   LIG    1       -3.033   6.473  -0.680  0.00  0.00    -0.180 F 
ENDBRANCH  24  25
ENDBRANCH  15  16
ENDBRANCH   2  15
TORSDOF 4
