REMARK  Name = ZINCqH0000008a3q.0
REMARK                            x       y       z     vdW  Elec       q    Type
REMARK                         _______ _______ _______ _____ _____    ______ ____
ROOT
ATOM      1  S   LIG    1       -3.420   0.692   1.254  0.00  0.00    +2.440 S 
ATOM      2  O   LIG    1       -3.964   1.937   1.670  0.00  0.00    -0.900 OA
ATOM      3  O   LIG    1       -2.592  -0.038   2.149  0.00  0.00    -0.900 OA
ENDROOT
BRANCH   1   5
ATOM      4  C   LIG    1       -4.208  -1.676   0.135  0.00  0.00    +0.120 C 
ATOM      5  C   LIG    1       -4.780  -0.382   0.717  0.00  0.00    -0.460 C 
BRANCH   5   6
ATOM      6  C   LIG    1       -5.659  -0.707   1.897  0.00  0.00    +0.550 C 
ATOM      7  N   LIG    1       -6.921  -1.136   1.699  0.00  0.00    -0.710 N 
ATOM      8  H   LIG    1       -7.264  -1.235   0.797  0.00  0.00    +0.400 HD
ATOM      9  O   LIG    1       -5.231  -0.582   3.025  0.00  0.00    -0.520 OA
BRANCH   7  10
ATOM     10  C   LIG    1       -7.776  -1.452   2.846  0.00  0.00    +0.240 C 
ATOM     11  C   LIG    1       -8.446  -0.172   3.350  0.00  0.00    +0.010 C 
ATOM     12  C   LIG    1       -9.296   0.433   2.232  0.00  0.00    +0.010 C 
ATOM     13  C   LIG    1      -10.370  -0.571   1.807  0.00  0.00    +0.010 C 
ATOM     14  C   LIG    1       -9.700  -1.851   1.303  0.00  0.00    +0.010 C 
ATOM     15  C   LIG    1       -8.849  -2.456   2.421  0.00  0.00    -0.010 C 
ATOM     16  C   LIG    1       -8.179  -3.736   1.917  0.00  0.00    +0.020 C 
ENDBRANCH   7  10
ENDBRANCH   5   6
ENDBRANCH   1   5
BRANCH   1  17
ATOM     17  C   LIG    1       -2.511   0.948  -0.295  0.00  0.00    -0.290 C 
BRANCH  17  18
ATOM     18  C   LIG    1       -1.408   1.950  -0.071  0.00  0.00    -0.040 A 
ATOM     19  C   LIG    1       -0.209   1.545   0.485  0.00  0.00    +0.040 A 
ATOM     20  C   LIG    1        0.805   2.463   0.686  0.00  0.00    +0.060 A 
ATOM     21  C   LIG    1        0.618   3.787   0.336  0.00  0.00    +0.030 A 
ATOM     22  C   LIG    1       -0.583   4.193  -0.215  0.00  0.00    +0.080 A 
ATOM     23  C   LIG    1       -1.597   3.276  -0.416  0.00  0.00    -0.170 A 
BRANCH  23  24
ATOM     24  C   LIG    1       -2.906   3.719  -1.016  0.00  0.00    +0.500 C 
ATOM     25  F   LIG    1       -3.938   3.499  -0.098  0.00  0.00    -0.150 F 
ATOM     26  F   LIG    1       -3.156   2.987  -2.182  0.00  0.00    -0.180 F 
ATOM     27  F   LIG    1       -2.840   5.081  -1.327  0.00  0.00    -0.170 F 
ENDBRANCH  23  24
ENDBRANCH  17  18
ENDBRANCH   1  17
TORSDOF 6
