REMARK  Name = ZINCqH0000037ABz.0
REMARK                            x       y       z     vdW  Elec       q    Type
REMARK                         _______ _______ _______ _____ _____    ______ ____
ROOT
ATOM      1  C   LIG    1       -0.279  -3.139  -0.024  0.00  0.00    +0.180 C 
ATOM      2  C   LIG    1       -1.400  -2.132  -0.002  0.00  0.00    +0.190 A 
ATOM      3  C   LIG    1       -1.264  -0.758   0.010  0.00  0.00    -0.290 A 
ATOM      4  C   LIG    1       -2.567  -0.210   0.025  0.00  0.00    +0.310 A 
ATOM      5  N   LIG    1       -3.421  -1.196   0.028  0.00  0.00    -0.280 NA
ATOM      6  N   LIG    1       -2.718  -2.406   0.015  0.00  0.00    -0.320 N 
ENDROOT
BRANCH   6   7
ATOM      7  C   LIG    1       -3.287  -3.683   0.012  0.00  0.00    +0.400 A 
ATOM      8  C   LIG    1       -4.562  -3.869   0.533  0.00  0.00    +0.000 A 
ATOM      9  C   LIG    1       -5.114  -5.138   0.524  0.00  0.00    +0.160 A 
ATOM     10  C   LIG    1       -4.369  -6.181  -0.007  0.00  0.00    -0.250 A 
ATOM     11  C   LIG    1       -3.107  -5.923  -0.508  0.00  0.00    +0.370 A 
ATOM     12  N   LIG    1       -2.609  -4.702  -0.491  0.00  0.00    -0.490 NA
BRANCH  10  13
ATOM     13  C   LIG    1       -4.929  -7.580  -0.038  0.00  0.00    +0.520 C 
ATOM     14  F   LIG    1       -5.802  -7.756   1.041  0.00  0.00    -0.170 F 
ATOM     15  F   LIG    1       -3.882  -8.503   0.054  0.00  0.00    -0.170 F 
ATOM     16  F   LIG    1       -5.622  -7.778  -1.236  0.00  0.00    -0.170 F 
ENDBRANCH  10  13
ENDBRANCH   6   7
BRANCH   3  17
ATOM     17  C   LIG    1        0.002  -0.004   0.002  0.00  0.00    +0.600 C 
ATOM     18  N   LIG    1       -0.016   1.344   0.009  0.00  0.00    -0.730 N 
ATOM     19  H   LIG    1       -0.863   1.817   0.016  0.00  0.00    +0.400 HD
ATOM     20  O   LIG    1        1.063  -0.598  -0.011  0.00  0.00    -0.540 OA
BRANCH  18  21
ATOM     21  C   LIG    1        1.242   2.093   0.001  0.00  0.00    +0.270 C 
BRANCH  21  22
ATOM     22  C   LIG    1        0.943   3.594   0.012  0.00  0.00    -0.010 C 
ATOM     23  C   LIG    1        0.257   3.967   1.328  0.00  0.00    +0.020 C 
BRANCH  22  24
ATOM     24  C   LIG    1        2.250   4.376  -0.122  0.00  0.00    -0.010 C 
ATOM     25  C   LIG    1        2.058   5.816  -0.624  0.00  0.00    +0.020 C 
ATOM     26  C   LIG    1        3.322   5.603  -1.476  0.00  0.00    +0.010 C 
ATOM     27  C   LIG    1        3.002   4.099  -1.434  0.00  0.00    +0.010 C 
ENDBRANCH  22  24
ENDBRANCH  21  22
ENDBRANCH  18  21
ENDBRANCH   3  17
TORSDOF 6
