REMARK  Name = ZINCnE000008Jcgt.0
REMARK                            x       y       z     vdW  Elec       q    Type
REMARK                         _______ _______ _______ _____ _____    ______ ____
ROOT
ATOM      1  C   LIG    1        3.558  -0.937  -0.056  0.00  0.00    +0.190 C 
ATOM      2  N   LIG    1        2.442  -0.298   0.123  0.00  0.00    -0.220 NA
ENDROOT
BRANCH   1   6
ATOM      3  C   LIG    1        3.597  -5.183  -0.059  0.00  0.00    +0.150 A 
ATOM      4  C   LIG    1        4.780  -4.479  -0.250  0.00  0.00    +0.020 A 
ATOM      5  C   LIG    1        4.772  -3.101  -0.249  0.00  0.00    +0.050 A 
ATOM      6  C   LIG    1        3.571  -2.411  -0.057  0.00  0.00    -0.050 A 
ATOM      7  C   LIG    1        2.385  -3.123   0.140  0.00  0.00    +0.070 A 
ATOM      8  C   LIG    1        2.401  -4.501   0.133  0.00  0.00    -0.020 A 
BRANCH   3  11
ATOM      9  C   LIG    1        4.745  -8.747   0.314  0.00  0.00    +0.110 C 
ATOM     10  C   LIG    1        4.680  -7.245   0.422  0.00  0.00    +0.510 C 
ATOM     11  N   LIG    1        3.610  -6.581  -0.058  0.00  0.00    -0.670 N 
ATOM     12  H   LIG    1        2.849  -7.073  -0.405  0.00  0.00    +0.410 HD
ATOM     13  O   LIG    1        5.589  -6.634   0.942  0.00  0.00    -0.520 OA
ENDBRANCH   3  11
ENDBRANCH   1   6
BRANCH   2  14
ATOM     14  N   LIG    1        2.429   1.103   0.125  0.00  0.00    -0.580 N 
ATOM     15  H   LIG    1        3.254   1.595  -0.008  0.00  0.00    +0.390 HD
BRANCH  14  16
ATOM     16  C   LIG    1        1.229   1.790   0.317  0.00  0.00    +0.190 A 
ATOM     17  C   LIG    1        0.046   1.083   0.507  0.00  0.00    -0.020 A 
ATOM     18  C   LIG    1       -1.146   1.757   0.693  0.00  0.00    +0.030 A 
ATOM     19  C   LIG    1       -1.170   3.138   0.702  0.00  0.00    -0.040 A 
ATOM     20  C   LIG    1        0.014   3.858   0.512  0.00  0.00    -0.090 A 
ATOM     21 CL   LIG    1       -2.670   3.979   0.943  0.00  0.00    -0.050 Cl
ATOM     22  C   LIG    1        1.217   3.176   0.319  0.00  0.00    +0.000 A 
BRANCH  20  23
ATOM     23  C   LIG    1       -0.008   5.333   0.516  0.00  0.00    +0.520 C 
ATOM     24  O   LIG    1       -1.063   5.928   0.685  0.00  0.00    -0.660 OA
ATOM     25  O   LIG    1        1.028   5.961   0.349  0.00  0.00    -0.690 OA
ENDBRANCH  20  23
ENDBRANCH  14  16
ENDBRANCH   2  14
TORSDOF 5
