REMARK  Name = ZINCvU00000007p6.0
REMARK                            x       y       z     vdW  Elec       q    Type
REMARK                         _______ _______ _______ _____ _____    ______ ____
ROOT
ATOM      1  C   LIG    1        0.164   0.899  -0.614  0.00  0.00    +0.050 C 
ATOM      2  C   LIG    1       -0.877   1.418   0.381  0.00  0.00    +0.080 C 
ATOM      3  C   LIG    1       -1.445   2.748  -0.080  0.00  0.00    +0.020 C 
ATOM      4  C   LIG    1       -0.436   3.882  -0.069  0.00  0.00    +0.020 C 
ATOM      5  C   LIG    1        0.654   3.652  -1.117  0.00  0.00    +0.270 C 
ATOM      6  N   LIG    1        1.713   2.821  -0.522  0.00  0.00    -0.560 N 
ATOM      7  C   LIG    1        2.905   3.372  -0.217  0.00  0.00    +0.550 C 
ATOM      8  O   LIG    1        3.756   2.708   0.341  0.00  0.00    -0.460 OA
ATOM      9  C   LIG    1        1.501   1.526  -0.282  0.00  0.00    +0.530 C 
ATOM     10  O   LIG    1        2.382   0.849   0.203  0.00  0.00    -0.450 OA
ENDROOT
BRANCH   7  11
ATOM     11  C   LIG    1        3.176   4.782  -0.561  0.00  0.00    -0.140 A 
ATOM     12  C   LIG    1        2.270   5.779  -0.194  0.00  0.00    +0.080 A 
ATOM     13  C   LIG    1        2.531   7.095  -0.513  0.00  0.00    -0.010 A 
ATOM     14  C   LIG    1        3.685   7.427  -1.207  0.00  0.00    +0.130 A 
ATOM     15  C   LIG    1        4.585   6.440  -1.579  0.00  0.00    +0.000 A 
ATOM     16  F   LIG    1        3.933   8.717  -1.521  0.00  0.00    -0.130 F 
ATOM     17  C   LIG    1        4.337   5.122  -1.260  0.00  0.00    +0.100 A 
ENDBRANCH   7  11
BRANCH   1  18
ATOM     18  S   LIG    1       -0.320   1.352  -2.298  0.00  0.00    -0.000 S 
BRANCH  18  23
ATOM     19  C   LIG    1        4.815  -2.167  -3.216  0.00  0.00    +0.150 A 
ATOM     20  C   LIG    1        3.819  -1.522  -2.518  0.00  0.00    +0.010 A 
ATOM     21  C   LIG    1        2.843  -0.792  -3.216  0.00  0.00    +0.190 A 
ATOM     22  N   LIG    1        1.868  -0.150  -2.562  0.00  0.00    -0.480 NA
ATOM     23  C   LIG    1        0.945   0.533  -3.211  0.00  0.00    +0.130 A 
ATOM     24  C   LIG    1        0.950   0.626  -4.610  0.00  0.00    -0.030 A 
ATOM     25  C   LIG    1        1.922  -0.003  -5.329  0.00  0.00    +0.010 A 
ATOM     26  C   LIG    1        1.947   0.083  -6.833  0.00  0.00    +0.120 C 
ATOM     27  C   LIG    1        2.903  -0.736  -4.630  0.00  0.00    -0.140 A 
ATOM     28  C   LIG    1        3.931  -1.406  -5.312  0.00  0.00    +0.090 A 
ATOM     29  C   LIG    1        4.864  -2.105  -4.612  0.00  0.00    -0.050 A 
BRANCH  19  31
ATOM     30  C   LIG    1        6.766  -3.520  -3.321  0.00  0.00    +0.240 C 
ATOM     31  O   LIG    1        5.759  -2.872  -2.541  0.00  0.00    -0.310 OA
ENDBRANCH  19  31
ENDBRANCH  18  23
ENDBRANCH   1  18
TORSDOF 4
