REMARK  Name = ZINCrH000004n4oh.0
REMARK                            x       y       z     vdW  Elec       q    Type
REMARK                         _______ _______ _______ _____ _____    ______ ____
ROOT
ATOM      1  N   LIG    1        2.393  -0.120  -0.909  0.00  0.00    -0.730 N 
ATOM      2  H   LIG    1        1.528  -0.521  -1.088  0.00  0.00    +0.400 HD
ATOM      3  C   LIG    1        3.503  -0.627  -1.482  0.00  0.00    +0.700 C 
ATOM      4  N   LIG    1        3.411  -1.692  -2.304  0.00  0.00    -0.640 N 
ATOM      5  H   LIG    1        2.546  -2.093  -2.483  0.00  0.00    +0.420 HD
ATOM      6  O   LIG    1        4.587  -0.124  -1.258  0.00  0.00    -0.520 OA
ENDROOT
BRANCH   4   7
ATOM      7  C   LIG    1        4.555  -2.214  -2.895  0.00  0.00    +0.280 A 
ATOM      8  N   LIG    1        5.755  -1.752  -2.728  0.00  0.00    -0.470 NA
ATOM      9  C   LIG    1        6.729  -2.376  -3.364  0.00  0.00    +0.250 A 
ATOM     10  C   LIG    1        6.333  -3.407  -4.112  0.00  0.00    -0.230 A 
ATOM     11  S   LIG    1        4.585  -3.556  -3.954  0.00  0.00    +0.130 S 
BRANCH  10  12
ATOM     12  C   LIG    1        7.225  -4.290  -4.945  0.00  0.00    +0.080 C 
ATOM     13  C   LIG    1        6.793  -4.215  -6.413  0.00  0.00    +0.000 C 
ATOM     14  C   LIG    1        7.654  -5.175  -7.239  0.00  0.00    +0.210 C 
ATOM     15  O   LIG    1        7.522  -6.500  -6.719  0.00  0.00    -0.380 OA
ATOM     16  C   LIG    1        7.955  -6.640  -5.364  0.00  0.00    +0.210 C 
ATOM     17  C   LIG    1        7.107  -5.739  -4.462  0.00  0.00    +0.000 C 
ENDBRANCH  10  12
ENDBRANCH   4   7
BRANCH   1  18
ATOM     18  C   LIG    1        2.493   1.037  -0.016  0.00  0.00    +0.350 C 
BRANCH  18  22
ATOM     19  C   LIG    1       -1.234   3.033   0.029  0.00  0.00    +0.320 A 
ATOM     20  C   LIG    1       -0.076   3.799   0.022  0.00  0.00    -0.030 A 
ATOM     21  C   LIG    1        1.153   3.161   0.008  0.00  0.00    +0.130 A 
ATOM     22  C   LIG    1        1.179   1.774   0.000  0.00  0.00    -0.180 A 
ATOM     23  C   LIG    1       -0.013   1.076   0.008  0.00  0.00    +0.310 A 
ATOM     24  N   LIG    1       -1.169   1.712   0.017  0.00  0.00    -0.540 NA
BRANCH  19  26
ATOM     25  C   LIG    1       -3.598   2.802   0.050  0.00  0.00    +0.260 C 
ATOM     26  O   LIG    1       -2.445   3.645   0.044  0.00  0.00    -0.310 OA
ENDBRANCH  19  26
ENDBRANCH  18  22
BRANCH  18  27
ATOM     27  C   LIG    1        2.829   0.561   1.399  0.00  0.00    -0.070 C 
ATOM     28  C   LIG    1        4.012   1.226   2.105  0.00  0.00    +0.020 C 
ATOM     29  C   LIG    1        4.135  -0.211   1.593  0.00  0.00    +0.030 C 
ENDBRANCH  18  27
ENDBRANCH   1  18
TORSDOF 6
