REMARK  Name = ZINCpk00000RjLfU.0
REMARK                            x       y       z     vdW  Elec       q    Type
REMARK                         _______ _______ _______ _____ _____    ______ ____
ROOT
ATOM      1  C   LIG    1        3.251   2.818   3.743  0.00  0.00    +0.040 C 
ATOM      2  C   LIG    1        3.333   3.567   2.413  0.00  0.00    +0.210 C 
ATOM      3  O   LIG    1        3.131   2.664   1.325  0.00  0.00    -0.360 OA
ATOM      4  C   LIG    1        1.919   1.916   1.358  0.00  0.00    +0.190 C 
ATOM      5  C   LIG    1        1.306   1.868  -0.047  0.00  0.00    +0.060 C 
ATOM      6  C   LIG    1        0.025   1.079  -0.009  0.00  0.00    -0.030 C 
ATOM      7  C   LIG    1       -1.134   1.681   0.035  0.00  0.00    -0.020 C 
ATOM      8  C   LIG    1       -1.219   3.184   0.071  0.00  0.00    +0.210 C 
ATOM      9  O   LIG    1       -2.514   3.580   0.529  0.00  0.00    -0.360 OA
ATOM     10  C   LIG    1       -2.615   4.970   0.854  0.00  0.00    +0.250 C 
ATOM     11  C   LIG    1       -1.881   5.241   2.141  0.00  0.00    +0.490 C 
ATOM     12  N   LIG    1       -0.819   6.075   2.148  0.00  0.00    -0.710 N 
ATOM     13  H   LIG    1       -0.539   6.515   1.329  0.00  0.00    +0.400 HD
ATOM     14  C   LIG    1       -0.098   6.305   3.405  0.00  0.00    +0.270 C 
ATOM     15  C   LIG    1        1.333   6.745   3.095  0.00  0.00    +0.280 C 
ATOM     16  N   LIG    1        2.248   5.610   3.326  0.00  0.00    -0.730 N 
ATOM     17  H   LIG    1        2.791   5.569   4.127  0.00  0.00    +0.410 HD
ATOM     18  O   LIG    1       -2.245   4.710   3.169  0.00  0.00    -0.530 OA
ATOM     19  C   LIG    1        2.299   4.659   2.360  0.00  0.00    +0.490 C 
ATOM     20  O   LIG    1        1.499   4.697   1.445  0.00  0.00    -0.510 OA
ENDROOT
BRANCH  15  21
ATOM     21  C   LIG    1        1.718   7.895   3.988  0.00  0.00    -0.130 A 
ATOM     22  C   LIG    1        2.357   7.653   5.189  0.00  0.00    +0.040 A 
ATOM     23  C   LIG    1        2.716   8.709   6.007  0.00  0.00    +0.020 A 
ATOM     24  C   LIG    1        2.424  10.006   5.630  0.00  0.00    +0.060 A 
ATOM     25  C   LIG    1        1.780  10.250   4.432  0.00  0.00    -0.010 A 
ATOM     26  C   LIG    1        1.426   9.194   3.609  0.00  0.00    +0.110 A 
ATOM     27  F   LIG    1        0.796   9.432   2.438  0.00  0.00    -0.130 F 
ENDBRANCH  15  21
TORSDOF 1
