REMARK  Name = ZINCrH000004tTRx.0
REMARK                            x       y       z     vdW  Elec       q    Type
REMARK                         _______ _______ _______ _____ _____    ______ ____
ROOT
ATOM      1  O   LIG    1        2.676   3.332  -0.392  0.00  0.00    -0.520 OA
ATOM      2  C   LIG    1        1.573   2.934  -0.085  0.00  0.00    +0.520 C 
ATOM      3  N   LIG    1        1.388   1.636   0.229  0.00  0.00    -0.560 N 
ENDROOT
BRANCH   3   4
ATOM      4  C   LIG    1        2.484   0.773   0.305  0.00  0.00    +0.170 A 
ATOM      5  C   LIG    1        2.900   0.079  -0.809  0.00  0.00    +0.040 A 
ATOM      6  C   LIG    1        3.993  -0.780  -0.749  0.00  0.00    +0.020 A 
ATOM      7  C   LIG    1        4.674  -0.966   0.416  0.00  0.00    +0.040 A 
ATOM      8  C   LIG    1        4.277  -0.281   1.576  0.00  0.00    -0.100 A 
ATOM      9  C   LIG    1        4.960  -0.451   2.796  0.00  0.00    +0.090 A 
ATOM     10  C   LIG    1        4.519   0.247   3.884  0.00  0.00    -0.030 A 
ATOM     11  C   LIG    1        3.423   1.098   3.766  0.00  0.00    +0.290 A 
ATOM     12  N   LIG    1        2.790   1.254   2.628  0.00  0.00    -0.460 NA
ATOM     13  C   LIG    1        3.170   0.601   1.528  0.00  0.00    +0.130 A 
ENDBRANCH   3   4
BRANCH   3  14
ATOM     14  C   LIG    1        0.038   1.131   0.489  0.00  0.00    +0.240 C 
ATOM     15  C   LIG    1       -0.345   0.077  -0.571  0.00  0.00    +0.010 C 
ATOM     16  C   LIG    1       -0.004  -1.277   0.100  0.00  0.00    +0.010 C 
ATOM     17  C   LIG    1       -0.413  -1.042   1.575  0.00  0.00    +0.010 C 
ATOM     18  C   LIG    1       -0.005   0.419   1.853  0.00  0.00    +0.020 C 
ENDBRANCH   3  14
BRANCH   2  19
ATOM     19  C   LIG    1        0.408   3.890  -0.053  0.00  0.00    +0.070 C 
BRANCH  19  20
ATOM     20  C   LIG    1        0.913   5.316  -0.286  0.00  0.00    +0.040 C 
ATOM     21  C   LIG    1       -0.278   6.265  -0.377  0.00  0.00    +0.030 C 
ATOM     22  C   LIG    1        0.169   7.644  -0.856  0.00  0.00    +0.070 C 
ATOM     23  C   LIG    1        0.990   8.335   0.234  0.00  0.00    -0.350 C 
ATOM     24  S   LIG    1        2.505   7.377   0.530  0.00  0.00    +2.420 S 
ATOM     25  O   LIG    1        3.130   7.867   1.708  0.00  0.00    -0.940 OA
ATOM     26  O   LIG    1        3.250   7.319  -0.679  0.00  0.00    -0.930 OA
ATOM     27  C   LIG    1        1.823   5.728   0.872  0.00  0.00    -0.320 C 
ENDBRANCH  19  20
ENDBRANCH   2  19
TORSDOF 4
