REMARK  Name = ZINCrD00000744F6.0
REMARK                            x       y       z     vdW  Elec       q    Type
REMARK                         _______ _______ _______ _____ _____    ______ ____
ROOT
ATOM      1  C   LIG    1        3.251   3.245  -1.548  0.00  0.00    +0.520 C 
ATOM      2  N   LIG    1        4.167   4.217  -1.729  0.00  0.00    -0.610 N 
ATOM      3  C   LIG    1        5.371   4.275  -0.889  0.00  0.00    +0.280 C 
ATOM      4  C   LIG    1        6.604   4.319  -1.804  0.00  0.00    +0.030 C 
ATOM      5  C   LIG    1        6.464   5.486  -2.784  0.00  0.00    +0.010 C 
ATOM      6  C   LIG    1        5.224   5.277  -3.656  0.00  0.00    +0.050 C 
ATOM      7  C   LIG    1        3.978   5.241  -2.765  0.00  0.00    +0.280 C 
ATOM      8  O   LIG    1        2.293   3.170  -2.289  0.00  0.00    -0.520 OA
ENDROOT
BRANCH   5   9
ATOM      9  C   LIG    1        7.688   5.556  -3.660  0.00  0.00    +0.520 C 
ATOM     10  N   LIG    1        8.904   5.737  -3.106  0.00  0.00    -0.670 N 
ATOM     11  H   LIG    1        8.983   5.897  -2.153  0.00  0.00    +0.410 HD
ATOM     12  O   LIG    1        7.580   5.448  -4.863  0.00  0.00    -0.510 OA
BRANCH  10  13
ATOM     13  C   LIG    1       10.047   5.694  -3.904  0.00  0.00    +0.190 A 
ATOM     14  C   LIG    1       10.108   4.865  -5.023  0.00  0.00    -0.040 A 
ATOM     15  C   LIG    1       11.255   4.856  -5.789  0.00  0.00    +0.280 A 
ATOM     16  N   LIG    1       12.289   5.610  -5.468  0.00  0.00    -0.500 NA
ATOM     17  C   LIG    1       12.272   6.405  -4.415  0.00  0.00    +0.280 A 
ATOM     18  C   LIG    1       11.161   6.476  -3.600  0.00  0.00    -0.060 A 
ENDBRANCH  10  13
ENDBRANCH   5   9
BRANCH   1  20
ATOM     19  C   LIG    1        3.249   2.968   0.916  0.00  0.00    +0.070 C 
ATOM     20  C   LIG    1        3.415   2.253  -0.427  0.00  0.00    +0.040 C 
BRANCH  20  21
ATOM     21  C   LIG    1        2.371   1.173  -0.554  0.00  0.00    -0.120 A 
ATOM     22  C   LIG    1        1.030   1.502  -0.514  0.00  0.00    +0.120 A 
ATOM     23  C   LIG    1        0.071   0.513  -0.631  0.00  0.00    -0.020 A 
ATOM     24  C   LIG    1        0.454  -0.809  -0.787  0.00  0.00    +0.130 A 
ATOM     25  C   LIG    1        1.798  -1.139  -0.826  0.00  0.00    -0.040 A 
ATOM     26  F   LIG    1       -0.483  -1.775  -0.900  0.00  0.00    -0.130 F 
ATOM     27  C   LIG    1        2.757  -0.148  -0.710  0.00  0.00    +0.140 A 
ATOM     28  F   LIG    1        4.069  -0.469  -0.748  0.00  0.00    -0.130 F 
ENDBRANCH  20  21
ENDBRANCH   1  20
TORSDOF 4
