REMARK  Name = ZINCpk00000eaUVE.0
REMARK                            x       y       z     vdW  Elec       q    Type
REMARK                         _______ _______ _______ _____ _____    ______ ____
ROOT
ATOM      1  N   LIG    1       -5.255  -3.215  -1.603  0.00  0.00    -0.720 N 
ATOM      2  H   LIG    1       -5.396  -3.831  -0.867  0.00  0.00    +0.400 HD
ATOM      3  C   LIG    1       -4.796  -1.971  -1.363  0.00  0.00    +0.520 C 
ATOM      4  O   LIG    1       -4.619  -1.202  -2.284  0.00  0.00    -0.530 OA
ENDROOT
BRANCH   1   5
ATOM      5  C   LIG    1       -5.541  -3.638  -2.977  0.00  0.00    +0.350 C 
BRANCH   5  10
ATOM      6  C   LIG    1       -7.388  -9.092  -2.958  0.00  0.00    +0.140 C 
ATOM      7  C   LIG    1       -6.910  -7.663  -2.962  0.00  0.00    +0.180 A 
ATOM      8  C   LIG    1       -7.814  -6.655  -2.956  0.00  0.00    -0.090 A 
ATOM      9  C   LIG    1       -7.376  -5.323  -2.960  0.00  0.00    +0.050 A 
ATOM     10  C   LIG    1       -6.038  -5.061  -2.971  0.00  0.00    -0.250 A 
ATOM     11  C   LIG    1       -5.127  -6.131  -2.983  0.00  0.00    +0.530 A 
ATOM     12  O   LIG    1       -3.927  -5.910  -2.998  0.00  0.00    -0.540 OA
ATOM     13  C   LIG    1       -8.374  -4.194  -2.953  0.00  0.00    +0.120 C 
ATOM     14  N   LIG    1       -5.578  -7.400  -2.973  0.00  0.00    -0.610 N 
ATOM     15  H   LIG    1       -4.944  -8.134  -2.978  0.00  0.00    +0.420 HD
ENDBRANCH   5  10
ENDBRANCH   1   5
BRANCH   3  16
ATOM     16  C   LIG    1       -4.502  -1.536   0.050  0.00  0.00    +0.150 C 
BRANCH  16  17
ATOM     17  C   LIG    1       -4.005  -0.114   0.044  0.00  0.00    +0.120 A 
ATOM     18  C   LIG    1       -4.827   0.938   0.049  0.00  0.00    -0.080 A 
ATOM     19  S   LIG    1       -3.845   2.400   0.039  0.00  0.00    +0.130 S 
ATOM     20  C   LIG    1       -2.420   1.454   0.029  0.00  0.00    +0.280 A 
ATOM     21  N   LIG    1       -2.722   0.194   0.028  0.00  0.00    -0.480 NA
BRANCH  20  22
ATOM     22  N   LIG    1       -1.127   1.964   0.018  0.00  0.00    -0.540 N 
ATOM     23  C   LIG    1       -0.800   3.394   0.017  0.00  0.00    +0.270 C 
ATOM     24  C   LIG    1        0.685   3.479   0.433  0.00  0.00    +0.060 C 
ATOM     25  C   LIG    1        1.214   2.092   0.002  0.00  0.00    +0.070 C 
ATOM     26  C   LIG    1       -0.014   1.209   0.009  0.00  0.00    +0.520 C 
ATOM     27  O   LIG    1        0.002  -0.004   0.002  0.00  0.00    -0.470 OA
ENDBRANCH  20  22
ENDBRANCH  16  17
ENDBRANCH   3  16
TORSDOF 5
