REMARK  Name = ZINCpk00000F9Ko9.0
REMARK                            x       y       z     vdW  Elec       q    Type
REMARK                         _______ _______ _______ _____ _____    ______ ____
ROOT
ATOM      1  C   LIG    1        3.374   7.850  -2.566  0.00  0.00    +0.570 C 
ATOM      2  N   LIG    1        3.175   7.066  -1.488  0.00  0.00    -0.610 N 
ATOM      3  C   LIG    1        3.749   7.287  -0.148  0.00  0.00    +0.280 C 
ATOM      4  C   LIG    1        3.762   5.886   0.518  0.00  0.00    +0.050 C 
ATOM      5  C   LIG    1        2.443   5.274  -0.024  0.00  0.00    +0.250 C 
ATOM      6  C   LIG    1        2.352   5.849  -1.454  0.00  0.00    +0.260 C 
ATOM      7  O   LIG    1        4.003   8.884  -2.458  0.00  0.00    -0.520 OA
ENDROOT
BRANCH   1  11
ATOM      8  C   LIG    1        0.537   4.807  -5.312  0.00  0.00    +0.130 C 
ATOM      9  C   LIG    1        1.462   5.992  -5.204  0.00  0.00    +0.170 A 
ATOM     10  C   LIG    1        1.956   6.343  -3.995  0.00  0.00    -0.090 A 
ATOM     11  C   LIG    1        2.823   7.451  -3.885  0.00  0.00    -0.030 A 
ATOM     12  C   LIG    1        3.146   8.163  -5.026  0.00  0.00    -0.010 A 
ATOM     13  C   LIG    1        2.609   7.753  -6.263  0.00  0.00    +0.520 A 
ATOM     14  O   LIG    1        2.886   8.366  -7.281  0.00  0.00    -0.540 OA
ATOM     15  N   LIG    1        1.786   6.689  -6.322  0.00  0.00    -0.600 N 
ATOM     16  H   LIG    1        1.419   6.417  -7.177  0.00  0.00    +0.420 HD
ENDBRANCH   1  11
BRANCH   5  17
ATOM     17  N   LIG    1        2.525   3.812  -0.058  0.00  0.00    -0.690 N 
ATOM     18  H   LIG    1        3.390   3.375  -0.086  0.00  0.00    +0.420 HD
BRANCH  17  19
ATOM     19  C   LIG    1        1.361   3.049  -0.049  0.00  0.00    +0.410 A 
ATOM     20  N   LIG    1        0.194   3.648  -0.011  0.00  0.00    -0.350 NA
ATOM     21  N   LIG    1       -0.989   2.901  -0.001  0.00  0.00    -0.250 N 
ATOM     22  C   LIG    1       -2.305   3.251   0.035  0.00  0.00    +0.170 A 
ATOM     23  C   LIG    1       -3.025   2.104   0.009  0.00  0.00    +0.200 A 
ATOM     24  N   LIG    1       -2.181   1.073  -0.027  0.00  0.00    -0.460 NA
ATOM     25  C   LIG    1       -0.937   1.532  -0.038  0.00  0.00    +0.140 A 
ATOM     26  C   LIG    1        0.317   0.891  -0.073  0.00  0.00    +0.180 A 
ATOM     27  C   LIG    1        1.449   1.645  -0.081  0.00  0.00    -0.050 A 
ENDBRANCH  17  19
ENDBRANCH   5  17
TORSDOF 3
