REMARK  Name = ZINCrD00000hQ6J5.0
REMARK                            x       y       z     vdW  Elec       q    Type
REMARK                         _______ _______ _______ _____ _____    ______ ____
ROOT
ATOM      1  C   LIG    1       -2.680   2.614  -3.338  0.00  0.00    -0.220 C 
ATOM      2  C   LIG    1       -1.649   3.481  -3.211  0.00  0.00    +0.110 C 
ATOM      3  C   LIG    1       -1.015   3.292  -1.891  0.00  0.00    +0.530 C 
ATOM      4  N   LIG    1       -1.642   2.311  -1.216  0.00  0.00    -0.590 N 
ATOM      5  O   LIG    1       -0.065   3.926  -1.477  0.00  0.00    -0.500 OA
ATOM      6  C   LIG    1       -2.733   1.810  -2.060  0.00  0.00    +0.350 C 
ENDROOT
BRANCH   6   7
ATOM      7  C   LIG    1       -4.058   2.019  -1.372  0.00  0.00    -0.090 A 
ATOM      8  C   LIG    1       -4.338   3.230  -0.765  0.00  0.00    +0.020 A 
ATOM      9  C   LIG    1       -5.554   3.426  -0.137  0.00  0.00    +0.030 A 
ATOM     10  C   LIG    1       -6.488   2.409  -0.105  0.00  0.00    +0.000 A 
ATOM     11  C   LIG    1       -6.208   1.192  -0.709  0.00  0.00    +0.110 A 
ATOM     12  C   LIG    1       -4.989   0.999  -1.343  0.00  0.00    +0.010 A 
BRANCH  11  13
ATOM     13  O   LIG    1       -7.125   0.190  -0.678  0.00  0.00    -0.500 OA
ATOM     14  H   LIG    1       -7.044  -0.395   0.087  0.00  0.00    +0.390 HD
ENDBRANCH  11  13
ENDBRANCH   6   7
BRANCH   1  16
ATOM     15  O   LIG    1       -4.318   3.394  -4.799  0.00  0.00    -0.410 OA
ATOM     16  C   LIG    1       -3.573   2.479  -4.495  0.00  0.00    +0.520 C 
BRANCH  16  17
ATOM     17  C   LIG    1       -3.569   1.244  -5.284  0.00  0.00    -0.110 A 
ATOM     18  C   LIG    1       -4.283   1.017  -6.441  0.00  0.00    +0.050 A 
ATOM     19  C   LIG    1       -3.977  -0.289  -6.850  0.00  0.00    -0.070 A 
ATOM     20  C   LIG    1       -3.107  -0.797  -5.947  0.00  0.00    +0.210 A 
ATOM     21  O   LIG    1       -2.860   0.128  -5.011  0.00  0.00    -0.150 OA
ENDBRANCH  16  17
ENDBRANCH   1  16
BRANCH   2  22
ATOM     22  O   LIG    1       -1.264   4.383  -4.144  0.00  0.00    -0.430 OA
ATOM     23  H   LIG    1       -0.506   4.922  -3.881  0.00  0.00    +0.410 HD
ENDBRANCH   2  22
BRANCH   4  24
ATOM     24  C   LIG    1       -1.300   1.833   0.126  0.00  0.00    +0.450 C 
BRANCH  24  25
ATOM     25  C   LIG    1       -0.303   0.708   0.018  0.00  0.00    -0.050 A 
ATOM     26  C   LIG    1        1.036   0.841   0.005  0.00  0.00    -0.020 A 
ATOM     27  C   LIG    1        1.576  -0.460  -0.114  0.00  0.00    -0.070 A 
ATOM     28  C   LIG    1        0.535  -1.311  -0.166  0.00  0.00    +0.180 A 
ATOM     29  O   LIG    1       -0.600  -0.598  -0.086  0.00  0.00    -0.170 OA
ENDBRANCH  24  25
ENDBRANCH   4  24
TORSDOF 7
