REMARK  Name = ZINCrD000000CbDj.0
REMARK                            x       y       z     vdW  Elec       q    Type
REMARK                         _______ _______ _______ _____ _____    ______ ____
ROOT
ATOM      1  O   LIG    1       -2.016  -2.434   3.696  0.00  0.00    -0.490 OA
ATOM      2  C   LIG    1       -1.551  -2.448   2.576  0.00  0.00    +0.530 C 
ATOM      3  N   LIG    1       -1.802  -1.430   1.730  0.00  0.00    -0.650 N 
ATOM      4  H   LIG    1       -1.430  -1.441   0.834  0.00  0.00    +0.410 HD
ENDROOT
BRANCH   2   5
ATOM      5  C   LIG    1       -0.693  -3.604   2.131  0.00  0.00    +0.010 C 
ATOM      6  C   LIG    1       -1.332  -4.336   0.928  0.00  0.00    +0.070 C 
ATOM      7  C   LIG    1       -2.136  -5.452   1.557  0.00  0.00    +0.520 C 
ATOM      8  N   LIG    1       -1.747  -5.641   2.830  0.00  0.00    -0.610 N 
ATOM      9  O   LIG    1       -3.005  -6.084   0.996  0.00  0.00    -0.520 OA
ATOM     10  C   LIG    1       -0.667  -4.718   3.200  0.00  0.00    +0.300 C 
BRANCH   8  11
ATOM     11  C   LIG    1       -2.327  -6.639   3.732  0.00  0.00    +0.250 C 
ATOM     12  C   LIG    1       -2.200  -8.047   3.114  0.00  0.00    +0.020 C 
ATOM     13  C   LIG    1       -3.515  -8.759   3.519  0.00  0.00    +0.020 C 
ATOM     14  C   LIG    1       -4.567  -7.628   3.402  0.00  0.00    +0.010 C 
ATOM     15  C   LIG    1       -3.832  -6.373   3.915  0.00  0.00    +0.010 C 
ENDBRANCH   8  11
ENDBRANCH   2   5
BRANCH   3  16
ATOM     16  C   LIG    1       -2.596  -0.360   2.142  0.00  0.00    +0.310 A 
ATOM     17  C   LIG    1       -3.177  -0.213   3.365  0.00  0.00    -0.100 A 
ATOM     18  C   LIG    1       -3.887   0.990   3.359  0.00  0.00    +0.250 A 
ATOM     19  N   LIG    1       -3.739   1.550   2.186  0.00  0.00    -0.280 NA
ATOM     20  N   LIG    1       -2.927   0.722   1.401  0.00  0.00    -0.380 N 
BRANCH  20  21
ATOM     21  C   LIG    1       -2.514   0.980   0.019  0.00  0.00    +0.380 C 
BRANCH  21  22
ATOM     22  C   LIG    1       -1.219   1.751   0.017  0.00  0.00    -0.110 A 
ATOM     23  C   LIG    1       -1.238   3.133   0.030  0.00  0.00    +0.060 A 
ATOM     24  C   LIG    1       -0.050   3.841   0.022  0.00  0.00    +0.040 A 
ATOM     25  C   LIG    1        1.156   3.167   0.007  0.00  0.00    +0.040 A 
ATOM     26  C   LIG    1        1.176   1.784   0.000  0.00  0.00    -0.040 A 
ATOM     27 CL   LIG    1        2.691   0.937  -0.019  0.00  0.00    -0.060 Cl
ATOM     28  C   LIG    1       -0.013   1.076   0.008  0.00  0.00    +0.030 A 
ENDBRANCH  21  22
ENDBRANCH  20  21
ENDBRANCH   3  16
TORSDOF 5
