REMARK  Name = ZINCrD00000F5LAt.0
REMARK                            x       y       z     vdW  Elec       q    Type
REMARK                         _______ _______ _______ _____ _____    ______ ____
ROOT
ATOM      1  N   LIG    1        2.919  -3.287  -1.391  0.00  0.00    -0.730 N 
ATOM      2  H   LIG    1        2.407  -2.932  -2.135  0.00  0.00    +0.400 HD
ATOM      3  C   LIG    1        4.185  -3.706  -1.584  0.00  0.00    +0.710 C 
ATOM      4  N   LIG    1        4.740  -3.633  -2.810  0.00  0.00    -0.680 N 
ATOM      5  H   LIG    1        4.205  -3.352  -3.569  0.00  0.00    +0.410 HD
ATOM      6  O   LIG    1        4.827  -4.150  -0.652  0.00  0.00    -0.570 OA
ENDROOT
BRANCH   4   7
ATOM      7  C   LIG    1        6.089  -3.964  -2.989  0.00  0.00    +0.190 A 
ATOM      8  C   LIG    1        7.010  -3.691  -1.980  0.00  0.00    +0.020 A 
ATOM      9  C   LIG    1        8.328  -4.013  -2.136  0.00  0.00    +0.090 A 
ATOM     10  C   LIG    1        8.765  -4.610  -3.321  0.00  0.00    +0.030 A 
ATOM     11  N   LIG    1        9.979  -5.030  -3.764  0.00  0.00    -0.490 NA
ATOM     12  C   LIG    1        9.860  -5.528  -4.960  0.00  0.00    +0.470 A 
ATOM     13  N   LIG    1        8.563  -5.462  -5.367  0.00  0.00    -0.500 N 
ATOM     14  C   LIG    1        8.032  -5.922  -6.653  0.00  0.00    +0.330 C 
ATOM     15  C   LIG    1        7.840  -4.881  -4.344  0.00  0.00    +0.070 A 
ATOM     16  C   LIG    1        6.503  -4.556  -4.171  0.00  0.00    -0.030 A 
ENDBRANCH   4   7
BRANCH   1  21
ATOM     17  C   LIG    1       -1.227  -0.994   0.201  0.00  0.00    +0.120 A 
ATOM     18  C   LIG    1       -1.229  -2.363  -0.004  0.00  0.00    -0.030 A 
ATOM     19  C   LIG    1       -0.034  -3.060  -0.076  0.00  0.00    -0.070 A 
ATOM     20  C   LIG    1        1.166  -2.387   0.057  0.00  0.00    -0.120 A 
ATOM     21  C   LIG    1        2.316  -3.366  -0.059  0.00  0.00    +0.310 C 
ATOM     22  C   LIG    1        1.686  -4.757   0.163  0.00  0.00    +0.040 C 
ATOM     23  C   LIG    1        1.173  -1.016   0.256  0.00  0.00    +0.000 A 
ATOM     24  C   LIG    1        0.227  -4.536  -0.289  0.00  0.00    +0.080 C 
ATOM     25  C   LIG    1       -0.018  -0.317   0.334  0.00  0.00    +0.100 A 
BRANCH  17  27
ATOM     26  C   LIG    1       -3.603  -1.074   0.126  0.00  0.00    +0.240 C 
ATOM     27  O   LIG    1       -2.402  -0.313   0.272  0.00  0.00    -0.300 OA
ENDBRANCH  17  27
BRANCH  25  28
ATOM     28  O   LIG    1       -0.008   1.028   0.535  0.00  0.00    -0.300 OA
ATOM     29  C   LIG    1        1.269   1.655   0.663  0.00  0.00    +0.240 C 
ENDBRANCH  25  28
ENDBRANCH   1  21
TORSDOF 4
