REMARK  Name = ZINCpk00000e9cwv.0
REMARK                            x       y       z     vdW  Elec       q    Type
REMARK                         _______ _______ _______ _____ _____    ______ ____
ROOT
ATOM      1  N   LIG    1        2.945   0.791  -4.383  0.00  0.00    -0.520 NA
ATOM      2  C   LIG    1        3.217   2.029  -3.640  0.00  0.00    +0.170 C 
ATOM      3  C   LIG    1        3.930   1.687  -2.328  0.00  0.00    +0.320 C 
ATOM      4  N   LIG    1        3.126   0.691  -1.604  0.00  0.00    -1.000 NA
ATOM      5  C   LIG    1        2.703  -0.519  -2.325  0.00  0.00    +0.310 C 
ATOM      6  C   LIG    1        2.033  -0.087  -3.640  0.00  0.00    +0.180 C 
ENDROOT
BRANCH   4   7
ATOM      7  S   LIG    1        2.712   0.923  -0.018  0.00  0.00    +2.690 S 
ATOM      8  O   LIG    1        2.458  -0.366   0.523  0.00  0.00    -0.950 OA
ATOM      9  O   LIG    1        3.678   1.815   0.522  0.00  0.00    -0.950 OA
BRANCH   7  10
ATOM     10  C   LIG    1        1.175   1.783   0.000  0.00  0.00    -0.650 A 
ATOM     11  C   LIG    1        1.156   3.166   0.007  0.00  0.00    +0.120 A 
ATOM     12  C   LIG    1       -0.050   3.842   0.023  0.00  0.00    +0.040 A 
ATOM     13  C   LIG    1       -1.238   3.137   0.030  0.00  0.00    +0.050 A 
ATOM     14  C   LIG    1       -1.221   1.752   0.017  0.00  0.00    +0.080 A 
ATOM     15  F   LIG    1       -2.382   1.061   0.019  0.00  0.00    -0.130 F 
ATOM     16  C   LIG    1       -0.013   1.076   0.008  0.00  0.00    +0.090 A 
ENDBRANCH   7  10
ENDBRANCH   4   7
BRANCH   1  17
ATOM     17  C   LIG    1        2.418   1.086  -5.723  0.00  0.00    +0.200 C 
BRANCH  17  20
ATOM     18  N   LIG    1        1.933  -0.152  -7.808  0.00  0.00    -0.730 N 
ATOM     19  H   LIG    1        1.631   0.683  -8.197  0.00  0.00    +0.400 HD
ATOM     20  C   LIG    1        2.384  -0.181  -6.538  0.00  0.00    +0.520 C 
ATOM     21  O   LIG    1        2.761  -1.226  -6.052  0.00  0.00    -0.510 OA
BRANCH  18  22
ATOM     22  C   LIG    1        1.899  -1.383  -8.602  0.00  0.00    +0.170 C 
ATOM     23  C   LIG    1        0.998  -2.410  -7.913  0.00  0.00    +0.030 C 
ATOM     24  C   LIG    1        3.315  -1.950  -8.724  0.00  0.00    +0.030 C 
BRANCH  22  26
ATOM     25  C   LIG    1        1.315  -2.363 -10.825  0.00  0.00    +0.030 C 
ATOM     26  C   LIG    1        1.350  -1.077  -9.996  0.00  0.00    +0.010 C 
ENDBRANCH  22  26
ENDBRANCH  18  22
ENDBRANCH  17  20
ENDBRANCH   1  17
TORSDOF 6
