REMARK  Name = ZINC9u0000000C7q.0
REMARK                            x       y       z     vdW  Elec       q    Type
REMARK                         _______ _______ _______ _____ _____    ______ ____
ROOT
ATOM      1  C   LIG    1       -0.723   1.954   1.250  0.00  0.00    -0.190 A 
ATOM      2  C   LIG    1       -0.135   2.207   2.420  0.00  0.00    +0.040 A 
ATOM      3  C   LIG    1       -0.987   2.649   3.418  0.00  0.00    +0.030 A 
ATOM      4  C   LIG    1       -2.269   2.745   3.060  0.00  0.00    -0.140 A 
ATOM      5 CL   LIG    1       -3.561   3.264   4.097  0.00  0.00    -0.010 Cl
ATOM      6  S   LIG    1       -2.449   2.267   1.377  0.00  0.00    +0.170 S 
ENDROOT
BRANCH   1   7
ATOM      7  C   LIG    1       -0.018   1.468   0.010  0.00  0.00    +0.300 C 
BRANCH   7   9
ATOM      8  N   LIG    1        0.018  -1.140  -0.004  0.00  0.00    -0.420 NA
ATOM      9  C   LIG    1        0.002  -0.004   0.002  0.00  0.00    +0.200 C 
ENDBRANCH   7   9
ENDBRANCH   1   7
TORSDOF 2
