REMARK  Name = ZINCAx0000000asx.0
REMARK                            x       y       z     vdW  Elec       q    Type
REMARK                         _______ _______ _______ _____ _____    ______ ____
ROOT
ATOM      1  N   LIG    1       -1.407  -0.997  -0.696  0.00  0.00    -0.510 N 
ATOM      2  C   LIG    1       -1.446  -2.330  -0.498  0.00  0.00    +0.580 C 
ATOM      3  O   LIG    1       -2.517  -2.902  -0.424  0.00  0.00    -0.480 OA
ENDROOT
BRANCH   2   4
ATOM      4  C   LIG    1       -0.188  -3.096  -0.371  0.00  0.00    +0.020 A 
ATOM      5  C   LIG    1        0.115  -4.151  -1.257  0.00  0.00    -0.200 A 
ATOM      6  C   LIG    1       -0.578  -4.746  -2.398  0.00  0.00    +0.170 A 
ATOM      7  N   LIG    1        0.173  -5.704  -2.850  0.00  0.00    -0.280 NA
ATOM      8  O   LIG    1        1.349  -5.796  -2.073  0.00  0.00    -0.080 OA
ATOM      9  C   LIG    1       -1.916  -4.324  -2.949  0.00  0.00    +0.200 C 
ATOM     10  C   LIG    1        1.321  -4.857  -1.105  0.00  0.00    +0.300 A 
ATOM     11  N   LIG    1        2.164  -4.533  -0.138  0.00  0.00    -0.470 NA
ATOM     12  C   LIG    1        1.911  -3.550   0.712  0.00  0.00    +0.240 A 
ATOM     13  C   LIG    1        0.739  -2.796   0.625  0.00  0.00    -0.020 A 
BRANCH  12  14
ATOM     14  C   LIG    1        2.897  -3.237   1.774  0.00  0.00    -0.060 A 
ATOM     15  C   LIG    1        2.651  -2.201   2.674  0.00  0.00    +0.030 A 
ATOM     16  C   LIG    1        3.570  -1.919   3.664  0.00  0.00    +0.010 A 
ATOM     17  C   LIG    1        4.738  -2.653   3.758  0.00  0.00    +0.030 A 
ATOM     18  C   LIG    1        4.990  -3.678   2.864  0.00  0.00    +0.010 A 
ATOM     19  C   LIG    1        4.076  -3.974   1.873  0.00  0.00    +0.070 A 
ENDBRANCH  12  14
ENDBRANCH   2   4
BRANCH   1  25
ATOM     20  N   LIG    1        1.504   1.186  -0.191  0.00  0.00    -0.540 N 
ATOM     21  C   LIG    1        2.229   0.893  -1.285  0.00  0.00    +0.710 A 
ATOM     22  N   LIG    1        1.795  -0.003  -2.190  0.00  0.00    -0.660 N 
ATOM     23  H   LIG    1        2.337  -0.197  -2.970  0.00  0.00    +0.430 HD
ATOM     24  C   LIG    1        0.616  -0.633  -2.025  0.00  0.00    +0.560 A 
ATOM     25  C   LIG    1       -0.170  -0.350  -0.891  0.00  0.00    -0.170 A 
ATOM     26  O   LIG    1        0.234  -1.447  -2.849  0.00  0.00    -0.500 OA
ATOM     27  O   LIG    1        3.297   1.447  -1.460  0.00  0.00    -0.520 OA
ATOM     28  C   LIG    1        0.292   0.572   0.027  0.00  0.00    +0.490 A 
BRANCH  28  29
ATOM     29  N   LIG    1       -0.448   0.872   1.144  0.00  0.00    -0.830 N 
ATOM     30  H   LIG    1       -0.162   1.582   1.740  0.00  0.00    +0.410 HD
ATOM     31  H   LIG    1       -1.258   0.373   1.338  0.00  0.00    +0.430 HD
ENDBRANCH  28  29
BRANCH  20  32
ATOM     32  C   LIG    1        2.007   2.167   0.774  0.00  0.00    +0.300 C 
BRANCH  32  33
ATOM     33  C   LIG    1        2.847   1.453   1.835  0.00  0.00    +0.010 C 
BRANCH  33  35
ATOM     34  C   LIG    1        4.213   1.763   3.904  0.00  0.00    +0.030 C 
ATOM     35  C   LIG    1        3.372   2.477   2.844  0.00  0.00    +0.010 C 
ENDBRANCH  33  35
ENDBRANCH  32  33
ENDBRANCH  20  32
ENDBRANCH   1  25
BRANCH   1  36
ATOM     36  C   LIG    1       -2.649  -0.221  -0.709  0.00  0.00    +0.300 C 
BRANCH  36  37
ATOM     37  C   LIG    1       -3.205  -0.172  -2.134  0.00  0.00    +0.160 C 
BRANCH  37  38
ATOM     38  O   LIG    1       -3.577  -1.488  -2.546  0.00  0.00    -0.370 OA
ATOM     39  C   LIG    1       -4.111  -1.554  -3.870  0.00  0.00    +0.200 C 
ENDBRANCH  37  38
ENDBRANCH  36  37
ENDBRANCH   1  36
TORSDOF 10
