REMARK  Name = ZINCvU0000000Ftn.1
REMARK                            x       y       z     vdW  Elec       q    Type
REMARK                         _______ _______ _______ _____ _____    ______ ____
ROOT
ATOM      1  O   LIG    1       -5.047   2.138   0.011  0.00  0.00    -0.500 OA
ATOM      2  C   LIG    1       -4.231   2.934   0.436  0.00  0.00    +0.650 C 
ATOM      3  N   LIG    1       -3.945   2.944   1.748  0.00  0.00    -0.530 NA
ATOM      4  C   LIG    1       -3.299   3.936   2.299  0.00  0.00    +0.310 C 
ATOM      5  C   LIG    1       -2.885   5.130   1.477  0.00  0.00    +0.130 C 
ATOM      6  C   LIG    1       -2.569   4.676   0.050  0.00  0.00    +0.330 C 
ATOM      7  N   LIG    1       -3.633   3.783  -0.418  0.00  0.00    -0.750 N 
ATOM      8  H   LIG    1       -3.907   3.804  -1.348  0.00  0.00    +0.420 HD
ENDROOT
BRANCH   5   9
ATOM      9  C   LIG    1       -4.008   6.135   1.449  0.00  0.00    +0.280 A 
ATOM     10  N   LIG    1       -3.853   7.426   1.433  0.00  0.00    -0.460 NA
ATOM     11  C   LIG    1       -5.068   8.032   1.408  0.00  0.00    +0.050 A 
ATOM     12  C   LIG    1       -5.478   9.367   1.384  0.00  0.00    +0.070 A 
ATOM     13  C   LIG    1       -6.811   9.669   1.362  0.00  0.00    +0.000 A 
ATOM     14  C   LIG    1       -7.765   8.662   1.364  0.00  0.00    +0.040 A 
ATOM     15  C   LIG    1       -7.383   7.338   1.387  0.00  0.00    +0.010 A 
ATOM     16  C   LIG    1       -6.034   7.011   1.410  0.00  0.00    +0.060 A 
ATOM     17  N   LIG    1       -5.332   5.823   1.431  0.00  0.00    -0.590 N 
ATOM     18  H   LIG    1       -5.713   4.930   1.434  0.00  0.00    +0.420 HD
ENDBRANCH   5   9
BRANCH   6  19
ATOM     19  C   LIG    1       -1.253   3.942   0.034  0.00  0.00    -0.140 A 
ATOM     20  C   LIG    1       -1.232   2.561   0.022  0.00  0.00    +0.100 A 
ATOM     21  C   LIG    1       -0.024   1.887   0.012  0.00  0.00    -0.090 A 
ATOM     22  C   LIG    1        1.165   2.594   0.005  0.00  0.00    +0.110 A 
ATOM     23  C   LIG    1        1.149   3.976   0.012  0.00  0.00    -0.120 A 
ATOM     24 BR   LIG    1        2.774   4.942   0.003  0.00  0.00    -0.010 Br
ATOM     25 BR   LIG    1        0.002  -0.004   0.002  0.00  0.00    -0.020 Br
ATOM     26  C   LIG    1       -0.062   4.654   0.027  0.00  0.00    +0.170 A 
BRANCH  26  27
ATOM     27  O   LIG    1       -0.081   6.013   0.035  0.00  0.00    -0.470 OA
ATOM     28  H   LIG    1       -0.095   6.411  -0.846  0.00  0.00    +0.400 HD
ENDBRANCH  26  27
ENDBRANCH   6  19
BRANCH   4  29
ATOM     29  C   LIG    1       -2.971   3.887   3.731  0.00  0.00    -0.100 A 
ATOM     30  C   LIG    1       -2.273   4.942   4.329  0.00  0.00    +0.060 A 
ATOM     31  C   LIG    1       -1.975   4.891   5.674  0.00  0.00    +0.000 A 
ATOM     32  C   LIG    1       -2.353   3.795   6.430  0.00  0.00    +0.050 A 
ATOM     33  C   LIG    1       -3.038   2.744   5.844  0.00  0.00    +0.000 A 
ATOM     34  C   LIG    1       -3.350   2.782   4.502  0.00  0.00    +0.090 A 
ENDBRANCH   4  29
TORSDOF 4
