REMARK  Name = ZINCvU0000000FtN.0
REMARK                            x       y       z     vdW  Elec       q    Type
REMARK                         _______ _______ _______ _____ _____    ______ ____
ROOT
ATOM      1  C   LIG    1        1.234  -2.169  -0.023  0.00  0.00    +0.260 C 
ENDROOT
BRANCH   1   2
ATOM      2  C   LIG    1        1.234  -0.662  -0.020  0.00  0.00    -0.100 A 
ATOM      3  C   LIG    1        0.037   0.029  -0.008  0.00  0.00    +0.010 A 
ATOM      4  C   LIG    1        0.037   1.411  -0.004  0.00  0.00    +0.000 A 
ATOM      5  C   LIG    1        1.234   2.103  -0.011  0.00  0.00    +0.010 A 
ATOM      6  C   LIG    1        2.431   1.411  -0.025  0.00  0.00    +0.000 A 
ATOM      7  C   LIG    1        2.431   0.029  -0.028  0.00  0.00    +0.030 A 
ENDBRANCH   1   2
BRANCH   1   9
ATOM      8  O   LIG    1        2.604  -3.050   1.686  0.00  0.00    -0.460 OA
ATOM      9  C   LIG    1        1.493  -2.675   1.373  0.00  0.00    +0.430 C 
BRANCH   9  10
ATOM     10  C   LIG    1        0.439  -2.712   2.320  0.00  0.00    -0.270 A 
ATOM     11  C   LIG    1       -0.867  -2.318   2.121  0.00  0.00    +0.320 A 
ATOM     12  N   LIG    1       -1.573  -2.506   3.252  0.00  0.00    -0.560 N 
ATOM     13  H   LIG    1       -2.516  -2.302   3.353  0.00  0.00    +0.420 HD
ATOM     14  C   LIG    1       -0.770  -3.021   4.249  0.00  0.00    +0.070 A 
ATOM     15  C   LIG    1       -1.010  -3.379   5.572  0.00  0.00    +0.000 A 
ATOM     16  C   LIG    1        0.015  -3.879   6.346  0.00  0.00    +0.030 A 
ATOM     17  C   LIG    1        1.289  -4.030   5.820  0.00  0.00    +0.000 A 
ATOM     18  C   LIG    1        1.546  -3.681   4.512  0.00  0.00    +0.060 A 
ATOM     19  C   LIG    1        0.521  -3.175   3.719  0.00  0.00    -0.060 A 
ENDBRANCH   9  10
ENDBRANCH   1   9
BRANCH   1  20
ATOM     20  N   LIG    1        2.285  -2.655  -0.921  0.00  0.00    -0.730 N 
ATOM     21  H   LIG    1        3.157  -2.887  -0.566  0.00  0.00    +0.410 HD
BRANCH  20  22
ATOM     22  C   LIG    1        2.029  -2.786  -2.290  0.00  0.00    +0.200 A 
ATOM     23  C   LIG    1        0.778  -2.460  -2.797  0.00  0.00    -0.050 A 
ATOM     24  C   LIG    1        0.527  -2.585  -4.149  0.00  0.00    +0.050 A 
ATOM     25  C   LIG    1        1.523  -3.046  -5.000  0.00  0.00    +0.100 A 
ATOM     26  C   LIG    1        2.772  -3.376  -4.493  0.00  0.00    +0.010 A 
ATOM     27  C   LIG    1        3.025  -3.247  -3.142  0.00  0.00    -0.030 A 
BRANCH  25  28
ATOM     28  N   LIG    1        1.267  -3.177  -6.372  0.00  0.00    -0.560 N 
ATOM     29  C   LIG    1        2.279  -3.537  -7.373  0.00  0.00    +0.270 C 
ATOM     30  C   LIG    1        1.669  -3.139  -8.736  0.00  0.00    +0.060 C 
ATOM     31  C   LIG    1        0.154  -3.205  -8.435  0.00  0.00    +0.070 C 
ATOM     32  C   LIG    1        0.062  -2.996  -6.939  0.00  0.00    +0.510 C 
ATOM     33  O   LIG    1       -0.952  -2.705  -6.340  0.00  0.00    -0.520 OA
ENDBRANCH  25  28
ENDBRANCH  20  22
ENDBRANCH   1  20
TORSDOF 6
