REMARK  Name = ZINCpe00000gMfox.0
REMARK                            x       y       z     vdW  Elec       q    Type
REMARK                         _______ _______ _______ _____ _____    ______ ____
ROOT
ATOM      1  N   LIG    1       -2.057   4.170  -0.347  0.00  0.00    -0.470 N 
ATOM      2  C   LIG    1       -2.174   5.157   0.747  0.00  0.00    +0.210 C 
ATOM      3  C   LIG    1       -0.751   5.245   1.354  0.00  0.00    +0.030 C 
ATOM      4  C   LIG    1       -0.278   3.771   1.259  0.00  0.00    +0.020 C 
ATOM      5  C   LIG    1       -0.910   3.288  -0.063  0.00  0.00    +0.170 C 
ENDROOT
BRANCH   1   8
ATOM      6  C   LIG    1       -4.761   2.165  -1.799  0.00  0.00    +0.440 A 
ATOM      7  C   LIG    1       -3.580   2.896  -1.716  0.00  0.00    -0.140 A 
ATOM      8  C   LIG    1       -3.226   3.438  -0.484  0.00  0.00    +0.370 A 
ATOM      9  N   LIG    1       -4.029   3.248   0.561  0.00  0.00    -0.590 NA
ATOM     10  C   LIG    1       -5.142   2.553   0.441  0.00  0.00    +0.560 A 
ATOM     11  N   LIG    1       -5.510   2.020  -0.707  0.00  0.00    -0.580 NA
BRANCH   6  13
ATOM     12  C   LIG    1       -4.324   1.767  -4.196  0.00  0.00    +0.290 C 
ATOM     13  N   LIG    1       -5.155   1.600  -3.002  0.00  0.00    -0.720 N 
ATOM     14  H   LIG    1       -5.982   1.095  -3.053  0.00  0.00    +0.410 HD
ENDBRANCH   6  13
ENDBRANCH   1   8
BRANCH   5  15
ATOM     15  C   LIG    1       -1.391   1.843   0.087  0.00  0.00    +0.260 C 
BRANCH  15  16
ATOM     16  N   LIG    1       -0.238   0.964   0.294  0.00  0.00    -0.740 N 
ATOM     17  H   LIG    1        0.651   1.342   0.385  0.00  0.00    +0.390 HD
ATOM     18  C   LIG    1       -0.410  -0.372   0.352  0.00  0.00    +0.710 C 
ATOM     19  N   LIG    1        0.660  -1.187   0.437  0.00  0.00    -0.620 N 
ATOM     20  C   LIG    1        0.496  -2.646   0.395  0.00  0.00    +0.300 C 
ATOM     21  C   LIG    1        1.180  -3.260   1.615  0.00  0.00    -0.020 C 
ATOM     22  C   LIG    1        2.636  -2.792   1.668  0.00  0.00    +0.040 C 
ATOM     23  C   LIG    1        2.680  -1.268   1.803  0.00  0.00    +0.150 C 
ATOM     24  C   LIG    1        1.137  -4.785   1.513  0.00  0.00    +0.040 C 
ATOM     25  C   LIG    1        2.014  -0.632   0.580  0.00  0.00    +0.240 C 
ATOM     26  O   LIG    1       -1.531  -0.842   0.329  0.00  0.00    -0.580 OA
BRANCH  23  27
ATOM     27  O   LIG    1        4.040  -0.836   1.884  0.00  0.00    -0.560 OA
ATOM     28  H   LIG    1        4.144   0.122   1.969  0.00  0.00    +0.380 HD
ENDBRANCH  23  27
ENDBRANCH  15  16
ENDBRANCH   5  15
TORSDOF 5
