REMARK  Name = ZINCc70000002LFx.0
REMARK                            x       y       z     vdW  Elec       q    Type
REMARK                         _______ _______ _______ _____ _____    ______ ____
ROOT
ATOM      1  O   LIG    1        6.187  -1.692  -0.760  0.00  0.00    -0.940 OA
ATOM      2  S   LIG    1        4.878  -2.036  -0.329  0.00  0.00    +2.410 S 
ATOM      3  C   LIG    1        4.783  -1.822   1.474  0.00  0.00    -0.380 C 
ATOM      4  C   LIG    1        3.311  -1.862   1.896  0.00  0.00    +0.270 C 
ATOM      5  N   LIG    1        2.586  -0.748   1.282  0.00  0.00    -0.680 NA
ATOM      6  H   LIG    1        3.043   0.131   1.474  0.00  0.00    +0.350 HD
ATOM      7  C   LIG    1        2.390  -0.934  -0.158  0.00  0.00    +0.220 C 
ATOM      8  O   LIG    1        4.347  -3.311  -0.665  0.00  0.00    -0.930 OA
ATOM      9  C   LIG    1        3.722  -0.750  -0.891  0.00  0.00    -0.370 C 
ENDROOT
BRANCH   7  10
ATOM     10  C   LIG    1        1.381   0.097  -0.670  0.00  0.00    +0.000 C 
ATOM     11  C   LIG    1        0.002  -0.004   0.002  0.00  0.00    +0.030 C 
ATOM     12  C   LIG    1       -0.019   1.534   0.011  0.00  0.00    +0.010 C 
ATOM     13  C   LIG    1        1.518   1.476  -0.004  0.00  0.00    +0.010 C 
ENDBRANCH   7  10
TORSDOF 1
