REMARK  Name = ZINCpk00000ebv2H.0
REMARK                            x       y       z     vdW  Elec       q    Type
REMARK                         _______ _______ _______ _____ _____    ______ ____
ROOT
ATOM      1  C   LIG    1        1.191   3.534   0.004  0.00  0.00    +0.510 C 
ATOM      2  O   LIG    1        2.243   4.135  -0.094  0.00  0.00    -0.460 OA
ENDROOT
BRANCH   1   3
ATOM      3  C   LIG    1        1.180   2.062  -0.001  0.00  0.00    -0.150 A 
ATOM      4  C   LIG    1       -0.030   1.357  -0.000  0.00  0.00    +0.150 A 
ATOM      5  C   LIG    1        0.015  -0.025  -0.005  0.00  0.00    -0.040 A 
ATOM      6  C   LIG    1        1.240  -0.668  -0.010  0.00  0.00    +0.320 A 
ATOM      7  N   LIG    1        2.369   0.013  -0.011  0.00  0.00    -0.510 NA
ATOM      8  C   LIG    1        2.385   1.337  -0.006  0.00  0.00    +0.350 A 
BRANCH   8   9
ATOM      9  N   LIG    1        3.592   2.010  -0.008  0.00  0.00    -0.470 N 
ATOM     10  C   LIG    1        4.395   1.649  -1.185  0.00  0.00    +0.170 C 
ATOM     11  C   LIG    1        5.694   2.459  -1.178  0.00  0.00    +0.230 C 
ATOM     12  O   LIG    1        6.393   2.221   0.047  0.00  0.00    -0.380 OA
ATOM     13  C   LIG    1        5.640   2.562   1.214  0.00  0.00    +0.230 C 
ATOM     14  C   LIG    1        4.340   1.752   1.232  0.00  0.00    +0.170 C 
ENDBRANCH   8   9
ENDBRANCH   1   3
BRANCH   1  15
ATOM     15  O   LIG    1        0.034   4.216   0.117  0.00  0.00    -0.340 OA
BRANCH  15  16
ATOM     16  C   LIG    1        0.120   5.666   0.114  0.00  0.00    +0.250 C 
BRANCH  16  18
ATOM     17  O   LIG    1       -2.225   5.519   0.337  0.00  0.00    -0.510 OA
ATOM     18  C   LIG    1       -1.262   6.251   0.248  0.00  0.00    +0.520 C 
ATOM     19  N   LIG    1       -1.428   7.589   0.269  0.00  0.00    -0.720 N 
ATOM     20  H   LIG    1       -0.658   8.174   0.198  0.00  0.00    +0.410 HD
BRANCH  19  21
ATOM     21  C   LIG    1       -2.771   8.158   0.400  0.00  0.00    +0.370 C 
BRANCH  21  22
ATOM     22  C   LIG    1       -2.682   9.662   0.397  0.00  0.00    -0.210 A 
ATOM     23  C   LIG    1       -2.740  10.434  -0.690  0.00  0.00    +0.030 A 
ATOM     24  C   LIG    1       -2.636  11.793  -0.446  0.00  0.00    +0.000 A 
ATOM     25  C   LIG    1       -2.494  12.124   0.838  0.00  0.00    -0.030 A 
ATOM     26  S   LIG    1       -2.493  10.669   1.826  0.00  0.00    +0.120 S 
ENDBRANCH  21  22
ENDBRANCH  19  21
ENDBRANCH  16  18
ENDBRANCH  15  16
ENDBRANCH   1  15
TORSDOF 7
