REMARK  Name = ZINCqH000003625C.0
REMARK                            x       y       z     vdW  Elec       q    Type
REMARK                         _______ _______ _______ _____ _____    ______ ____
ROOT
ATOM      1  N   LIG    1        1.668   4.026  -3.638  0.00  0.00    -0.650 N 
ATOM      2  H   LIG    1        1.828   4.982  -3.624  0.00  0.00    +0.410 HD
ATOM      3  C   LIG    1        1.517   3.350  -2.482  0.00  0.00    +0.560 C 
ATOM      4  O   LIG    1        1.236   2.167  -2.500  0.00  0.00    -0.510 OA
ENDROOT
BRANCH   3   5
ATOM      5  C   LIG    1        1.692   4.046  -1.194  0.00  0.00    -0.130 A 
ATOM      6  C   LIG    1        2.014   5.405  -1.168  0.00  0.00    +0.070 A 
ATOM      7  C   LIG    1        2.175   6.051   0.039  0.00  0.00    +0.040 A 
ATOM      8  C   LIG    1        2.020   5.358   1.230  0.00  0.00    -0.000 A 
ATOM      9  C   LIG    1        1.696   4.014   1.219  0.00  0.00    +0.040 A 
ATOM     10 CL   LIG    1        2.227   6.184   2.743  0.00  0.00    -0.050 Cl
ATOM     11  C   LIG    1        1.535   3.347   0.013  0.00  0.00    +0.220 A 
BRANCH  11  12
ATOM     12  N   LIG    1        1.215   1.992   0.000  0.00  0.00    -0.570 N 
ATOM     13  C   LIG    1        2.203   0.907  -0.016  0.00  0.00    +0.270 C 
ATOM     14  C   LIG    1        1.430  -0.361   0.410  0.00  0.00    +0.040 C 
ATOM     15  C   LIG    1       -0.016  -0.003  -0.005  0.00  0.00    +0.060 C 
ATOM     16  C   LIG    1       -0.040   1.509   0.001  0.00  0.00    +0.540 C 
ATOM     17  O   LIG    1       -1.045   2.188   0.001  0.00  0.00    -0.520 OA
ENDBRANCH  11  12
ENDBRANCH   3   5
BRANCH   1  21
ATOM     18  C   LIG    1        1.450   1.998  -7.281  0.00  0.00    +0.160 A 
ATOM     19  C   LIG    1        0.652   1.604  -6.217  0.00  0.00    -0.100 A 
ATOM     20  C   LIG    1        0.728   2.272  -5.009  0.00  0.00    +0.110 A 
ATOM     21  C   LIG    1        1.595   3.345  -4.862  0.00  0.00    +0.080 A 
ATOM     22  C   LIG    1        2.397   3.742  -5.930  0.00  0.00    +0.150 A 
ATOM     23  C   LIG    1        2.322   3.067  -7.137  0.00  0.00    -0.090 A 
BRANCH  18  25
ATOM     24  C   LIG    1        0.457   0.245  -8.544  0.00  0.00    +0.250 C 
ATOM     25  O   LIG    1        1.377   1.335  -8.466  0.00  0.00    -0.320 OA
ENDBRANCH  18  25
BRANCH  22  26
ATOM     26  O   LIG    1        3.252   4.789  -5.787  0.00  0.00    -0.310 OA
ATOM     27  C   LIG    1        4.043   5.141  -6.924  0.00  0.00    +0.250 C 
ENDBRANCH  22  26
ENDBRANCH   1  21
TORSDOF 5
