REMARK  Name = ZINCvU0000000IvV.0
REMARK                            x       y       z     vdW  Elec       q    Type
REMARK                         _______ _______ _______ _____ _____    ______ ____
ROOT
ATOM      1  C   LIG    1        3.444   4.407  -2.175  0.00  0.00    +0.080 C 
ENDROOT
BRANCH   1   2
ATOM      2  C   LIG    1        4.322   4.604  -0.965  0.00  0.00    +0.430 C 
ATOM      3  O   LIG    1        3.822   4.699   0.139  0.00  0.00    -0.460 OA
BRANCH   2  16
ATOM      4  C   LIG    1        4.406   7.135  -0.023  0.00  0.00    +0.320 C 
ATOM      5  N   LIG    1        5.846   6.894  -0.135  0.00  0.00    -0.530 N 
ATOM      6  C   LIG    1        6.823   7.804   0.266  0.00  0.00    +0.150 A 
ATOM      7  C   LIG    1        6.706   9.074   0.828  0.00  0.00    -0.020 A 
ATOM      8  C   LIG    1        7.836   9.798   1.145  0.00  0.00    +0.050 A 
ATOM      9  C   LIG    1        9.093   9.272   0.909  0.00  0.00    -0.010 A 
ATOM     10  C   LIG    1        9.217   8.012   0.350  0.00  0.00    +0.070 A 
ATOM     11  C   LIG    1        8.091   7.286   0.033  0.00  0.00    -0.140 A 
ATOM     12  C   LIG    1        7.894   5.913  -0.568  0.00  0.00    +0.000 C 
ATOM     13  C   LIG    1        8.507   5.851  -1.968  0.00  0.00    +0.070 C 
ATOM     14  C   LIG    1        8.503   4.838   0.334  0.00  0.00    +0.070 C 
ATOM     15  C   LIG    1        6.390   5.754  -0.640  0.00  0.00    +0.240 C 
ATOM     16  C   LIG    1        5.714   4.678  -1.114  0.00  0.00    -0.190 C 
ENDBRANCH   2  16
ENDBRANCH   1   2
BRANCH   1  17
ATOM     17  S   LIG    1        1.710   4.353  -1.659  0.00  0.00    +0.110 S 
BRANCH  17  18
ATOM     18  C   LIG    1        0.933   4.122  -3.224  0.00  0.00    +0.110 A 
ATOM     19  N   LIG    1        1.537   4.028  -4.384  0.00  0.00    -0.280 NA
ATOM     20  N   LIG    1        0.662   3.864  -5.312  0.00  0.00    -0.270 NA
ATOM     21  C   LIG    1       -0.538   3.847  -4.781  0.00  0.00    +0.260 A 
ATOM     22  O   LIG    1       -0.391   4.009  -3.447  0.00  0.00    -0.210 OA
BRANCH  21  23
ATOM     23  C   LIG    1       -1.812   3.679  -5.506  0.00  0.00    -0.130 A 
ATOM     24  C   LIG    1       -3.057   3.653  -4.964  0.00  0.00    +0.310 A 
ATOM     25  N   LIG    1       -3.985   3.485  -5.950  0.00  0.00    -0.580 N 
ATOM     26  H   LIG    1       -4.943   3.438  -5.808  0.00  0.00    +0.430 HD
ATOM     27  C   LIG    1       -3.364   3.385  -7.177  0.00  0.00    +0.090 A 
ATOM     28  C   LIG    1       -3.838   3.205  -8.472  0.00  0.00    +0.000 A 
ATOM     29  C   LIG    1       -2.953   3.142  -9.526  0.00  0.00    +0.040 A 
ATOM     30  C   LIG    1       -1.587   3.256  -9.309  0.00  0.00    -0.010 A 
ATOM     31  C   LIG    1       -1.097   3.436  -8.034  0.00  0.00    +0.080 A 
ATOM     32  C   LIG    1       -1.981   3.501  -6.959  0.00  0.00    -0.070 A 
ENDBRANCH  21  23
ENDBRANCH  17  18
ENDBRANCH   1  17
TORSDOF 5
