REMARK  Name = ZINCpe000000YaYJ.0
REMARK                            x       y       z     vdW  Elec       q    Type
REMARK                         _______ _______ _______ _____ _____    ______ ____
ROOT
ATOM      1  C   LIG    1       -0.385  -0.149  -4.835  0.00  0.00    +0.130 C 
ATOM      2  C   LIG    1       -1.634   0.644  -4.445  0.00  0.00    +0.040 C 
ATOM      3  C   LIG    1       -1.228   1.824  -3.556  0.00  0.00    +0.290 C 
ATOM      4  N   LIG    1       -0.456   1.313  -2.415  0.00  0.00    -0.610 N 
ATOM      5  C   LIG    1        0.717   0.468  -2.677  0.00  0.00    +0.280 C 
ATOM      6  C   LIG    1       -0.814   1.618  -1.152  0.00  0.00    +0.530 C 
ATOM      7  O   LIG    1       -1.782   2.321  -0.949  0.00  0.00    -0.530 OA
ATOM      8  C   LIG    1        0.285  -0.702  -3.575  0.00  0.00    +0.040 C 
ENDROOT
BRANCH   1  13
ATOM      9  C   LIG    1       -0.823  -3.281  -8.718  0.00  0.00    +0.200 C 
ATOM     10  C   LIG    1       -0.971  -2.622  -7.371  0.00  0.00    +0.170 A 
ATOM     11  N   LIG    1       -1.711  -3.040  -6.388  0.00  0.00    -0.380 NA
ATOM     12  O   LIG    1       -1.613  -2.289  -5.440  0.00  0.00    +0.080 OA
ATOM     13  C   LIG    1       -0.776  -1.290  -5.738  0.00  0.00    +0.180 A 
ATOM     14  N   LIG    1       -0.366  -1.491  -6.967  0.00  0.00    -0.480 NA
ENDBRANCH   1  13
BRANCH   6  15
ATOM     15  C   LIG    1       -0.013   1.086   0.008  0.00  0.00    -0.010 C 
ATOM     16  C   LIG    1        1.423   1.659  -0.003  0.00  0.00    +0.090 C 
ATOM     17  C   LIG    1        1.750   1.867   1.460  0.00  0.00    +0.520 C 
ATOM     18  N   LIG    1        0.625   1.838   2.194  0.00  0.00    -0.530 N 
ATOM     19  O   LIG    1        2.866   2.037   1.905  0.00  0.00    -0.520 OA
ATOM     20  C   LIG    1       -0.557   1.624   1.350  0.00  0.00    +0.310 C 
BRANCH  18  21
ATOM     21  C   LIG    1        0.585   1.992   3.592  0.00  0.00    +0.000 A 
ATOM     22  C   LIG    1        1.654   2.184   4.407  0.00  0.00    +0.240 A 
ATOM     23  N   LIG    1        1.188   2.286   5.678  0.00  0.00    -0.470 N 
ATOM     24  H   LIG    1        1.724   2.429   6.473  0.00  0.00    +0.450 HD
ATOM     25  N   LIG    1       -0.205   2.143   5.638  0.00  0.00    -0.270 NA
ATOM     26  C   LIG    1       -0.566   1.967   4.393  0.00  0.00    +0.230 A 
ENDBRANCH  18  21
ENDBRANCH   6  15
TORSDOF 3
