REMARK  Name = ZINCrD00000hQ4No.0
REMARK                            x       y       z     vdW  Elec       q    Type
REMARK                         _______ _______ _______ _____ _____    ______ ____
ROOT
ATOM      1  C   LIG    1        2.197  -4.122  -1.516  0.00  0.00    +0.330 C 
ENDROOT
BRANCH   1   2
ATOM      2  C   LIG    1        3.368  -4.604  -2.333  0.00  0.00    -0.150 A 
ATOM      3  C   LIG    1        3.175  -5.031  -3.632  0.00  0.00    +0.070 A 
ATOM      4  C   LIG    1        4.250  -5.468  -4.385  0.00  0.00    -0.030 A 
ATOM      5  C   LIG    1        5.519  -5.490  -3.834  0.00  0.00    -0.030 A 
ATOM      6  C   LIG    1        5.716  -5.069  -2.533  0.00  0.00    -0.080 A 
ATOM      7  C   LIG    1        6.687  -5.973  -4.655  0.00  0.00    +0.100 C 
ATOM      8  C   LIG    1        4.640  -4.625  -1.779  0.00  0.00    +0.150 A 
BRANCH   8   9
ATOM      9  O   LIG    1        4.831  -4.210  -0.499  0.00  0.00    -0.310 OA
BRANCH   9  10
ATOM     10  C   LIG    1        6.167  -4.259   0.006  0.00  0.00    +0.210 C 
BRANCH  10  11
ATOM     11  C   LIG    1        6.185  -3.757   1.452  0.00  0.00    -0.020 C 
ATOM     12  C   LIG    1        7.633  -3.678   1.991  0.00  0.00    +0.010 C 
ATOM     13  C   LIG    1        7.528  -4.206   3.435  0.00  0.00    +0.200 C 
ATOM     14  O   LIG    1        6.143  -4.499   3.683  0.00  0.00    -0.380 OA
ATOM     15  C   LIG    1        5.540  -4.795   2.405  0.00  0.00    +0.210 C 
ENDBRANCH  10  11
ENDBRANCH   9  10
ENDBRANCH   8   9
ENDBRANCH   1   2
BRANCH   1  17
ATOM     16  C   LIG    1        1.212  -2.000  -0.836  0.00  0.00    +0.520 C 
ATOM     17  N   LIG    1        2.177  -2.657  -1.508  0.00  0.00    -0.720 N 
ATOM     18  H   LIG    1        2.859  -2.160  -1.987  0.00  0.00    +0.400 HD
ATOM     19  O   LIG    1        0.359  -2.622  -0.237  0.00  0.00    -0.540 OA
BRANCH  16  20
ATOM     20  C   LIG    1        1.191  -0.493  -0.827  0.00  0.00    +0.050 C 
BRANCH  20  21
ATOM     21  C   LIG    1        0.002  -0.004   0.002  0.00  0.00    +0.130 C 
BRANCH  21  22
ATOM     22  C   LIG    1       -0.019   1.526   0.010  0.00  0.00    +0.040 C 
ATOM     23  N   LIG    1        0.650   2.242  -1.079  0.00  0.00    -0.120 NA
ATOM     24  N   LIG    1        1.258   2.244   0.002  0.00  0.00    -0.120 NA
BRANCH  22  25
ATOM     25  C   LIG    1       -1.224   2.182   0.688  0.00  0.00    +0.120 C 
BRANCH  25  26
ATOM     26  C   LIG    1       -1.088   3.704   0.608  0.00  0.00    +0.160 C 
BRANCH  26  28
ATOM     27  C   LIG    1       -3.171   4.838   1.780  0.00  0.00    +0.030 C 
ATOM     28  C   LIG    1       -2.247   4.335   1.260  0.00  0.00    -0.190 C 
ENDBRANCH  26  28
ENDBRANCH  25  26
ENDBRANCH  22  25
ENDBRANCH  21  22
ENDBRANCH  20  21
ENDBRANCH  16  20
ENDBRANCH   1  17
TORSDOF 11
