REMARK  Name = ZINCrD00000fenlq.0
REMARK                            x       y       z     vdW  Elec       q    Type
REMARK                         _______ _______ _______ _____ _____    ______ ____
ROOT
ATOM      1  C   LIG    1       -0.217   5.298   0.033  0.00  0.00    +0.050 C 
ATOM      2  C   LIG    1       -1.051   5.815  -1.168  0.00  0.00    +0.060 C 
ATOM      3  C   LIG    1       -1.596   7.165  -0.654  0.00  0.00    +0.260 C 
ATOM      4  N   LIG    1       -1.567   7.117   0.815  0.00  0.00    -0.600 N 
ATOM      5  C   LIG    1       -1.943   8.113   1.641  0.00  0.00    +0.620 C 
ATOM      6  O   LIG    1       -1.875   7.962   2.845  0.00  0.00    -0.490 OA
ATOM      7  C   LIG    1       -1.056   5.799   1.235  0.00  0.00    +0.300 C 
ENDROOT
BRANCH   1  14
ATOM      8  C   LIG    1        2.368   4.004   0.002  0.00  0.00    +0.100 C 
ATOM      9  C   LIG    1        1.107   3.179   0.009  0.00  0.00    -0.130 A 
ATOM     10  C   LIG    1        1.174   1.794   0.001  0.00  0.00    +0.070 A 
ATOM     11  C   LIG    1       -0.013   1.076   0.008  0.00  0.00    -0.030 A 
ATOM     12  C   LIG    1       -1.214   1.759   0.017  0.00  0.00    +0.260 A 
ATOM     13  N   LIG    1       -1.239   3.078   0.030  0.00  0.00    -0.470 NA
ATOM     14  C   LIG    1       -0.132   3.793   0.024  0.00  0.00    +0.130 A 
ENDBRANCH   1  14
BRANCH   5  15
ATOM     15  C   LIG    1       -2.440   9.394   1.080  0.00  0.00    +0.150 A 
ATOM     16  N   LIG    1       -2.559   9.691  -0.188  0.00  0.00    -0.340 NA
ATOM     17  O   LIG    1       -2.997  10.814  -0.320  0.00  0.00    +0.120 OA
ATOM     18  C   LIG    1       -3.201  11.369   0.885  0.00  0.00    +0.230 A 
ATOM     19  N   LIG    1       -2.848  10.470   1.785  0.00  0.00    -0.420 NA
BRANCH  18  20
ATOM     20  C   LIG    1       -3.720  12.726   1.153  0.00  0.00    -0.040 A 
ATOM     21  C   LIG    1       -3.886  13.167   2.467  0.00  0.00    +0.090 A 
ATOM     22  C   LIG    1       -4.367  14.439   2.710  0.00  0.00    +0.090 A 
ATOM     23  C   LIG    1       -4.695  15.273   1.653  0.00  0.00    +0.070 A 
ATOM     24  C   LIG    1       -4.539  14.841   0.349  0.00  0.00    +0.040 A 
ATOM     25  F   LIG    1       -4.522  14.869   3.981  0.00  0.00    -0.120 F 
ATOM     26  C   LIG    1       -4.054  13.572   0.091  0.00  0.00    +0.130 A 
ATOM     27  F   LIG    1       -3.902  13.151  -1.184  0.00  0.00    -0.110 F 
ENDBRANCH  18  20
ENDBRANCH   5  15
TORSDOF 3
