REMARK  Name = ZINCqH0000004Shj.0
REMARK                            x       y       z     vdW  Elec       q    Type
REMARK                         _______ _______ _______ _____ _____    ______ ____
ROOT
ATOM      1  N   LIG    1        0.074  -3.198   2.478  0.00  0.00    -0.530 N 
ATOM      2  C   LIG    1        0.086  -4.539   2.296  0.00  0.00    +0.560 A 
ATOM      3  C   LIG    1        0.080  -5.038   0.914  0.00  0.00    -0.200 A 
ATOM      4  C   LIG    1        0.097  -6.401   0.625  0.00  0.00    +0.100 A 
ATOM      5  C   LIG    1        0.091  -6.817  -0.688  0.00  0.00    +0.000 A 
ATOM      6  C   LIG    1        0.069  -5.891  -1.723  0.00  0.00    +0.070 A 
ATOM      7  C   LIG    1        0.052  -4.540  -1.461  0.00  0.00    +0.030 A 
ATOM      8  C   LIG    1        0.057  -4.092  -0.137  0.00  0.00    +0.160 A 
ATOM      9  N   LIG    1        0.041  -2.773   0.165  0.00  0.00    -0.530 NA
ATOM     10  O   LIG    1        0.105  -5.304   3.243  0.00  0.00    -0.500 OA
ATOM     11  C   LIG    1        0.047  -2.353   1.406  0.00  0.00    +0.370 A 
ENDROOT
BRANCH   1  13
ATOM     12  C   LIG    1       -1.355  -2.479   4.328  0.00  0.00    +0.050 C 
ATOM     13  C   LIG    1        0.084  -2.649   3.836  0.00  0.00    +0.290 C 
ENDBRANCH   1  13
BRANCH  11  14
ATOM     14  S   LIG    1        0.026  -0.617   1.705  0.00  0.00    +0.040 S 
BRANCH  14  15
ATOM     15  C   LIG    1        0.002  -0.004   0.002  0.00  0.00    +0.270 C 
BRANCH  15  16
ATOM     16  C   LIG    1       -0.018   1.503   0.010  0.00  0.00    +0.160 A 
ATOM     17  N   LIG    1        1.023   2.287   0.005  0.00  0.00    -0.250 NA
ATOM     18  N   LIG    1        0.638   3.514   0.014  0.00  0.00    -0.270 NA
ATOM     19  C   LIG    1       -0.674   3.556   0.027  0.00  0.00    +0.230 A 
ATOM     20  O   LIG    1       -1.114   2.281   0.019  0.00  0.00    -0.210 OA
BRANCH  19  21
ATOM     21  C   LIG    1       -1.513   4.773   0.041  0.00  0.00    -0.040 A 
ATOM     22  C   LIG    1       -2.904   4.665   0.047  0.00  0.00    +0.050 A 
ATOM     23  C   LIG    1       -3.681   5.805   0.066  0.00  0.00    +0.020 A 
ATOM     24  C   LIG    1       -3.084   7.053   0.067  0.00  0.00    +0.040 A 
ATOM     25  C   LIG    1       -1.705   7.167   0.055  0.00  0.00    +0.020 A 
ATOM     26  C   LIG    1       -0.916   6.035   0.042  0.00  0.00    +0.080 A 
ENDBRANCH  19  21
ENDBRANCH  15  16
ENDBRANCH  14  15
ENDBRANCH  11  14
TORSDOF 5
