REMARK  Name = ZINCvU00000003MX.0
REMARK                            x       y       z     vdW  Elec       q    Type
REMARK                         _______ _______ _______ _____ _____    ______ ____
ROOT
ATOM      1  C   LIG    1       -1.412  -0.526   0.013  0.00  0.00    +0.430 A 
ATOM      2  N   LIG    1       -2.395   0.331   0.032  0.00  0.00    -0.540 NA
ATOM      3  C   LIG    1       -3.676  -0.075   0.037  0.00  0.00    +0.540 A 
ATOM      4  C   LIG    1       -3.963  -1.522   0.033  0.00  0.00    -0.220 A 
ATOM      5  C   LIG    1       -2.881  -2.384   0.018  0.00  0.00    +0.060 A 
ATOM      6  S   LIG    1       -3.439  -4.050   0.015  0.00  0.00    +0.190 S 
ATOM      7  C   LIG    1       -5.123  -3.560   0.034  0.00  0.00    -0.040 A 
ATOM      8  C   LIG    1       -5.234  -2.232   0.042  0.00  0.00    +0.010 A 
ATOM      9  O   LIG    1       -4.585   0.739   0.050  0.00  0.00    -0.460 OA
ATOM     10  N   LIG    1       -1.609  -1.853   0.007  0.00  0.00    -0.590 N 
ATOM     11  H   LIG    1       -0.844  -2.449  -0.003  0.00  0.00    +0.420 HD
ENDROOT
BRANCH   8  12
ATOM     12  C   LIG    1       -6.543  -1.536   0.059  0.00  0.00    -0.040 A 
ATOM     13  C   LIG    1       -6.790  -0.531   0.994  0.00  0.00    +0.060 A 
ATOM     14  C   LIG    1       -8.008   0.118   1.000  0.00  0.00    +0.000 A 
ATOM     15  C   LIG    1       -8.988  -0.236   0.089  0.00  0.00    +0.010 A 
ATOM     16  C   LIG    1       -8.751  -1.236  -0.837  0.00  0.00    -0.010 A 
ATOM     17  C   LIG    1       -7.534  -1.887  -0.857  0.00  0.00    +0.020 A 
ENDBRANCH   8  12
BRANCH   1  18
ATOM     18  C   LIG    1        0.002  -0.004   0.002  0.00  0.00    +0.350 C 
BRANCH  18  19
ATOM     19  O   LIG    1       -0.018   1.448   0.010  0.00  0.00    -0.300 OA
BRANCH  19  20
ATOM     20  C   LIG    1        1.175   2.076   0.002  0.00  0.00    +0.560 C 
ATOM     21  O   LIG    1        2.203   1.428  -0.011  0.00  0.00    -0.490 OA
BRANCH  20  24
ATOM     22  C   LIG    1        3.783   3.617  -0.015  0.00  0.00    +0.190 C 
ATOM     23  C   LIG    1        2.408   4.234   0.002  0.00  0.00    -0.170 A 
ATOM     24  C   LIG    1        1.232   3.546   0.009  0.00  0.00    +0.020 A 
ATOM     25  N   LIG    1        0.142   4.303   0.018  0.00  0.00    -0.390 NA
ATOM     26  C   LIG    1        0.344   5.588   0.028  0.00  0.00    +0.120 A 
ATOM     27  S   LIG    1        2.074   5.911   0.013  0.00  0.00    +0.220 S 
BRANCH  26  28
ATOM     28  C   LIG    1       -0.711   6.613   0.042  0.00  0.00    +0.020 A 
ATOM     29  C   LIG    1       -2.053   6.379   0.054  0.00  0.00    +0.040 A 
ATOM     30  C   LIG    1       -2.683   7.638   0.065  0.00  0.00    -0.060 A 
ATOM     31  C   LIG    1       -1.708   8.569   0.060  0.00  0.00    +0.200 A 
ATOM     32  O   LIG    1       -0.518   7.947   0.052  0.00  0.00    -0.170 OA
ENDBRANCH  26  28
ENDBRANCH  20  24
ENDBRANCH  19  20
ENDBRANCH  18  19
ENDBRANCH   1  18
TORSDOF 6
