REMARK  Name = ZINCrH000004ov9w.0
REMARK                            x       y       z     vdW  Elec       q    Type
REMARK                         _______ _______ _______ _____ _____    ______ ____
ROOT
ATOM      1  N   LIG    1        8.505   0.088  -1.022  0.00  0.00    -0.530 NA
ATOM      2  C   LIG    1        8.159  -0.593   0.233  0.00  0.00    +0.200 C 
ATOM      3  C   LIG    1        6.702  -1.058   0.172  0.00  0.00    +0.180 C 
ATOM      4  N   LIG    1        5.829   0.103  -0.052  0.00  0.00    -0.530 NA
ATOM      5  C   LIG    1        6.176   0.784  -1.307  0.00  0.00    +0.200 C 
ATOM      6  C   LIG    1        7.633   1.249  -1.246  0.00  0.00    +0.190 C 
ENDROOT
BRANCH   1   8
ATOM      7  C   LIG    1       10.798  -0.762  -0.892  0.00  0.00    +0.050 C 
ATOM      8  C   LIG    1        9.920   0.483  -1.033  0.00  0.00    +0.180 C 
BRANCH   8   9
ATOM      9  C   LIG    1       10.238   1.177  -2.333  0.00  0.00    -0.070 A 
ATOM     10  C   LIG    1        9.418   0.998  -3.430  0.00  0.00    +0.050 A 
ATOM     11  C   LIG    1        9.709   1.635  -4.622  0.00  0.00    +0.010 A 
ATOM     12  C   LIG    1       10.821   2.450  -4.717  0.00  0.00    +0.020 A 
ATOM     13  C   LIG    1       11.642   2.630  -3.620  0.00  0.00    +0.020 A 
ATOM     14  C   LIG    1       11.347   1.999  -2.425  0.00  0.00    -0.030 A 
ATOM     15 CL   LIG    1       12.374   2.230  -1.044  0.00  0.00    -0.070 Cl
ENDBRANCH   8   9
ENDBRANCH   1   8
BRANCH   4  16
ATOM     16  C   LIG    1        4.414  -0.292  -0.041  0.00  0.00    +0.170 C 
BRANCH  16  17
ATOM     17  C   LIG    1        3.548   0.941  -0.026  0.00  0.00    +0.430 C 
ATOM     18  O   LIG    1        4.060   2.043  -0.025  0.00  0.00    -0.460 OA
BRANCH  17  19
ATOM     19  C   LIG    1        2.145   0.816  -0.014  0.00  0.00    -0.320 A 
ATOM     20  C   LIG    1        1.195   1.846   0.001  0.00  0.00    +0.360 A 
ATOM     21  N   LIG    1       -0.016   1.325   0.009  0.00  0.00    -0.560 NA
ATOM     22  C   LIG    1        0.002  -0.004   0.002  0.00  0.00    +0.280 A 
ATOM     23  N   LIG    1       -0.985  -0.952   0.007  0.00  0.00    -0.490 N 
ATOM     24  H   LIG    1       -1.915  -0.674   0.017  0.00  0.00    +0.430 HD
ATOM     25  C   LIG    1       -0.684  -2.259  -0.003  0.00  0.00    +0.340 A 
ATOM     26  C   LIG    1        0.606  -2.697  -0.017  0.00  0.00    -0.050 A 
ATOM     27  C   LIG    1        1.654  -1.780  -0.023  0.00  0.00    +0.170 A 
ATOM     28  C   LIG    1        1.353  -0.425  -0.013  0.00  0.00    -0.130 A 
ENDBRANCH  17  19
ENDBRANCH  16  17
ENDBRANCH   4  16
TORSDOF 5
