REMARK  Name = ZINCrH00000tj12O.0
REMARK                            x       y       z     vdW  Elec       q    Type
REMARK                         _______ _______ _______ _____ _____    ______ ____
ROOT
ATOM      1  C   LIG    1       -0.753   1.593  -1.232  0.00  0.00    +0.170 C 
ATOM      2  C   LIG    1       -2.201   1.154  -1.201  0.00  0.00    +0.500 C 
ATOM      3  N   LIG    1       -2.403   0.379  -2.280  0.00  0.00    -0.550 N 
ATOM      4  C   LIG    1       -1.249   0.237  -3.051  0.00  0.00    +0.180 A 
ATOM      5  C   LIG    1       -1.024  -0.469  -4.231  0.00  0.00    +0.000 A 
ATOM      6  C   LIG    1        0.226  -0.458  -4.817  0.00  0.00    +0.110 A 
ATOM      7  C   LIG    1        1.263   0.251  -4.239  0.00  0.00    -0.120 A 
ATOM      8  C   LIG    1        1.046   0.955  -3.066  0.00  0.00    +0.130 A 
ATOM      9 BR   LIG    1        2.972   0.261  -5.049  0.00  0.00    -0.040 Br
ATOM     10  O   LIG    1       -3.025   1.447  -0.360  0.00  0.00    -0.440 OA
ATOM     11  C   LIG    1       -0.199   0.946  -2.480  0.00  0.00    -0.140 A 
ENDROOT
BRANCH   1  12
ATOM     12  O   LIG    1       -0.662   3.016  -1.320  0.00  0.00    -0.520 OA
ATOM     13  H   LIG    1       -1.032   3.482  -0.557  0.00  0.00    +0.390 HD
ENDBRANCH   1  12
BRANCH   1  14
ATOM     14  C   LIG    1       -0.013   1.086   0.008  0.00  0.00    +0.040 C 
BRANCH  14  16
ATOM     15  C   LIG    1       -0.185   1.208   2.610  0.00  0.00    +0.070 C 
ATOM     16  C   LIG    1       -0.718   1.572   1.248  0.00  0.00    +0.330 C 
ATOM     17  O   LIG    1       -1.710   2.253   1.150  0.00  0.00    -0.420 OA
ENDBRANCH  14  16
ENDBRANCH   1  14
BRANCH   3  18
ATOM     18  C   LIG    1       -3.687  -0.244  -2.608  0.00  0.00    +0.300 C 
BRANCH  18  19
ATOM     19  C   LIG    1       -4.504   0.703  -3.490  0.00  0.00    +0.020 C 
BRANCH  19  20
ATOM     20  C   LIG    1       -5.845   0.051  -3.834  0.00  0.00    +0.200 C 
BRANCH  20  21
ATOM     21  O   LIG    1       -6.607   0.936  -4.657  0.00  0.00    -0.310 OA
BRANCH  21  22
ATOM     22  C   LIG    1       -7.833   0.506  -5.054  0.00  0.00    +0.130 A 
ATOM     23  C   LIG    1       -8.291  -0.744  -4.664  0.00  0.00    -0.080 A 
ATOM     24  C   LIG    1       -9.541  -1.177  -5.065  0.00  0.00    +0.030 A 
ATOM     25  C   LIG    1      -10.330  -0.370  -5.863  0.00  0.00    -0.030 A 
ATOM     26  C   LIG    1       -9.874   0.874  -6.258  0.00  0.00    +0.050 A 
ATOM     27  C   LIG    1       -8.627   1.314  -5.856  0.00  0.00    -0.120 A 
ATOM     28  C   LIG    1       -8.130   2.669  -6.287  0.00  0.00    +0.100 C 
ENDBRANCH  21  22
ENDBRANCH  20  21
ENDBRANCH  19  20
ENDBRANCH  18  19
ENDBRANCH   3  18
TORSDOF 8
