REMARK  Name = ZINCrD00000kZTgj.0
REMARK                            x       y       z     vdW  Elec       q    Type
REMARK                         _______ _______ _______ _____ _____    ______ ____
ROOT
ATOM      1  C   LIG    1       -0.729   1.579   1.267  0.00  0.00    +0.370 C 
ENDROOT
BRANCH   1   2
ATOM      2  C   LIG    1       -0.074   0.981   2.485  0.00  0.00    +0.270 A 
ATOM      3  N   LIG    1        0.099  -0.293   2.688  0.00  0.00    -0.470 NA
ATOM      4  C   LIG    1        0.722  -0.485   3.879  0.00  0.00    +0.050 A 
ATOM      5  C   LIG    1        1.143  -1.621   4.574  0.00  0.00    +0.070 A 
ATOM      6  C   LIG    1        1.754  -1.489   5.789  0.00  0.00    +0.000 A 
ATOM      7  C   LIG    1        1.962  -0.234   6.343  0.00  0.00    +0.030 A 
ATOM      8  C   LIG    1        1.554   0.901   5.676  0.00  0.00    +0.010 A 
ATOM      9  C   LIG    1        0.933   0.786   4.440  0.00  0.00    +0.050 A 
ATOM     10  N   LIG    1        0.418   1.692   3.534  0.00  0.00    -0.600 N 
ATOM     11  H   LIG    1        0.410   2.658   3.629  0.00  0.00    +0.420 HD
ENDBRANCH   1   2
BRANCH   1  13
ATOM     12  C   LIG    1       -1.547   3.799   0.682  0.00  0.00    +0.580 C 
ATOM     13  N   LIG    1       -0.645   3.040   1.336  0.00  0.00    -0.730 N 
ATOM     14  H   LIG    1        0.060   3.462   1.852  0.00  0.00    +0.390 HD
ATOM     15  O   LIG    1       -2.430   3.270   0.035  0.00  0.00    -0.510 OA
BRANCH  12  20
ATOM     16  O   LIG    1       -1.298   9.223   0.890  0.00  0.00    -0.530 OA
ATOM     17  C   LIG    1       -1.342   8.004   0.852  0.00  0.00    +0.520 A 
ATOM     18  C   LIG    1       -0.381   7.248   1.549  0.00  0.00    -0.080 A 
ATOM     19  C   LIG    1       -0.435   5.890   1.503  0.00  0.00    +0.130 A 
ATOM     20  C   LIG    1       -1.462   5.269   0.751  0.00  0.00    -0.260 A 
ATOM     21  C   LIG    1       -2.379   6.051   0.079  0.00  0.00    +0.400 A 
ATOM     22  N   LIG    1       -2.309   7.394   0.144  0.00  0.00    -0.600 N 
ATOM     23  H   LIG    1       -2.964   7.929  -0.331  0.00  0.00    +0.420 HD
ENDBRANCH  12  20
ENDBRANCH   1  13
BRANCH   1  24
ATOM     24  C   LIG    1       -0.013   1.086   0.008  0.00  0.00    +0.100 C 
BRANCH  24  25
ATOM     25  C   LIG    1       -0.742   1.585  -1.213  0.00  0.00    -0.070 A 
ATOM     26  C   LIG    1       -1.750   0.825  -1.775  0.00  0.00    +0.020 A 
ATOM     27  C   LIG    1       -2.422   1.285  -2.892  0.00  0.00    +0.010 A 
ATOM     28  C   LIG    1       -2.078   2.501  -3.453  0.00  0.00    +0.000 A 
ATOM     29  C   LIG    1       -1.066   3.259  -2.894  0.00  0.00    -0.010 A 
ATOM     30  C   LIG    1       -0.398   2.801  -1.774  0.00  0.00    +0.000 A 
ENDBRANCH  24  25
ENDBRANCH   1  24
TORSDOF 5
