REMARK  Name = ZINCpe00000R8Hq1.0
REMARK                            x       y       z     vdW  Elec       q    Type
REMARK                         _______ _______ _______ _____ _____    ______ ____
ROOT
ATOM      1  C   UNK A  1       -0.692  -2.313  -1.675  0.00  0.00    +0.260 C 
ATOM      2  N   UNK A  1        0.516  -1.530  -1.897  0.00  0.00    -0.710 N 
ATOM      3  H   UNK A  1        1.106  -1.783  -2.624  0.00  0.00    +0.410 HD
ATOM      4  C   PHE A  2        0.846  -0.477  -1.143  0.00  0.00    +0.520 C 
ATOM      5  CA  PHE A  2        0.002  -0.004   0.002  0.00  0.00    +0.250 C 
ATOM      6  N   PHE A  2       -1.363  -0.499  -0.108  0.00  0.00    -0.710 N 
ATOM      7  H   PHE A  2       -2.062  -0.047   0.391  0.00  0.00    +0.410 HD
ATOM      8  O   PHE A  2        1.871   0.120  -1.395  0.00  0.00    -0.520 OA
ATOM      9  C   UNK A  1       -1.696  -1.549  -0.866  0.00  0.00    +0.520 C 
ATOM     10  O   UNK A  1       -2.857  -1.897  -0.900  0.00  0.00    -0.520 OA
ENDROOT
BRANCH   1  11
ATOM     11  C   UNK A  1       -0.325  -3.600  -0.932  0.00  0.00    +0.180 C 
BRANCH  11  15
ATOM     12  C   UNK A  1        1.282  -5.906  -3.264  0.00  0.00    -0.060 A 
ATOM     13  C   UNK A  1        2.392  -5.306  -2.741  0.00  0.00    +0.070 A 
ATOM     14  C   UNK A  1        1.938  -4.362  -1.807  0.00  0.00    -0.050 A 
ATOM     15  C   UNK A  1        0.589  -4.434  -1.793  0.00  0.00    +0.030 A 
ATOM     16  O   UNK A  1        0.197  -5.362  -2.675  0.00  0.00    -0.140 OA
BRANCH  12  17
ATOM     17  C   UNK A  1        1.272  -6.957  -4.285  0.00  0.00    +0.550 C 
ATOM     18  O   UNK A  1        2.320  -7.370  -4.743  0.00  0.00    -0.480 OA
BRANCH  17  20
ATOM     19  C   UNK A  1        0.165  -8.505  -5.728  0.00  0.00    +0.290 C 
ATOM     20  O   UNK A  1        0.100  -7.467  -4.715  0.00  0.00    -0.350 OA
ENDBRANCH  17  20
ENDBRANCH  12  17
ENDBRANCH  11  15
ENDBRANCH   1  11
BRANCH   5  21
ATOM     21  CB  PHE A  2       -0.019   1.526   0.010  0.00  0.00    +0.120 C 
BRANCH  21  22
ATOM     22  CG  PHE A  2       -0.724   2.012   1.250  0.00  0.00    -0.090 A 
ATOM     23  CD2 PHE A  2       -2.089   2.229   1.229  0.00  0.00    +0.000 A 
ATOM     24  CE2 PHE A  2       -2.737   2.671   2.367  0.00  0.00    +0.020 A 
ATOM     25  CZ  PHE A  2       -2.018   2.904   3.525  0.00  0.00    +0.000 A 
ATOM     26  CE1 PHE A  2       -0.652   2.691   3.545  0.00  0.00    +0.010 A 
ATOM     27  CD1 PHE A  2       -0.005   2.246   2.408  0.00  0.00    +0.020 A 
ENDBRANCH  21  22
ENDBRANCH   5  21
TORSDOF 6
