REMARK  Name = ZINCpe000000XNgq.1
REMARK                            x       y       z     vdW  Elec       q    Type
REMARK                         _______ _______ _______ _____ _____    ______ ____
ROOT
ATOM      1  N   LIG    1       -0.670   3.054  -1.286  0.00  0.00    -0.730 N 
ATOM      2  H   LIG    1        0.063   3.515  -0.849  0.00  0.00    +0.400 HD
ATOM      3  C   LIG    1       -1.612   3.759  -1.944  0.00  0.00    +0.710 C 
ATOM      4  N   LIG    1       -1.536   5.103  -1.994  0.00  0.00    -0.740 N 
ATOM      5  H   LIG    1       -0.802   5.564  -1.557  0.00  0.00    +0.400 HD
ATOM      6  O   LIG    1       -2.531   3.181  -2.492  0.00  0.00    -0.590 OA
ENDROOT
BRANCH   1   7
ATOM      7  CA  LIG    1       -0.753   1.593  -1.232  0.00  0.00    +0.280 C 
BRANCH   7   8
ATOM      8  C   LIG    1       -0.013   1.086   0.008  0.00  0.00    +0.100 C 
BRANCH   8  13
ATOM      9  C   LIG    1       -2.717   2.949   4.763  0.00  0.00    +0.080 C 
ATOM     10  C   LIG    1       -2.012   2.463   3.523  0.00  0.00    -0.090 A 
ATOM     11  C   LIG    1       -1.010   3.226   2.954  0.00  0.00    +0.010 A 
ATOM     12  C   LIG    1       -0.360   2.779   1.819  0.00  0.00    +0.010 A 
ATOM     13  C   LIG    1       -0.718   1.572   1.248  0.00  0.00    -0.080 A 
ATOM     14  C   LIG    1       -1.720   0.808   1.818  0.00  0.00    +0.010 A 
ATOM     15  C   LIG    1       -2.366   1.254   2.955  0.00  0.00    -0.080 A 
ATOM     16  C   LIG    1       -3.458   0.421   3.576  0.00  0.00    +0.090 C 
ENDBRANCH   8  13
ENDBRANCH   7   8
BRANCH   7  17
ATOM     17  C   LIG    1       -0.111   0.998  -2.487  0.00  0.00    +0.170 C 
BRANCH  17  18
ATOM     18  O   LIG    1        1.286   1.297  -2.495  0.00  0.00    -0.570 OA
ATOM     19  H   LIG    1        1.758   0.950  -3.265  0.00  0.00    +0.380 HD
ENDBRANCH  17  18
ENDBRANCH   7  17
ENDBRANCH   1   7
BRANCH   4  20
ATOM     20  C   LIG    1       -2.560   5.869  -2.709  0.00  0.00    +0.430 C 
BRANCH  20  21
ATOM     21  C   LIG    1       -2.244   7.340  -2.615  0.00  0.00    +0.210 A 
ATOM     22  N   LIG    1       -1.512   8.015  -3.461  0.00  0.00    -0.290 NA
ATOM     23  N   LIG    1       -1.477   9.341  -3.000  0.00  0.00    -0.470 N 
ATOM     24  H   LIG    1       -1.014  10.088  -3.411  0.00  0.00    +0.440 HD
ATOM     25  C   LIG    1       -2.214   9.370  -1.876  0.00  0.00    +0.250 A 
ATOM     26  N   LIG    1       -2.672   8.164  -1.660  0.00  0.00    -0.520 NA
BRANCH  25  27
ATOM     27  C   LIG    1       -2.472  10.581  -1.018  0.00  0.00    +0.310 C 
ATOM     28  C   LIG    1       -3.980  10.777  -0.852  0.00  0.00    +0.050 C 
BRANCH  27  29
ATOM     29  O   LIG    1       -1.872  10.393   0.266  0.00  0.00    -0.550 OA
ATOM     30  H   LIG    1       -2.208   9.625   0.748  0.00  0.00    +0.390 HD
ENDBRANCH  27  29
ENDBRANCH  25  27
ENDBRANCH  20  21
ENDBRANCH   4  20
TORSDOF 9
