REMARK  Name = ZINCpk000000mJZp.0
REMARK                            x       y       z     vdW  Elec       q    Type
REMARK                         _______ _______ _______ _____ _____    ______ ____
ROOT
ATOM      1  C   LIG    1       -4.391   0.475   3.450  0.00  0.00    +0.270 A 
ATOM      2  C   LIG    1       -3.710  -0.636   3.932  0.00  0.00    -0.070 A 
ATOM      3  C   LIG    1       -4.332  -1.503   4.806  0.00  0.00    +0.080 A 
ATOM      4  C   LIG    1       -5.641  -1.282   5.201  0.00  0.00    -0.050 A 
ATOM      5  C   LIG    1       -6.336  -0.189   4.730  0.00  0.00    +0.090 A 
ATOM      6  C   LIG    1       -5.718   0.702   3.848  0.00  0.00    -0.210 A 
ENDROOT
BRANCH   6   7
ATOM      7  C   LIG    1       -6.455   1.873   3.340  0.00  0.00    +0.570 C 
ATOM      8  N   LIG    1       -7.104   2.685   4.197  0.00  0.00    -0.600 N 
ATOM      9  C   LIG    1       -6.991   2.486   5.649  0.00  0.00    +0.270 C 
ATOM     10  C   LIG    1       -6.546   3.808   6.291  0.00  0.00    +0.030 C 
ATOM     11  C   LIG    1       -7.518   4.918   5.883  0.00  0.00    +0.020 C 
ATOM     12  C   LIG    1       -7.491   5.089   4.363  0.00  0.00    +0.150 C 
ATOM     13  C   LIG    1       -7.942   3.784   3.699  0.00  0.00    +0.250 C 
ATOM     14  O   LIG    1       -6.478   2.106   2.147  0.00  0.00    -0.540 OA
BRANCH  12  15
ATOM     15  O   LIG    1       -8.375   6.146   3.985  0.00  0.00    -0.560 OA
ATOM     16  H   LIG    1       -8.411   6.309   3.033  0.00  0.00    +0.380 HD
ENDBRANCH  12  15
ENDBRANCH   6   7
BRANCH   1  17
ATOM     17  N   LIG    1       -3.766   1.352   2.574  0.00  0.00    -0.710 N 
ATOM     18  H   LIG    1       -4.215   2.167   2.301  0.00  0.00    +0.410 HD
BRANCH  17  22
ATOM     19  N   LIG    1       -1.685   0.636  -0.122  0.00  0.00    -0.620 N 
ATOM     20  C   LIG    1       -0.946   1.816   0.341  0.00  0.00    +0.260 C 
ATOM     21  C   LIG    1       -1.730   2.335   1.569  0.00  0.00    +0.050 C 
ATOM     22  C   LIG    1       -2.427   1.047   2.063  0.00  0.00    +0.240 C 
ATOM     23  C   LIG    1       -2.518   0.177   0.828  0.00  0.00    +0.500 C 
ATOM     24  O   LIG    1       -3.237  -0.792   0.712  0.00  0.00    -0.510 OA
BRANCH  19  25
ATOM     25  C   LIG    1       -1.531   0.032  -1.448  0.00  0.00    +0.330 C 
BRANCH  25  27
ATOM     26  C   LIG    1       -2.083   1.201  -3.519  0.00  0.00    +0.030 C 
ATOM     27  C   LIG    1       -2.510   0.662  -2.404  0.00  0.00    -0.060 C 
ENDBRANCH  25  27
ENDBRANCH  19  25
ENDBRANCH  17  22
ENDBRANCH   1  17
TORSDOF 6
