REMARK  Name = ZINCpe00000MJJ4v.0
REMARK                            x       y       z     vdW  Elec       q    Type
REMARK                         _______ _______ _______ _____ _____    ______ ____
ROOT
ATOM      1  C   LIG    1        1.245   4.889   2.624  0.00  0.00    +0.130 C 
ATOM      2  C   LIG    1       -0.021   4.031   2.797  0.00  0.00    +0.290 C 
ATOM      3  N   LIG    1       -0.253   4.807   4.034  0.00  0.00    -0.640 N 
ATOM      4  C   LIG    1       -0.921   4.577   5.182  0.00  0.00    +0.590 C 
ATOM      5  O   LIG    1       -0.857   5.378   6.093  0.00  0.00    -0.510 OA
ATOM      6  C   LIG    1        0.541   5.934   3.508  0.00  0.00    +0.310 C 
ENDROOT
BRANCH   4   7
ATOM      7  C   LIG    1       -1.731   3.347   5.332  0.00  0.00    -0.130 A 
ATOM      8  C   LIG    1       -1.928   2.479   4.253  0.00  0.00    +0.030 A 
ATOM      9  C   LIG    1       -2.691   1.343   4.438  0.00  0.00    +0.260 A 
ATOM     10  N   LIG    1       -3.231   1.071   5.610  0.00  0.00    -0.440 NA
ATOM     11  C   LIG    1       -3.072   1.859   6.653  0.00  0.00    +0.250 A 
ATOM     12  C   LIG    1       -2.317   3.017   6.561  0.00  0.00    +0.110 A 
ATOM     13  F   LIG    1       -2.154   3.818   7.637  0.00  0.00    -0.100 F 
ENDBRANCH   4   7
BRANCH   1  19
ATOM     14  C   LIG    1        2.209   4.326   0.474  0.00  0.00    +0.240 C 
ATOM     15  C   LIG    1        2.370   4.807  -0.970  0.00  0.00    +0.250 C 
ATOM     16  O   LIG    1        3.029   6.077  -0.974  0.00  0.00    -0.370 OA
ATOM     17  C   LIG    1        2.337   7.086  -0.234  0.00  0.00    +0.240 C 
ATOM     18  C   LIG    1        2.175   6.628   1.217  0.00  0.00    +0.180 C 
ATOM     19  N   LIG    1        1.471   5.338   1.243  0.00  0.00    -0.520 NA
BRANCH  14  24
ATOM     20  C   LIG    1        0.949  -0.510   0.790  0.00  0.00    +0.200 C 
ATOM     21  C   LIG    1        0.900   0.986   0.621  0.00  0.00    +0.170 A 
ATOM     22  N   LIG    1       -0.158   1.697   0.367  0.00  0.00    -0.380 NA
ATOM     23  O   LIG    1        0.133   2.872   0.293  0.00  0.00    +0.090 OA
ATOM     24  C   LIG    1        1.446   3.026   0.490  0.00  0.00    +0.180 A 
ATOM     25  N   LIG    1        1.943   1.831   0.700  0.00  0.00    -0.470 NA
ENDBRANCH  14  24
ENDBRANCH   1  19
TORSDOF 3
