REMARK  Name = ZINCrH000004q2JV.0
REMARK                            x       y       z     vdW  Elec       q    Type
REMARK                         _______ _______ _______ _____ _____    ______ ____
ROOT
ATOM      1  N   LIG    1        0.305   5.336  -0.237  0.00  0.00    -0.690 N 
ATOM      2  H   LIG    1       -0.598   5.691  -0.222  0.00  0.00    +0.410 HD
ATOM      3  C   LIG    1        1.355   6.154  -0.024  0.00  0.00    +0.710 C 
ATOM      4  N   LIG    1        1.148   7.457   0.252  0.00  0.00    -0.620 N 
ATOM      5  O   LIG    1        2.488   5.717  -0.080  0.00  0.00    -0.560 OA
ENDROOT
BRANCH   1  10
ATOM      6  C   LIG    1       -0.166   1.689  -0.239  0.00  0.00    -0.440 A 
ATOM      7  C   LIG    1        0.938   1.283  -0.965  0.00  0.00    +0.080 A 
ATOM      8  C   LIG    1        1.830   2.219  -1.455  0.00  0.00    +0.010 A 
ATOM      9  C   LIG    1        1.623   3.563  -1.215  0.00  0.00    +0.060 A 
ATOM     10  C   LIG    1        0.518   3.974  -0.481  0.00  0.00    +0.150 A 
ATOM     11  C   LIG    1       -0.376   3.032   0.009  0.00  0.00    +0.050 A 
BRANCH   6  13
ATOM     12  C   LIG    1       -0.629   0.093   2.013  0.00  0.00    -0.200 C 
ATOM     13  S   LIG    1       -1.303   0.492   0.378  0.00  0.00    +1.340 S 
ATOM     14  O   LIG    1       -2.502   1.239   0.529  0.00  0.00    -0.860 OA
ENDBRANCH   6  13
ENDBRANCH   1  10
BRANCH   4  15
ATOM     15  C   LIG    1       -0.218   7.976   0.355  0.00  0.00    +0.250 C 
BRANCH  15  16
ATOM     16  C   LIG    1       -0.646   7.998   1.824  0.00  0.00    +0.110 C 
ATOM     17  C   LIG    1       -0.614   6.569   2.404  0.00  0.00    -0.010 C 
ATOM     18  C   LIG    1       -1.835   6.519   3.357  0.00  0.00    +0.020 C 
ATOM     19  C   LIG    1       -2.901   7.340   2.590  0.00  0.00    +0.010 C 
ATOM     20  C   LIG    1       -2.100   8.488   1.942  0.00  0.00    +0.050 C 
BRANCH  16  21
ATOM     21  O   LIG    1        0.221   8.851   2.574  0.00  0.00    -0.550 OA
ATOM     22  H   LIG    1        1.151   8.587   2.547  0.00  0.00    +0.370 HD
ENDBRANCH  16  21
ENDBRANCH  15  16
ENDBRANCH   4  15
BRANCH   4  23
ATOM     23  C   LIG    1        2.289   8.354   0.448  0.00  0.00    +0.350 C 
BRANCH  23  24
ATOM     24  C   LIG    1        2.688   8.957  -0.874  0.00  0.00    -0.110 A 
ATOM     25  C   LIG    1        3.625   8.323  -1.668  0.00  0.00    +0.040 A 
ATOM     26  C   LIG    1        3.987   8.874  -2.884  0.00  0.00    +0.000 A 
ATOM     27  C   LIG    1        3.420  10.063  -3.300  0.00  0.00    +0.010 A 
ATOM     28  C   LIG    1        2.486  10.700  -2.504  0.00  0.00    +0.000 A 
ATOM     29  C   LIG    1        2.120  10.147  -1.291  0.00  0.00    +0.010 A 
ENDBRANCH  23  24
ENDBRANCH   4  23
TORSDOF 7
