REMARK  Name = ZINCnE000001QKOy.0
REMARK                            x       y       z     vdW  Elec       q    Type
REMARK                         _______ _______ _______ _____ _____    ______ ____
ROOT
ATOM      1  C   LIG    1       -0.014   1.213   0.009  0.00  0.00    +0.610 C 
ATOM      2  N   LIG    1        1.143   1.902   0.001  0.00  0.00    -0.610 N 
ATOM      3  C   LIG    1        1.268   3.367   0.002  0.00  0.00    +0.230 C 
ATOM      4  C   LIG    1        2.775   3.699  -0.033  0.00  0.00    +0.050 C 
ATOM      5  C   LIG    1        3.399   2.410  -0.630  0.00  0.00    -0.020 C 
ATOM      6  C   LIG    1        2.495   1.313  -0.015  0.00  0.00    +0.270 C 
ATOM      7  O   LIG    1        0.002  -0.004   0.002  0.00  0.00    -0.520 OA
ENDROOT
BRANCH   1  10
ATOM      8  C   LIG    1       -2.744  -0.128   0.002  0.00  0.00    +0.160 C 
ATOM      9  C   LIG    1       -2.528   1.363   0.016  0.00  0.00    +0.150 A 
ATOM     10  C   LIG    1       -1.295   1.929   0.019  0.00  0.00    -0.300 A 
ATOM     11  S   LIG    1       -1.506   3.678   0.029  0.00  0.00    +0.170 S 
ATOM     12  C   LIG    1       -3.205   3.482   0.035  0.00  0.00    +0.060 A 
ATOM     13  N   LIG    1       -3.513   2.225   0.030  0.00  0.00    -0.470 NA
BRANCH  12  14
ATOM     14  C   LIG    1       -4.201   4.612   0.045  0.00  0.00    +0.070 C 
ATOM     15  C   LIG    1       -5.135   4.482   1.267  0.00  0.00    +0.040 C 
ATOM     16  C   LIG    1       -6.516   4.942   0.739  0.00  0.00    +0.020 C 
ATOM     17  C   LIG    1       -6.544   4.363  -0.697  0.00  0.00    +0.020 C 
ATOM     18  C   LIG    1       -5.098   4.536  -1.203  0.00  0.00    +0.030 C 
ENDBRANCH  12  14
ENDBRANCH   1  10
BRANCH   5  19
ATOM     19  C   LIG    1        4.850   2.242  -0.177  0.00  0.00    +0.050 C 
BRANCH  19  20
ATOM     20  C   LIG    1        5.419   0.946  -0.758  0.00  0.00    -0.070 C 
BRANCH  20  21
ATOM     21  C   LIG    1        6.849   0.781  -0.312  0.00  0.00    +0.490 C 
ATOM     22  O   LIG    1        7.490  -0.194  -0.667  0.00  0.00    -0.710 OA
ATOM     23  O   LIG    1        7.365   1.622   0.404  0.00  0.00    -0.700 OA
ENDBRANCH  20  21
ENDBRANCH  19  20
ENDBRANCH   5  19
TORSDOF 5
