REMARK  Name = ZINCrH000004oNJW.0
REMARK                            x       y       z     vdW  Elec       q    Type
REMARK                         _______ _______ _______ _____ _____    ______ ____
ROOT
ATOM      1  N   LIG    1        1.089   1.710  -0.618  0.00  0.00    -0.740 N 
ATOM      2  H   LIG    1        1.111   2.668  -0.465  0.00  0.00    +0.390 HD
ATOM      3  C   LIG    1       -0.079   1.042  -0.544  0.00  0.00    +0.700 C 
ATOM      4  N   LIG    1       -1.201   1.686  -0.165  0.00  0.00    -0.620 N 
ATOM      5  C   LIG    1       -1.195   3.140   0.044  0.00  0.00    +0.260 C 
ATOM      6  C   LIG    1       -2.312   3.764  -0.797  0.00  0.00    +0.010 C 
ATOM      7  C   LIG    1       -3.641   3.086  -0.457  0.00  0.00    +0.020 C 
ATOM      8  C   LIG    1       -3.557   1.596  -0.795  0.00  0.00    +0.010 C 
ATOM      9  C   LIG    1       -2.455   0.948   0.041  0.00  0.00    +0.260 C 
ATOM     10  O   LIG    1       -0.122  -0.140  -0.825  0.00  0.00    -0.570 OA
ENDROOT
BRANCH   9  11
ATOM     11  C   LIG    1       -2.271  -0.507  -0.395  0.00  0.00    +0.040 C 
ATOM     12  C   LIG    1       -3.622  -1.255  -0.408  0.00  0.00    +0.250 C 
ATOM     13  N   LIG    1       -3.320  -2.618   0.046  0.00  0.00    -0.740 N 
ATOM     14  H   LIG    1       -3.908  -3.379  -0.079  0.00  0.00    +0.410 HD
ATOM     15  C   LIG    1       -2.124  -2.674   0.657  0.00  0.00    +0.520 C 
ATOM     16  O   LIG    1       -1.635  -3.676   1.134  0.00  0.00    -0.540 OA
ATOM     17  C   LIG    1       -1.478  -1.306   0.665  0.00  0.00    +0.080 C 
ENDBRANCH   9  11
BRANCH   1  18
ATOM     18  C   LIG    1        2.326   0.990  -0.930  0.00  0.00    +0.340 C 
BRANCH  18  19
ATOM     19  C   LIG    1        3.493   1.696  -0.290  0.00  0.00    -0.090 A 
ATOM     20  C   LIG    1        3.680   3.050  -0.496  0.00  0.00    +0.040 A 
ATOM     21  C   LIG    1        4.747   3.699   0.095  0.00  0.00    +0.030 A 
ATOM     22  C   LIG    1        5.636   2.990   0.884  0.00  0.00    -0.030 A 
ATOM     23  C   LIG    1        5.452   1.634   1.086  0.00  0.00    +0.030 A 
ATOM     24 CL   LIG    1        6.982   3.803   1.621  0.00  0.00    -0.070 Cl
ATOM     25  C   LIG    1        4.380   0.987   0.499  0.00  0.00    +0.050 A 
ENDBRANCH  18  19
BRANCH  18  29
ATOM     26  C   LIG    1        4.532  -0.657  -1.970  0.00  0.00    +0.050 C 
ATOM     27  C   LIG    1        3.671   0.094  -2.987  0.00  0.00    -0.040 C 
ATOM     28  C   LIG    1        3.777   1.620  -3.014  0.00  0.00    +0.010 C 
ATOM     29  C   LIG    1        2.524   0.950  -2.447  0.00  0.00    -0.050 C 
ENDBRANCH  18  29
ENDBRANCH   1  18
TORSDOF 4
