REMARK  Name = ZINCvU00000009rx.0
REMARK                            x       y       z     vdW  Elec       q    Type
REMARK                         _______ _______ _______ _____ _____    ______ ____
ROOT
ATOM      1  C   LIG    1       -5.107   1.521   0.550  0.00  0.00    +0.360 C 
ATOM      2  C   LIG    1       -3.682   1.865   0.268  0.00  0.00    -0.230 A 
ATOM      3  C   LIG    1       -3.577   3.227   0.253  0.00  0.00    +0.090 A 
ATOM      4  C   LIG    1       -4.908   3.796   0.526  0.00  0.00    +0.580 C 
ATOM      5  O   LIG    1       -5.158   4.983   0.586  0.00  0.00    -0.460 OA
ATOM      6  O   LIG    1       -2.414   3.864   0.025  0.00  0.00    -0.170 OA
ATOM      7  C   LIG    1       -1.256   3.165   0.024  0.00  0.00    +0.160 A 
ATOM      8  C   LIG    1       -0.046   3.860   0.019  0.00  0.00    +0.030 A 
ATOM      9  C   LIG    1        1.147   3.174   0.007  0.00  0.00    +0.130 A 
ATOM     10  C   LIG    1        1.169   1.785   0.001  0.00  0.00    -0.120 A 
ATOM     11  C   LIG    1       -0.013   1.076   0.008  0.00  0.00    +0.160 A 
ATOM     12 BR   LIG    1        2.822   0.867  -0.020  0.00  0.00    -0.020 Br
ATOM     13  C   LIG    1       -1.227   1.761   0.017  0.00  0.00    -0.210 A 
ATOM     14  C   LIG    1       -2.511   1.014   0.032  0.00  0.00    +0.460 A 
ATOM     15  O   LIG    1       -2.584  -0.191  -0.134  0.00  0.00    -0.420 OA
ATOM     16  N   LIG    1       -5.808   2.807   0.701  0.00  0.00    -0.510 N 
ENDROOT
BRANCH   1  21
ATOM     17  C   LIG    1       -5.431  -1.386   2.943  0.00  0.00    +0.140 A 
ATOM     18  C   LIG    1       -5.389  -0.738   4.169  0.00  0.00    -0.070 A 
ATOM     19  C   LIG    1       -5.255   0.636   4.219  0.00  0.00    +0.050 A 
ATOM     20  C   LIG    1       -5.159   1.365   3.048  0.00  0.00    -0.030 A 
ATOM     21  C   LIG    1       -5.207   0.723   1.825  0.00  0.00    -0.060 A 
ATOM     22  C   LIG    1       -5.340  -0.651   1.770  0.00  0.00    +0.030 A 
BRANCH  17  23
ATOM     23  O   LIG    1       -5.562  -2.737   2.892  0.00  0.00    -0.310 OA
BRANCH  23  25
ATOM     24  C   LIG    1       -5.792  -4.930   3.881  0.00  0.00    +0.070 C 
ATOM     25  C   LIG    1       -5.650  -3.429   4.139  0.00  0.00    +0.170 C 
ENDBRANCH  23  25
ENDBRANCH  17  23
ENDBRANCH   1  21
BRANCH  16  26
ATOM     26  C   LIG    1       -7.164   2.973   0.975  0.00  0.00    +0.270 A 
ATOM     27  N   LIG    1       -8.034   2.031   1.232  0.00  0.00    -0.360 NA
ATOM     28  O   LIG    1       -9.135   2.489   1.433  0.00  0.00    +0.110 OA
ATOM     29  C   LIG    1       -9.145   3.826   1.325  0.00  0.00    -0.010 A 
ATOM     30  C   LIG    1      -10.334   4.735   1.503  0.00  0.00    +0.200 C 
ATOM     31  C   LIG    1       -7.880   4.199   1.026  0.00  0.00    -0.050 A 
ENDBRANCH  16  26
TORSDOF 4
