REMARK  Name = ZINCrD00000F5LFF.0
REMARK                            x       y       z     vdW  Elec       q    Type
REMARK                         _______ _______ _______ _____ _____    ______ ____
ROOT
ATOM      1  N   LIG    1       -2.844   1.570   0.073  0.00  0.00    -0.670 N 
ATOM      2  H   LIG    1       -2.398   1.340  -0.757  0.00  0.00    +0.410 HD
ATOM      3  C   LIG    1       -4.186   1.693   0.106  0.00  0.00    +0.710 C 
ATOM      4  N   LIG    1       -4.918   1.381  -0.982  0.00  0.00    -0.600 N 
ATOM      5  O   LIG    1       -4.736   2.084   1.117  0.00  0.00    -0.560 OA
ENDROOT
BRANCH   1  12
ATOM      6  C   LIG    1       -0.083   2.328  -0.169  0.00  0.00    +0.150 C 
ATOM      7  C   LIG    1       -0.753   2.144   1.168  0.00  0.00    +0.040 A 
ATOM      8  N   LIG    1       -0.073   2.336   2.281  0.00  0.00    -0.220 NA
ATOM      9  N   LIG    1       -0.603   2.191   3.440  0.00  0.00    -0.260 NA
ATOM     10  C   LIG    1       -1.865   1.839   3.602  0.00  0.00    +0.240 A 
ATOM     11  C   LIG    1       -2.666   1.613   2.497  0.00  0.00    +0.030 A 
ATOM     12  C   LIG    1       -2.096   1.775   1.233  0.00  0.00    +0.170 A 
ENDBRANCH   1  12
BRANCH   4  13
ATOM     13  C   LIG    1       -4.255   0.909  -2.200  0.00  0.00    +0.300 C 
BRANCH  13  14
ATOM     14  C   LIG    1       -4.138  -0.616  -2.159  0.00  0.00    +0.140 C 
ATOM     15  C   LIG    1       -3.336  -1.098  -3.369  0.00  0.00    +0.020 C 
BRANCH  14  16
ATOM     16  O   LIG    1       -5.443  -1.195  -2.190  0.00  0.00    -0.560 OA
ATOM     17  H   LIG    1       -5.445  -2.162  -2.166  0.00  0.00    +0.380 HD
ENDBRANCH  14  16
ENDBRANCH  13  14
ENDBRANCH   4  13
BRANCH   4  18
ATOM     18  C   LIG    1       -6.377   1.514  -0.945  0.00  0.00    +0.370 C 
BRANCH  18  19
ATOM     19  C   LIG    1       -6.766   2.900  -1.392  0.00  0.00    -0.110 A 
ATOM     20  C   LIG    1       -6.887   3.917  -0.463  0.00  0.00    +0.050 A 
ATOM     21  C   LIG    1       -7.240   5.189  -0.873  0.00  0.00    +0.010 A 
ATOM     22  C   LIG    1       -7.480   5.442  -2.210  0.00  0.00    +0.040 A 
ATOM     23  C   LIG    1       -7.364   4.425  -3.138  0.00  0.00    -0.110 A 
ATOM     24  C   LIG    1       -7.007   3.154  -2.729  0.00  0.00    +0.040 A 
BRANCH  23  25
ATOM     25  C   LIG    1       -7.626   4.701  -4.596  0.00  0.00    +0.120 C 
BRANCH  25  26
ATOM     26  C   LIG    1       -9.107   4.464  -4.902  0.00  0.00    +0.450 C 
ATOM     27  F   LIG    1       -9.436   3.136  -4.612  0.00  0.00    -0.180 F 
ATOM     28  F   LIG    1       -9.351   4.721  -6.255  0.00  0.00    -0.180 F 
ATOM     29  F   LIG    1       -9.887   5.320  -4.117  0.00  0.00    -0.180 F 
ENDBRANCH  25  26
ENDBRANCH  23  25
ENDBRANCH  18  19
ENDBRANCH   4  18
TORSDOF 8
