REMARK  Name = ZINCpk00001AZivc.1
REMARK                            x       y       z     vdW  Elec       q    Type
REMARK                         _______ _______ _______ _____ _____    ______ ____
ROOT
ATOM      1  C   LIG    1       -2.549  -5.569  -0.243  0.00  0.00    +0.310 C 
ENDROOT
BRANCH   1   6
ATOM      2  C   LIG    1       -4.091  -6.708  -1.868  0.00  0.00    +0.100 C 
ATOM      3  C   LIG    1       -3.553  -7.866  -2.742  0.00  0.00    +0.020 C 
ATOM      4  C   LIG    1       -2.332  -7.209  -3.435  0.00  0.00    +0.220 C 
ATOM      5  O   LIG    1       -1.780  -6.357  -2.409  0.00  0.00    -0.370 OA
ATOM      6  C   LIG    1       -2.890  -5.754  -1.723  0.00  0.00    +0.160 C 
BRANCH   2  11
ATOM      7  C   LIG    1       -4.481  -9.409   2.383  0.00  0.00    +0.200 C 
ATOM      8  C   LIG    1       -4.690  -8.380   1.303  0.00  0.00    +0.180 A 
ATOM      9  N   LIG    1       -5.566  -7.412   1.315  0.00  0.00    -0.290 NA
ATOM     10  N   LIG    1       -5.463  -6.721   0.236  0.00  0.00    -0.280 NA
ATOM     11  C   LIG    1       -4.523  -7.222  -0.519  0.00  0.00    +0.180 A 
ATOM     12  N   LIG    1       -4.003  -8.287   0.139  0.00  0.00    -0.580 N 
ATOM     13  H   LIG    1       -3.285  -8.865  -0.163  0.00  0.00    +0.430 HD
ENDBRANCH   2  11
ENDBRANCH   1   6
BRANCH   1  14
ATOM     14  N   LIG    1       -1.473  -4.583  -0.109  0.00  0.00    -0.600 N 
ATOM     15  C   LIG    1       -1.771  -3.275   0.028  0.00  0.00    +0.570 C 
ATOM     16  O   LIG    1       -2.931  -2.923   0.126  0.00  0.00    -0.510 OA
ATOM     17  C   LIG    1       -0.075  -5.018  -0.125  0.00  0.00    +0.290 C 
BRANCH  15  18
ATOM     18  C   LIG    1       -0.690  -2.272   0.060  0.00  0.00    -0.130 A 
ATOM     19  C   LIG    1        0.018  -2.065   1.206  0.00  0.00    +0.260 A 
ATOM     20  N   LIG    1        1.019  -1.139   1.243  0.00  0.00    -0.380 N 
ATOM     21  C   LIG    1        1.864  -0.740   2.230  0.00  0.00    +0.370 A 
ATOM     22  N   LIG    1        2.658   0.190   1.767  0.00  0.00    -0.450 NA
ATOM     23  C   LIG    1        2.373   0.435   0.486  0.00  0.00    +0.170 A 
ATOM     24  C   LIG    1        1.334  -0.396   0.123  0.00  0.00    -0.000 A 
ATOM     25  C   LIG    1        0.625  -0.578  -1.085  0.00  0.00    +0.080 A 
ATOM     26  C   LIG    1       -0.372  -1.494  -1.140  0.00  0.00    +0.040 A 
ENDBRANCH  15  18
ENDBRANCH   1  14
TORSDOF 4
