REMARK  Name = ZINCpk00000y6voB.0
REMARK                            x       y       z     vdW  Elec       q    Type
REMARK                         _______ _______ _______ _____ _____    ______ ____
ROOT
ATOM      1  C   LIG    1        1.284  -0.635  -0.013  0.00  0.00    +0.150 C 
ATOM      2  C   LIG    1        1.719  -0.970  -1.463  0.00  0.00    +0.200 C 
ATOM      3  O   LIG    1        2.642  -2.067  -1.293  0.00  0.00    -0.360 OA
ATOM      4  C   LIG    1        2.098  -2.918  -0.270  0.00  0.00    +0.210 C 
ATOM      5  C   LIG    1        1.217  -2.038   0.638  0.00  0.00    +0.240 C 
ENDROOT
BRANCH   5   6
ATOM      6  N   LIG    1       -0.162  -2.533   0.649  0.00  0.00    -0.710 N 
ATOM      7  H   LIG    1       -0.800  -2.206  -0.005  0.00  0.00    +0.410 HD
ATOM      8  C   LIG    1       -0.545  -3.442   1.568  0.00  0.00    +0.520 C 
ATOM      9  O   LIG    1        0.252  -3.850   2.385  0.00  0.00    -0.540 OA
BRANCH   8  10
ATOM     10  C   LIG    1       -1.964  -3.951   1.579  0.00  0.00    +0.070 C 
BRANCH  10  11
ATOM     11  C   LIG    1       -2.133  -4.965   2.712  0.00  0.00    +0.160 C 
BRANCH  11  12
ATOM     12  C   LIG    1       -3.551  -5.474   2.723  0.00  0.00    -0.200 A 
ATOM     13  C   LIG    1       -4.059  -6.543   2.065  0.00  0.00    -0.030 A 
ATOM     14  O   LIG    1       -5.360  -6.601   2.381  0.00  0.00    +0.100 OA
ATOM     15  N   LIG    1       -5.674  -5.708   3.134  0.00  0.00    -0.370 NA
ATOM     16  C   LIG    1       -3.309  -7.483   1.156  0.00  0.00    +0.190 C 
ATOM     17  C   LIG    1       -4.659  -4.949   3.427  0.00  0.00    +0.020 A 
ATOM     18  C   LIG    1       -4.663  -3.746   4.335  0.00  0.00    +0.160 C 
ENDBRANCH  11  12
ENDBRANCH  10  11
ENDBRANCH   8  10
ENDBRANCH   5   6
BRANCH   1  19
ATOM     19  O   LIG    1        0.002  -0.004   0.002  0.00  0.00    -0.290 OA
BRANCH  19  22
ATOM     20  N   LIG    1       -0.710   3.436   0.027  0.00  0.00    -0.360 N 
ATOM     21  C   LIG    1       -1.123   2.141   0.018  0.00  0.00    +0.210 A 
ATOM     22  C   LIG    1       -0.016   1.358   0.009  0.00  0.00    -0.030 A 
ATOM     23  C   LIG    1        1.105   2.198   0.003  0.00  0.00    +0.170 A 
ATOM     24  N   LIG    1        0.691   3.439   0.014  0.00  0.00    -0.260 NA
BRANCH  20  26
ATOM     25  C   LIG    1       -1.198   5.511   1.226  0.00  0.00    +0.040 C 
ATOM     26  C   LIG    1       -1.576   4.617   0.043  0.00  0.00    +0.320 C 
ENDBRANCH  20  26
ENDBRANCH  19  22
ENDBRANCH   1  19
TORSDOF 7
