REMARK  Name = ZINCpk000000nPEf.0
REMARK                            x       y       z     vdW  Elec       q    Type
REMARK                         _______ _______ _______ _____ _____    ______ ____
ROOT
ATOM      1  N   LIG    1       -0.011   0.966   0.007  0.00  0.00    -1.120 NA
ATOM      2  H   LIG    1        0.002  -0.004   0.002  0.00  0.00    +0.420 HD
ENDROOT
BRANCH   1   3
ATOM      3  S   LIG    1        1.412   1.813  -0.002  0.00  0.00    +2.700 S 
ATOM      4  O   LIG    1        1.285   2.800  -1.017  0.00  0.00    -0.950 OA
ATOM      5  O   LIG    1        2.454   0.848   0.018  0.00  0.00    -0.950 OA
BRANCH   3   9
ATOM      6  C   LIG    1        1.666   4.048   3.927  0.00  0.00    -0.020 A 
ATOM      7  C   LIG    1        2.187   2.772   3.823  0.00  0.00    -0.010 A 
ATOM      8  C   LIG    1        2.109   2.089   2.623  0.00  0.00    +0.130 A 
ATOM      9  C   LIG    1        1.510   2.683   1.528  0.00  0.00    -0.690 A 
ATOM     10  C   LIG    1        0.994   3.961   1.630  0.00  0.00    +0.120 A 
ATOM     11  C   LIG    1        1.068   4.642   2.831  0.00  0.00    -0.010 A 
BRANCH   6  13
ATOM     12  C   LIG    1        2.543   6.084   5.037  0.00  0.00    +0.030 C 
ATOM     13  C   LIG    1        1.749   4.792   5.235  0.00  0.00    +0.010 C 
ATOM     14  C   LIG    1        0.338   5.129   5.721  0.00  0.00    +0.030 C 
ENDBRANCH   6  13
ENDBRANCH   3   9
ENDBRANCH   1   3
BRANCH   1  15
ATOM     15  C   LIG    1       -1.290   1.681   0.017  0.00  0.00    +0.280 C 
BRANCH  15  16
ATOM     16  C   LIG    1       -2.417   0.716  -0.356  0.00  0.00    +0.010 C 
ATOM     17  C   LIG    1       -2.269   0.251  -1.828  0.00  0.00    +0.040 C 
ATOM     18  C   LIG    1       -3.717  -0.150  -2.210  0.00  0.00    +0.040 C 
ATOM     19  C   LIG    1       -4.601   0.898  -1.498  0.00  0.00    +0.060 C 
ATOM     20  C   LIG    1       -3.772   1.435  -0.328  0.00  0.00    +0.120 C 
ATOM     21  N   LIG    1       -3.602   2.887  -0.415  0.00  0.00    -0.720 N 
ATOM     22  H   LIG    1       -3.184   3.382  -1.137  0.00  0.00    +0.440 HD
ATOM     23  C   LIG    1       -4.143   3.397   0.709  0.00  0.00    +0.700 C 
ATOM     24  N   LIG    1       -4.642   2.449   1.512  0.00  0.00    -0.680 N 
ATOM     25  H   LIG    1       -5.070   2.625   2.364  0.00  0.00    +0.430 HD
ATOM     26  O   LIG    1       -4.174   4.585   0.966  0.00  0.00    -0.530 OA
ATOM     27  C   LIG    1       -4.475   1.216   0.987  0.00  0.00    +0.540 C 
ATOM     28  O   LIG    1       -4.817   0.158   1.470  0.00  0.00    -0.450 OA
ENDBRANCH  15  16
ENDBRANCH   1  15
TORSDOF 5
