REMARK  Name = ZINCrg00000SjSs1.0
REMARK                            x       y       z     vdW  Elec       q    Type
REMARK                         _______ _______ _______ _____ _____    ______ ____
ROOT
ATOM      1  N   LIG    1        5.453   1.490   4.258  0.00  0.00    -0.550 N 
ATOM      2  C   LIG    1        4.225   1.822   4.709  0.00  0.00    +0.600 A 
ATOM      3  C   LIG    1        3.124   1.735   3.835  0.00  0.00    -0.140 A 
ATOM      4  C   LIG    1        3.328   1.308   2.527  0.00  0.00    +0.340 A 
ATOM      5  N   LIG    1        4.613   0.981   2.124  0.00  0.00    -0.510 N 
ATOM      6  C   LIG    1        4.857   0.528   0.752  0.00  0.00    +0.350 C 
ATOM      7  N   LIG    1        2.143   1.314   1.916  0.00  0.00    -0.500 NA
ATOM      8  C   LIG    1        1.211   1.716   2.752  0.00  0.00    +0.530 A 
ATOM      9  N   LIG    1        1.769   1.994   3.952  0.00  0.00    -0.390 N 
ATOM     10  O   LIG    1        4.071   2.194   5.859  0.00  0.00    -0.490 OA
ATOM     11  C   LIG    1        5.638   1.078   2.992  0.00  0.00    +0.710 A 
ATOM     12  O   LIG    1        6.759   0.787   2.621  0.00  0.00    -0.530 OA
ENDROOT
BRANCH   8  13
ATOM     13  N   LIG    1       -0.139   1.841   2.449  0.00  0.00    -0.310 N 
ATOM     14  N   LIG    1       -1.146   2.266   3.324  0.00  0.00    -0.280 NA
ATOM     15  C   LIG    1       -2.283   2.254   2.678  0.00  0.00    +0.100 A 
ATOM     16  C   LIG    1       -2.041   1.825   1.367  0.00  0.00    -0.090 A 
ATOM     17  C   LIG    1       -3.624   2.640   3.246  0.00  0.00    +0.180 C 
ATOM     18  C   LIG    1       -0.718   1.572   1.248  0.00  0.00    +0.130 A 
ATOM     19  C   LIG    1       -0.013   1.086   0.008  0.00  0.00    +0.180 C 
ENDBRANCH   8  13
BRANCH   1  20
ATOM     20  C   LIG    1        6.602   1.579   5.163  0.00  0.00    +0.350 C 
BRANCH  20  21
ATOM     21  C   LIG    1        7.220   2.975   5.066  0.00  0.00    +0.170 C 
BRANCH  21  23
ATOM     22  C   LIG    1        6.767   5.288   5.498  0.00  0.00    +0.200 C 
ATOM     23  O   LIG    1        6.286   3.944   5.545  0.00  0.00    -0.380 OA
ENDBRANCH  21  23
ENDBRANCH  20  21
ENDBRANCH   1  20
BRANCH   9  24
ATOM     24  C   LIG    1        1.073   2.474   5.149  0.00  0.00    +0.330 C 
BRANCH  24  25
ATOM     25  C   LIG    1        0.611   1.278   5.984  0.00  0.00    -0.030 C 
ATOM     26  C   LIG    1       -0.434   0.482   5.200  0.00  0.00    +0.020 C 
ATOM     27  C   LIG    1       -0.005   1.777   7.292  0.00  0.00    +0.040 C 
ENDBRANCH  24  25
ENDBRANCH   9  24
TORSDOF 6
