REMARK  Name = ZINCvU000000058C.0
REMARK                            x       y       z     vdW  Elec       q    Type
REMARK                         _______ _______ _______ _____ _____    ______ ____
ROOT
ATOM      1  C   LIG    1       -3.494   2.646   0.043  0.00  0.00    -0.290 A 
ATOM      2  C   LIG    1       -2.509   3.559   0.040  0.00  0.00    +0.070 A 
ATOM      3  C   LIG    1       -1.223   3.015   0.015  0.00  0.00    -0.240 A 
ATOM      4  C   LIG    1       -1.220   1.625  -0.006  0.00  0.00    +0.060 A 
ATOM      5  N   LIG    1       -0.012   0.965  -0.025  0.00  0.00    -0.590 N 
ATOM      6  H   LIG    1        0.001  -0.004  -0.037  0.00  0.00    +0.430 HD
ATOM      7  C   LIG    1        1.149   1.640  -0.034  0.00  0.00    +0.460 A 
ATOM      8  N   LIG    1        1.207   2.942  -0.020  0.00  0.00    -0.560 NA
ATOM      9  C   LIG    1        0.094   3.693   0.005  0.00  0.00    +0.550 A 
ATOM     10  O   LIG    1        0.166   4.911   0.017  0.00  0.00    -0.460 OA
ATOM     11  C   LIG    1       -2.769   5.043   0.060  0.00  0.00    +0.160 C 
ATOM     12  S   LIG    1       -2.819   1.026   0.015  0.00  0.00    +0.260 S 
ENDROOT
BRANCH   1  15
ATOM     13  N   LIG    1       -5.833   1.960   0.068  0.00  0.00    -0.670 N 
ATOM     14  H   LIG    1       -5.541   1.039  -0.014  0.00  0.00    +0.410 HD
ATOM     15  C   LIG    1       -4.926   2.957   0.067  0.00  0.00    +0.600 C 
ATOM     16  O   LIG    1       -5.297   4.116   0.086  0.00  0.00    -0.490 OA
BRANCH  13  21
ATOM     17  C   LIG    1      -11.358   3.149   0.554  0.00  0.00    +0.090 C 
ATOM     18  C   LIG    1       -9.890   2.833   0.425  0.00  0.00    -0.100 A 
ATOM     19  C   LIG    1       -9.059   3.691  -0.272  0.00  0.00    +0.030 A 
ATOM     20  C   LIG    1       -7.713   3.404  -0.392  0.00  0.00    +0.030 A 
ATOM     21  C   LIG    1       -7.195   2.253   0.188  0.00  0.00    +0.130 A 
ATOM     22  C   LIG    1       -8.034   1.392   0.883  0.00  0.00    -0.010 A 
ATOM     23  C   LIG    1       -9.378   1.687   1.004  0.00  0.00    +0.030 A 
ENDBRANCH  13  21
ENDBRANCH   1  15
BRANCH   7  24
ATOM     24  C   LIG    1        2.438   0.860  -0.061  0.00  0.00    +0.150 C 
BRANCH  24  25
ATOM     25  S   LIG    1        3.841   2.010  -0.067  0.00  0.00    +0.020 S 
BRANCH  25  26
ATOM     26  C   LIG    1        5.236   0.933  -0.099  0.00  0.00    -0.110 A 
ATOM     27  C   LIG    1        5.052  -0.444  -0.106  0.00  0.00    -0.020 A 
ATOM     28  C   LIG    1        6.148  -1.284  -0.135  0.00  0.00    -0.070 A 
ATOM     29  C   LIG    1        7.426  -0.757  -0.148  0.00  0.00    +0.000 A 
ATOM     30  C   LIG    1        7.612   0.614  -0.135  0.00  0.00    +0.030 A 
ATOM     31  C   LIG    1        5.950  -2.778  -0.148  0.00  0.00    +0.080 C 
ATOM     32  C   LIG    1        6.522   1.460  -0.111  0.00  0.00    -0.070 A 
ATOM     33  C   LIG    1        6.726   2.953  -0.096  0.00  0.00    +0.100 C 
ENDBRANCH  25  26
ENDBRANCH  24  25
ENDBRANCH   7  24
TORSDOF 5
