REMARK  Name = ZINCrH00000No4Bs.0
REMARK                            x       y       z     vdW  Elec       q    Type
REMARK                         _______ _______ _______ _____ _____    ______ ____
ROOT
ATOM      1  N   LIG    1       -2.014  -0.994   1.378  0.00  0.00    -0.980 NA
ENDROOT
BRANCH   1   2
ATOM      2  C   LIG    1       -1.354  -1.898   2.323  0.00  0.00    +0.300 C 
ATOM      3  C   LIG    1       -1.099  -3.269   1.662  0.00  0.00    +0.060 C 
ATOM      4  C   LIG    1        0.242  -3.697   2.296  0.00  0.00    -0.020 C 
ATOM      5  C   LIG    1        0.935  -2.404   2.669  0.00  0.00    -0.070 A 
ATOM      6  C   LIG    1        2.262  -2.153   2.971  0.00  0.00    +0.010 A 
ATOM      7  C   LIG    1        2.673  -0.872   3.287  0.00  0.00    +0.010 A 
ATOM      8  C   LIG    1        1.756   0.162   3.303  0.00  0.00    +0.000 A 
ATOM      9  C   LIG    1        0.430  -0.087   3.002  0.00  0.00    +0.030 A 
ATOM     10  C   LIG    1       -0.006  -4.546   3.545  0.00  0.00    +0.040 C 
ATOM     11  C   LIG    1        1.083  -4.478   1.284  0.00  0.00    +0.040 C 
ATOM     12  C   LIG    1        0.018  -1.370   2.684  0.00  0.00    -0.110 A 
ENDBRANCH   1   2
BRANCH   1  13
ATOM     13  S   LIG    1       -3.400  -0.202   1.819  0.00  0.00    +2.670 S 
ATOM     14  O   LIG    1       -3.485   0.951   0.993  0.00  0.00    -0.960 OA
ATOM     15  O   LIG    1       -3.393  -0.141   3.239  0.00  0.00    -0.950 OA
BRANCH  13  17
ATOM     16  C   LIG    1       -5.673  -0.792   0.549  0.00  0.00    +0.210 C 
ATOM     17  C   LIG    1       -4.756  -1.235   1.373  0.00  0.00    -0.580 C 
ENDBRANCH  13  17
ENDBRANCH   1  13
BRANCH   1  18
ATOM     18  C   LIG    1       -1.448  -0.789   0.042  0.00  0.00    +0.420 C 
BRANCH  18  19
ATOM     19  C   LIG    1       -2.064  -1.772  -0.920  0.00  0.00    -0.050 A 
ATOM     20  C   LIG    1       -3.142  -1.562  -1.712  0.00  0.00    +0.150 A 
ATOM     21  N   LIG    1       -3.333  -2.711  -2.401  0.00  0.00    -0.280 N 
ATOM     22  N   LIG    1       -2.427  -3.551  -2.042  0.00  0.00    -0.080 NA
ATOM     23  N   LIG    1       -1.655  -3.022  -1.160  0.00  0.00    -0.250 NA
BRANCH  21  24
ATOM     24  C   LIG    1       -4.389  -2.955  -3.386  0.00  0.00    +0.250 C 
ATOM     25  C   LIG    1       -5.117  -1.678  -3.839  0.00  0.00    +0.040 C 
ATOM     26  C   LIG    1       -6.418  -2.501  -3.796  0.00  0.00    +0.040 C 
ATOM     27  C   LIG    1       -5.722  -3.402  -2.763  0.00  0.00    +0.040 C 
ENDBRANCH  21  24
ENDBRANCH  18  19
ENDBRANCH   1  18
TORSDOF 6
