REMARK  Name = ZINCrg00000BzCdl.0
REMARK                            x       y       z     vdW  Elec       q    Type
REMARK                         _______ _______ _______ _____ _____    ______ ____
ROOT
ATOM      1  O   LIG    1       -2.680   0.733   2.127  0.00  0.00    -0.530 OA
ATOM      2  C   LIG    1       -2.747   1.902   1.801  0.00  0.00    +0.570 C 
ATOM      3  N   LIG    1       -3.929   2.430   1.425  0.00  0.00    -0.610 N 
ATOM      4  C   LIG    1       -4.005   3.809   0.922  0.00  0.00    +0.270 C 
ATOM      5  C   LIG    1       -4.676   3.784  -0.462  0.00  0.00    +0.290 C 
ATOM      6  N   LIG    1       -5.911   2.994  -0.370  0.00  0.00    -0.610 N 
ATOM      7  C   LIG    1       -5.836   1.617   0.139  0.00  0.00    +0.270 C 
ATOM      8  C   LIG    1       -7.093   3.522  -0.745  0.00  0.00    +0.530 C 
ATOM      9  O   LIG    1       -7.130   4.617  -1.266  0.00  0.00    -0.520 OA
ATOM     10  C   LIG    1       -5.164   1.641   1.518  0.00  0.00    +0.290 C 
ENDROOT
BRANCH   8  11
ATOM     11  C   LIG    1       -8.369   2.753  -0.518  0.00  0.00    +0.000 C 
ATOM     12  C   LIG    1       -8.702   1.907  -1.759  0.00  0.00    +0.100 C 
ATOM     13  C   LIG    1      -10.157   1.409  -1.641  0.00  0.00    -0.300 C 
ATOM     14  S   LIG    1      -11.011   2.668  -0.626  0.00  0.00    +2.390 S 
ATOM     15  O   LIG    1      -11.945   3.371  -1.434  0.00  0.00    -0.930 OA
ATOM     16  O   LIG    1      -11.431   2.081   0.598  0.00  0.00    -0.930 OA
ATOM     17  C   LIG    1       -9.552   3.735  -0.318  0.00  0.00    -0.290 C 
ENDBRANCH   8  11
BRANCH   2  18
ATOM     18  C   LIG    1       -1.534   2.743   1.815  0.00  0.00    -0.160 A 
ATOM     19  C   LIG    1       -0.300   2.199   1.446  0.00  0.00    +0.110 A 
ATOM     20  C   LIG    1        0.828   2.988   1.455  0.00  0.00    +0.010 A 
ATOM     21  C   LIG    1        0.742   4.322   1.836  0.00  0.00    +0.130 A 
ATOM     22  C   LIG    1       -0.482   4.865   2.209  0.00  0.00    -0.060 A 
ATOM     23  C   LIG    1       -1.615   4.083   2.203  0.00  0.00    +0.090 A 
BRANCH  21  24
ATOM     24  O   LIG    1        1.857   5.097   1.843  0.00  0.00    -0.320 OA
BRANCH  24  25
ATOM     25  C   LIG    1        1.697   6.459   2.246  0.00  0.00    +0.600 C 
ATOM     26  F   LIG    1        1.200   6.504   3.552  0.00  0.00    -0.200 F 
ATOM     27  F   LIG    1        0.801   7.098   1.383  0.00  0.00    -0.200 F 
ENDBRANCH  24  25
ENDBRANCH  21  24
ENDBRANCH   2  18
TORSDOF 4
