REMARK  Name = ZINCvU0000000FQZ.0
REMARK                            x       y       z     vdW  Elec       q    Type
REMARK                         _______ _______ _______ _____ _____    ______ ____
ROOT
ATOM      1  O   LIG    1        3.453   3.246  -0.013  0.00  0.00    -0.450 OA
ATOM      2  C   LIG    1        2.443   3.917  -0.001  0.00  0.00    +0.540 C 
ATOM      3  N   LIG    1        1.236   3.317   0.008  0.00  0.00    -0.620 N 
ATOM      4  H   LIG    1        0.428   3.853   0.018  0.00  0.00    +0.430 HD
ENDROOT
BRANCH   3   5
ATOM      5  C   LIG    1        1.149   1.922   0.001  0.00  0.00    +0.490 A 
ATOM      6  N   LIG    1        2.223   1.177  -0.013  0.00  0.00    -0.460 NA
ATOM      7  S   LIG    1        1.671  -0.430  -0.016  0.00  0.00    +0.280 S 
ATOM      8  C   LIG    1        0.002  -0.004   0.002  0.00  0.00    +0.140 A 
ATOM      9  N   LIG    1       -0.016   1.314   0.009  0.00  0.00    -0.530 NA
BRANCH   8  10
ATOM     10  C   LIG    1       -1.160  -0.919   0.007  0.00  0.00    -0.040 A 
ATOM     11  C   LIG    1       -2.457  -0.405   0.028  0.00  0.00    +0.100 A 
ATOM     12  C   LIG    1       -3.536  -1.263   0.028  0.00  0.00    +0.040 A 
ATOM     13  C   LIG    1       -3.335  -2.633   0.019  0.00  0.00    -0.010 A 
ATOM     14  C   LIG    1       -2.050  -3.150   0.004  0.00  0.00    +0.040 A 
ATOM     15 CL   LIG    1       -4.699  -3.707   0.027  0.00  0.00    -0.050 Cl
ATOM     16  C   LIG    1       -0.963  -2.301  -0.002  0.00  0.00    +0.070 A 
ENDBRANCH   8  10
ENDBRANCH   3   5
BRANCH   2  17
ATOM     17  C   LIG    1        2.537   5.421   0.006  0.00  0.00    +0.120 C 
BRANCH  17  18
ATOM     18  S   LIG    1        4.282   5.917  -0.008  0.00  0.00    +0.110 S 
BRANCH  18  19
ATOM     19  C   LIG    1        4.193   7.677   0.002  0.00  0.00    +0.160 A 
ATOM     20  N   LIG    1        3.100   8.396   0.010  0.00  0.00    -0.260 NA
ATOM     21  N   LIG    1        3.395   9.648   0.018  0.00  0.00    -0.230 NA
ATOM     22  C   LIG    1        4.693   9.793   0.007  0.00  0.00    +0.120 A 
ATOM     23  S   LIG    1        6.032  10.947   0.001  0.00  0.00    +0.210 S 
ATOM     24  C   LIG    1        7.294   9.703  -0.016  0.00  0.00    +0.030 A 
ATOM     25  C   LIG    1        6.648   8.533  -0.016  0.00  0.00    +0.120 A 
ATOM     26  N   LIG    1        5.266   8.550  -0.004  0.00  0.00    -0.410 N 
BRANCH  25  27
ATOM     27  C   LIG    1        7.391   7.255  -0.028  0.00  0.00    -0.070 A 
ATOM     28  C   LIG    1        7.288   6.394  -1.122  0.00  0.00    +0.040 A 
ATOM     29  C   LIG    1        7.990   5.206  -1.129  0.00  0.00    +0.020 A 
ATOM     30  C   LIG    1        8.783   4.861  -0.050  0.00  0.00    +0.030 A 
ATOM     31  C   LIG    1        8.884   5.707   1.041  0.00  0.00    +0.010 A 
ATOM     32  C   LIG    1        8.194   6.900   1.058  0.00  0.00    +0.050 A 
ENDBRANCH  25  27
ENDBRANCH  18  19
ENDBRANCH  17  18
ENDBRANCH   2  17
TORSDOF 6
