REMARK  Name = ZINCtV00000tJO6U.0
REMARK                            x       y       z     vdW  Elec       q    Type
REMARK                         _______ _______ _______ _____ _____    ______ ____
ROOT
ATOM      1  C   LIG    1        4.291  -0.745   1.377  0.00  0.00    +0.040 C 
ATOM      2  C   LIG    1        3.710  -0.706  -0.038  0.00  0.00    +0.280 C 
ENDROOT
BRANCH   2   3
ATOM      3  C   LIG    1        2.396   0.033  -0.021  0.00  0.00    -0.090 A 
ATOM      4  C   LIG    1        1.208  -0.675  -0.013  0.00  0.00    +0.030 A 
ATOM      5  C   LIG    1        0.002  -0.004   0.002  0.00  0.00    +0.030 A 
ATOM      6  C   LIG    1       -0.017   1.389   0.010  0.00  0.00    -0.050 A 
ATOM      7  C   LIG    1        1.183   2.097   0.002  0.00  0.00    +0.030 A 
ATOM      8  C   LIG    1        2.383   1.416  -0.013  0.00  0.00    +0.010 A 
BRANCH   6   9
ATOM      9  C   LIG    1       -1.310   2.116   0.020  0.00  0.00    -0.050 A 
ATOM     10  C   LIG    1       -2.510   1.406   0.022  0.00  0.00    +0.060 A 
ATOM     11  C   LIG    1       -3.716   2.080   0.031  0.00  0.00    +0.030 A 
ATOM     12  C   LIG    1       -3.742   3.460   0.038  0.00  0.00    +0.070 A 
ATOM     13  C   LIG    1       -2.547   4.183   0.037  0.00  0.00    -0.020 A 
ATOM     14  C   LIG    1       -1.328   3.507   0.033  0.00  0.00    +0.080 A 
BRANCH  13  15
ATOM     15  C   LIG    1       -2.574   5.615   0.045  0.00  0.00    +0.250 C 
ATOM     16  N   LIG    1       -2.595   6.751   0.052  0.00  0.00    -0.410 NA
ENDBRANCH  13  15
ENDBRANCH   6   9
ENDBRANCH   2   3
BRANCH   2  17
ATOM     17  N   LIG    1        4.645  -0.018  -0.931  0.00  0.00    -0.720 N 
ATOM     18  H   LIG    1        4.538   0.930  -1.109  0.00  0.00    +0.400 HD
ATOM     19  C   LIG    1        5.656  -0.701  -1.504  0.00  0.00    +0.580 C 
ATOM     20  O   LIG    1        5.791  -1.889  -1.280  0.00  0.00    -0.530 OA
BRANCH  19  21
ATOM     21  C   LIG    1        6.593  -0.011  -2.399  0.00  0.00    -0.130 A 
ATOM     22  C   LIG    1        6.498   1.292  -2.692  0.00  0.00    -0.020 A 
ATOM     23  S   LIG    1        7.726   1.805  -3.750  0.00  0.00    +0.210 S 
ATOM     24  C   LIG    1        8.440   0.201  -3.848  0.00  0.00    -0.160 A 
ATOM     25  C   LIG    1        9.553  -0.257  -4.561  0.00  0.00    -0.000 A 
ATOM     26  C   LIG    1        9.931  -1.578  -4.484  0.00  0.00    +0.050 A 
ATOM     27  C   LIG    1        9.211  -2.465  -3.697  0.00  0.00    +0.030 A 
ATOM     28  C   LIG    1        8.116  -2.034  -2.990  0.00  0.00    +0.090 A 
ATOM     29 CL   LIG    1       10.460   0.846  -5.549  0.00  0.00    -0.060 Cl
ATOM     30  C   LIG    1        7.713  -0.687  -3.057  0.00  0.00    -0.030 A 
ENDBRANCH  19  21
ENDBRANCH   2  17
TORSDOF 5
