REMARK  Name = ZINCrH000004tUX4.0
REMARK                            x       y       z     vdW  Elec       q    Type
REMARK                         _______ _______ _______ _____ _____    ______ ____
ROOT
ATOM      1  O   LIG    1       -1.749   2.185  -1.075  0.00  0.00    -0.520 OA
ATOM      2  C   LIG    1       -0.818   1.422  -1.219  0.00  0.00    +0.510 C 
ATOM      3  N   LIG    1       -0.361   1.141  -2.455  0.00  0.00    -0.730 N 
ATOM      4  H   LIG    1        0.383   0.530  -2.570  0.00  0.00    +0.400 HD
ENDROOT
BRANCH   3   5
ATOM      5  C   LIG    1       -0.991   1.757  -3.626  0.00  0.00    +0.280 C 
BRANCH   5   6
ATOM      6  C   LIG    1       -0.213   1.370  -4.886  0.00  0.00    -0.030 C 
ATOM      7  C   LIG    1        1.221   1.898  -4.785  0.00  0.00    +0.010 C 
ATOM      8  C   LIG    1        1.188   3.430  -4.726  0.00  0.00    +0.210 C 
ATOM      9  O   LIG    1        0.518   3.937  -5.883  0.00  0.00    -0.380 OA
ATOM     10  C   LIG    1       -0.841   3.512  -6.003  0.00  0.00    +0.220 C 
ATOM     11  C   LIG    1       -0.890   1.986  -6.114  0.00  0.00    +0.020 C 
BRANCH   6  12
ATOM     12  C   LIG    1       -0.190  -0.130  -5.022  0.00  0.00    -0.050 A 
ATOM     13  C   LIG    1        1.008  -0.814  -4.927  0.00  0.00    +0.000 A 
ATOM     14  C   LIG    1        1.031  -2.191  -5.051  0.00  0.00    +0.050 A 
ATOM     15  C   LIG    1       -0.143  -2.885  -5.272  0.00  0.00    -0.020 A 
ATOM     16  C   LIG    1       -1.343  -2.201  -5.368  0.00  0.00    +0.100 A 
ATOM     17  F   LIG    1       -2.492  -2.879  -5.583  0.00  0.00    -0.140 F 
ATOM     18  C   LIG    1       -1.366  -0.823  -5.237  0.00  0.00    -0.020 A 
ENDBRANCH   6  12
ENDBRANCH   5   6
ENDBRANCH   3   5
BRANCH   2  19
ATOM     19  C   LIG    1       -0.171   0.787  -0.015  0.00  0.00    +0.140 C 
BRANCH  19  20
ATOM     20  C   LIG    1       -0.862   1.264   1.237  0.00  0.00    -0.160 A 
ATOM     21  C   LIG    1       -0.485   2.288   2.017  0.00  0.00    +0.240 A 
ATOM     22  N   LIG    1       -1.356   2.424   3.064  0.00  0.00    -0.590 N 
ATOM     23  H   LIG    1       -1.290   3.095   3.760  0.00  0.00    +0.420 HD
ATOM     24  C   LIG    1       -2.341   1.465   2.980  0.00  0.00    +0.100 A 
ATOM     25  C   LIG    1       -3.448   1.159   3.764  0.00  0.00    -0.010 A 
ATOM     26  C   LIG    1       -4.269   0.110   3.408  0.00  0.00    +0.020 A 
ATOM     27  C   LIG    1       -4.002  -0.645   2.275  0.00  0.00    -0.020 A 
ATOM     28  C   LIG    1       -2.919  -0.362   1.491  0.00  0.00    +0.050 A 
ATOM     29  C   LIG    1       -2.078   0.700   1.829  0.00  0.00    -0.090 A 
ENDBRANCH  19  20
ENDBRANCH   2  19
TORSDOF 5
