REMARK  Name = ZINCvU0000000AEa.0
REMARK                            x       y       z     vdW  Elec       q    Type
REMARK                         _______ _______ _______ _____ _____    ______ ____
ROOT
ATOM      1  C   LIG    1       -2.747  -4.687   0.003  0.00  0.00    +0.520 C 
ATOM      2  N   LIG    1       -2.594  -3.348   0.009  0.00  0.00    -0.610 N 
ATOM      3  C   LIG    1       -2.520  -2.598  -1.253  0.00  0.00    +0.280 C 
ATOM      4  C   LIG    1       -1.247  -1.746  -1.246  0.00  0.00    +0.040 C 
ATOM      5  C   LIG    1       -1.232  -0.869   0.009  0.00  0.00    +0.090 C 
ATOM      6  C   LIG    1       -1.225  -1.758   1.254  0.00  0.00    +0.040 C 
ATOM      7  C   LIG    1       -2.498  -2.610   1.276  0.00  0.00    +0.280 C 
ATOM      8  O   LIG    1       -2.825  -5.284  -1.049  0.00  0.00    -0.540 OA
ENDROOT
BRANCH   5   9
ATOM      9  C   LIG    1        0.002  -0.004   0.002  0.00  0.00    +0.100 A 
ATOM     10  N   LIG    1        1.198  -0.457  -0.012  0.00  0.00    -0.460 NA
ATOM     11  C   LIG    1        2.208   0.433  -0.017  0.00  0.00    +0.080 A 
ATOM     12  C   LIG    1        3.601   0.215  -0.032  0.00  0.00    +0.070 A 
ATOM     13  C   LIG    1        4.464   1.269  -0.035  0.00  0.00    +0.030 A 
ATOM     14  C   LIG    1        3.992   2.573  -0.023  0.00  0.00    +0.040 A 
ATOM     15  C   LIG    1        2.637   2.817  -0.009  0.00  0.00    +0.060 A 
ATOM     16  C   LIG    1        1.739   1.752  -0.005  0.00  0.00    -0.180 A 
ATOM     17  S   LIG    1       -0.021   1.702   0.011  0.00  0.00    +0.100 S 
ENDBRANCH   5   9
BRANCH   1  18
ATOM     18  C   LIG    1       -2.821  -5.442   1.306  0.00  0.00    +0.070 C 
BRANCH  18  19
ATOM     19  C   LIG    1       -2.994  -6.935   1.020  0.00  0.00    +0.070 C 
BRANCH  19  21
ATOM     20  O   LIG    1       -2.991  -7.093   3.375  0.00  0.00    -0.450 OA
ATOM     21  C   LIG    1       -3.069  -7.690   2.322  0.00  0.00    +0.400 C 
BRANCH  21  22
ATOM     22  C   LIG    1       -3.236  -9.151   2.317  0.00  0.00    -0.170 A 
ATOM     23  C   LIG    1       -3.304  -9.842   3.519  0.00  0.00    +0.110 A 
ATOM     24  C   LIG    1       -3.463 -11.235   3.505  0.00  0.00    -0.070 A 
ATOM     25  C   LIG    1       -3.537 -11.970   4.702  0.00  0.00    +0.030 A 
ATOM     26  C   LIG    1       -3.692 -13.322   4.654  0.00  0.00    +0.010 A 
ATOM     27  C   LIG    1       -3.780 -13.990   3.434  0.00  0.00    +0.030 A 
ATOM     28  C   LIG    1       -3.712 -13.311   2.256  0.00  0.00    +0.020 A 
ATOM     29  C   LIG    1       -3.553 -11.916   2.263  0.00  0.00    -0.030 A 
ATOM     30  C   LIG    1       -3.481 -11.187   1.061  0.00  0.00    +0.020 A 
ATOM     31  C   LIG    1       -3.332  -9.840   1.091  0.00  0.00    +0.060 A 
ENDBRANCH  21  22
ENDBRANCH  19  21
ENDBRANCH  18  19
ENDBRANCH   1  18
TORSDOF 5
