REMARK  Name = ZINCrH000004k0jx.1
REMARK                            x       y       z     vdW  Elec       q    Type
REMARK                         _______ _______ _______ _____ _____    ______ ____
ROOT
ATOM      1  C   LIG    1        2.053   0.950  -3.589  0.00  0.00    -0.190 A 
ATOM      2  C   LIG    1        2.751  -0.216  -3.347  0.00  0.00    +0.070 A 
ATOM      3  C   LIG    1        3.487  -0.806  -4.359  0.00  0.00    +0.010 A 
ATOM      4  C   LIG    1        3.536  -0.224  -5.612  0.00  0.00    +0.070 A 
ATOM      5  C   LIG    1        2.844   0.945  -5.859  0.00  0.00    +0.030 A 
ATOM      6  C   LIG    1        2.099   1.537  -4.848  0.00  0.00    +0.170 A 
ENDROOT
BRANCH   6   7
ATOM      7  N   LIG    1        1.397   2.721  -5.095  0.00  0.00    -0.690 N 
ATOM      8  H   LIG    1        0.548   2.882  -4.654  0.00  0.00    +0.410 HD
ATOM      9  C   LIG    1        1.900   3.637  -5.946  0.00  0.00    +0.570 C 
ATOM     10  O   LIG    1        2.920   3.399  -6.563  0.00  0.00    -0.500 OA
BRANCH   9  11
ATOM     11  C   LIG    1        1.210   4.934  -6.128  0.00  0.00    -0.230 A 
ATOM     12  C   LIG    1        1.724   5.892  -7.008  0.00  0.00    +0.130 A 
ATOM     13  C   LIG    1        1.043   7.091  -7.146  0.00  0.00    +0.020 A 
ATOM     14  CA  LIG    1       -0.120   7.300  -6.408  0.00  0.00    +0.120 A 
ATOM     15  N   LIG    1       -0.579   6.368  -5.581  0.00  0.00    -0.440 NA
ATOM     16  C   LIG    1        0.034   5.216  -5.428  0.00  0.00    +0.250 A 
BRANCH  14  17
ATOM     17  C   LIG    1       -0.855   8.579  -6.548  0.00  0.00    +0.530 C 
ATOM     18  OXT LIG    1       -1.876   8.771  -5.905  0.00  0.00    -0.650 OA
ATOM     19  O   LIG    1       -0.439   9.443  -7.307  0.00  0.00    -0.660 OA
ENDBRANCH  14  17
ENDBRANCH   9  11
ENDBRANCH   6   7
BRANCH   1  20
ATOM     20  C   LIG    1        1.247   1.589  -2.488  0.00  0.00    +0.310 C 
BRANCH  20  22
ATOM     21  C   LIG    1        3.211   2.394  -1.370  0.00  0.00    +0.310 C 
ATOM     22  N   LIG    1        1.944   2.787  -2.002  0.00  0.00    -0.390 N 
ATOM     23  H   LIG    1        2.133   3.404  -2.778  0.00  0.00    +0.420 HD
BRANCH  22  24
ATOM     24  C   LIG    1        1.101   3.480  -1.019  0.00  0.00    +0.160 C 
ATOM     25  C   LIG    1       -0.218   3.889  -1.678  0.00  0.00    +0.030 C 
ATOM     26  C   LIG    1       -1.097   4.611  -0.654  0.00  0.00    +0.050 C 
ATOM     27  C   LIG    1       -0.371   5.859  -0.148  0.00  0.00    +0.030 C 
ATOM     28  C   LIG    1        0.948   5.449   0.510  0.00  0.00    +0.040 C 
ATOM     29  C   LIG    1        1.827   4.728  -0.513  0.00  0.00    +0.040 C 
ENDBRANCH  22  24
ENDBRANCH  20  22
ENDBRANCH   1  20
TORSDOF 6
