REMARK  Name = ZINCrH000004k0jx.0
REMARK                            x       y       z     vdW  Elec       q    Type
REMARK                         _______ _______ _______ _____ _____    ______ ____
ROOT
ATOM      1  C   LIG    1        6.031   2.007   0.134  0.00  0.00    -0.190 A 
ATOM      2  C   LIG    1        7.272   1.406   0.214  0.00  0.00    +0.060 A 
ATOM      3  C   LIG    1        7.376   0.027   0.198  0.00  0.00    +0.010 A 
ATOM      4  C   LIG    1        6.239  -0.755   0.110  0.00  0.00    +0.070 A 
ATOM      5  C   LIG    1        4.994  -0.160   0.036  0.00  0.00    +0.030 A 
ATOM      6  C   LIG    1        4.886   1.225   0.051  0.00  0.00    +0.180 A 
ENDROOT
BRANCH   6   7
ATOM      7  N   LIG    1        3.628   1.830  -0.023  0.00  0.00    -0.690 N 
ATOM      8  H   LIG    1        3.521   2.670  -0.497  0.00  0.00    +0.410 HD
ATOM      9  C   LIG    1        2.564   1.247   0.563  0.00  0.00    +0.570 C 
ATOM     10  O   LIG    1        2.680   0.156   1.086  0.00  0.00    -0.500 OA
BRANCH   9  11
ATOM     11  C   LIG    1        1.253   1.935   0.571  0.00  0.00    -0.230 A 
ATOM     12  C   LIG    1        0.143   1.339   1.176  0.00  0.00    +0.120 A 
ATOM     13  C   LIG    1       -1.064   2.020   1.152  0.00  0.00    +0.020 A 
ATOM     14  CA  LIG    1       -1.127   3.269   0.540  0.00  0.00    +0.120 A 
ATOM     15  N   LIG    1       -0.052   3.806  -0.025  0.00  0.00    -0.440 NA
ATOM     16  C   LIG    1        1.109   3.191  -0.028  0.00  0.00    +0.260 A 
BRANCH  14  17
ATOM     17  C   LIG    1       -2.412   4.007   0.515  0.00  0.00    +0.530 C 
ATOM     18  OXT LIG    1       -3.406   3.521   1.033  0.00  0.00    -0.670 OA
ATOM     19  O   LIG    1       -2.477   5.102  -0.024  0.00  0.00    -0.650 OA
ENDBRANCH  14  17
ENDBRANCH   9  11
ENDBRANCH   6   7
BRANCH   1  20
ATOM     20  C   LIG    1        5.919   3.510   0.145  0.00  0.00    +0.310 C 
BRANCH  20  22
ATOM     21  C   LIG    1        6.645   3.649   2.427  0.00  0.00    +0.310 C 
ATOM     22  N   LIG    1        5.555   3.964   1.494  0.00  0.00    -0.390 N 
ATOM     23  H   LIG    1        4.712   3.496   1.791  0.00  0.00    +0.420 HD
BRANCH  22  24
ATOM     24  C   LIG    1        5.329   5.415   1.477  0.00  0.00    +0.170 C 
ATOM     25  C   LIG    1        4.950   5.889   2.882  0.00  0.00    +0.040 C 
ATOM     26  C   LIG    1        4.715   7.400   2.865  0.00  0.00    +0.040 C 
ATOM     27  C   LIG    1        3.579   7.728   1.893  0.00  0.00    +0.020 C 
ATOM     28  C   LIG    1        3.958   7.255   0.488  0.00  0.00    +0.050 C 
ATOM     29  C   LIG    1        4.194   5.744   0.505  0.00  0.00    +0.030 C 
ENDBRANCH  22  24
ENDBRANCH  20  22
ENDBRANCH   1  20
TORSDOF 6
