REMARK  Name = ZINCrH000004mpzT.0
REMARK                            x       y       z     vdW  Elec       q    Type
REMARK                         _______ _______ _______ _____ _____    ______ ____
ROOT
ATOM      1  N   LIG    1        4.670   5.703  -0.011  0.00  0.00    -0.450 N 
ATOM      2  C   LIG    1        6.008   6.063  -0.021  0.00  0.00    +0.060 A 
ATOM      3  C   LIG    1        6.677   7.277  -0.019  0.00  0.00    +0.020 A 
ATOM      4  C   LIG    1        8.057   7.301  -0.031  0.00  0.00    +0.030 A 
ATOM      5  C   LIG    1        8.780   6.117  -0.043  0.00  0.00    +0.010 A 
ATOM      6  C   LIG    1        8.132   4.902  -0.045  0.00  0.00    +0.060 A 
ATOM      7  C   LIG    1        6.736   4.861  -0.033  0.00  0.00    +0.070 A 
ATOM      8  N   LIG    1        5.833   3.846  -0.026  0.00  0.00    -0.460 NA
ATOM      9  C   LIG    1        4.619   4.336  -0.018  0.00  0.00    +0.510 A 
ENDROOT
BRANCH   1  13
ATOM     10  C   LIG    1        1.407   8.301   0.029  0.00  0.00    +0.140 A 
ATOM     11  C   LIG    1        1.643   7.467   1.112  0.00  0.00    +0.010 A 
ATOM     12  C   LIG    1        2.723   6.606   1.099  0.00  0.00    +0.070 A 
ATOM     13  C   LIG    1        3.573   6.577   0.003  0.00  0.00    +0.070 A 
ATOM     14  C   LIG    1        3.340   7.416  -1.078  0.00  0.00    +0.070 A 
ATOM     15  C   LIG    1        2.257   8.272  -1.067  0.00  0.00    -0.050 A 
BRANCH  10  17
ATOM     16  C   LIG    1        0.162   9.979  -1.106  0.00  0.00    +0.250 C 
ATOM     17  O   LIG    1        0.344   9.148   0.043  0.00  0.00    -0.310 OA
ENDBRANCH  10  17
ENDBRANCH   1  13
BRANCH   9  18
ATOM     18  N   LIG    1        3.458   3.584  -0.011  0.00  0.00    -0.620 N 
ATOM     19  H   LIG    1        2.594   4.026  -0.001  0.00  0.00    +0.430 HD
ATOM     20  C   LIG    1        3.527   2.238  -0.019  0.00  0.00    +0.570 C 
ATOM     21  O   LIG    1        4.608   1.685  -0.032  0.00  0.00    -0.420 OA
BRANCH  20  22
ATOM     22  C   LIG    1        2.282   1.432  -0.012  0.00  0.00    +0.140 A 
ATOM     23  N   LIG    1        1.091   2.026   0.003  0.00  0.00    -0.490 NA
ATOM     24  C   LIG    1       -0.016   1.315   0.009  0.00  0.00    +0.510 A 
ATOM     25  N   LIG    1        0.002  -0.004   0.002  0.00  0.00    -0.480 NA
ATOM     26  C   LIG    1        1.143  -0.671  -0.013  0.00  0.00    +0.360 A 
ATOM     27  C   LIG    1        2.339   0.036  -0.020  0.00  0.00    -0.100 A 
ATOM     28 CL   LIG    1        3.864  -0.793  -0.039  0.00  0.00    +0.010 Cl
ENDBRANCH  20  22
ENDBRANCH   9  18
TORSDOF 4
