REMARK  Name = ZINCqH0000038xOt.0
REMARK                            x       y       z     vdW  Elec       q    Type
REMARK                         _______ _______ _______ _____ _____    ______ ____
ROOT
ATOM      1  N   LIG    1       -6.802   5.237   5.139  0.00  0.00    -0.680 N 
ATOM      2  H   LIG    1       -6.609   5.409   6.074  0.00  0.00    +0.410 HD
ATOM      3  C   LIG    1       -5.818   4.833   4.312  0.00  0.00    +0.700 C 
ATOM      4  N   LIG    1       -4.549   4.757   4.760  0.00  0.00    -0.620 N 
ATOM      5  C   LIG    1       -4.239   5.114   6.147  0.00  0.00    +0.280 C 
ATOM      6  O   LIG    1       -6.074   4.536   3.161  0.00  0.00    -0.560 OA
ENDROOT
BRANCH   1  10
ATOM      7  C   LIG    1      -10.676   5.747   3.682  0.00  0.00    +0.110 A 
ATOM      8  C   LIG    1      -10.188   6.592   4.669  0.00  0.00    +0.060 A 
ATOM      9  C   LIG    1       -8.908   6.419   5.155  0.00  0.00    +0.010 A 
ATOM     10  C   LIG    1       -8.102   5.407   4.649  0.00  0.00    +0.180 A 
ATOM     11  C   LIG    1       -8.589   4.561   3.661  0.00  0.00    +0.020 A 
ATOM     12  C   LIG    1       -9.873   4.730   3.178  0.00  0.00    +0.120 A 
ATOM     13  F   LIG    1      -10.347   3.908   2.217  0.00  0.00    -0.110 F 
BRANCH   7  17
ATOM     14  C   LIG    1      -15.253   7.521   2.996  0.00  0.00    +0.110 C 
ATOM     15  C   LIG    1      -14.000   6.691   2.880  0.00  0.00    -0.230 A 
ATOM     16  C   LIG    1      -12.862   6.862   3.592  0.00  0.00    +0.230 A 
ATOM     17  N   LIG    1      -11.980   5.919   3.192  0.00  0.00    -0.320 N 
ATOM     18  N   LIG    1      -12.596   5.148   2.199  0.00  0.00    -0.270 NA
ATOM     19  C   LIG    1      -13.808   5.607   2.016  0.00  0.00    +0.250 A 
ENDBRANCH   7  17
ENDBRANCH   1  10
BRANCH   4  20
ATOM     20  C   LIG    1       -3.479   4.318   3.860  0.00  0.00    +0.320 C 
BRANCH  20  21
ATOM     21  C   LIG    1       -3.330   2.798   3.949  0.00  0.00    +0.130 C 
BRANCH  21  22
ATOM     22  C   LIG    1       -2.229   2.346   3.024  0.00  0.00    +0.040 A 
ATOM     23  N   LIG    1       -0.986   2.239   3.352  0.00  0.00    -0.470 NA
ATOM     24  C   LIG    1       -0.152   1.829   2.418  0.00  0.00    +0.210 A 
ATOM     25  C   LIG    1       -0.723   1.575   1.237  0.00  0.00    -0.220 A 
ATOM     26  C   LIG    1       -0.016   1.095  -0.004  0.00  0.00    +0.150 C 
ATOM     27  S   LIG    1       -2.447   1.909   1.385  0.00  0.00    +0.140 S 
ENDBRANCH  21  22
ENDBRANCH  20  21
ENDBRANCH   4  20
TORSDOF 5
