REMARK  Name = ZINCrD000000ALMl.0
REMARK                            x       y       z     vdW  Elec       q    Type
REMARK                         _______ _______ _______ _____ _____    ______ ____
ROOT
ATOM      1  O   LIG    1        0.013  -0.004  -0.002  0.00  0.00    -0.580 OA
ATOM      2  C   LIG    1       -0.014   1.212   0.009  0.00  0.00    +0.700 C 
ATOM      3  N   LIG    1       -1.197   1.859   0.018  0.00  0.00    -0.630 N 
ATOM      4  C   LIG    1       -1.249   3.323  -0.084  0.00  0.00    +0.260 C 
ATOM      5  C   LIG    1       -2.181   3.704  -1.239  0.00  0.00    +0.010 C 
ATOM      6  C   LIG    1       -3.543   3.039  -1.031  0.00  0.00    +0.040 C 
ATOM      7  C   LIG    1       -3.372   1.516  -1.034  0.00  0.00    -0.070 C 
ATOM      8  C   LIG    1       -4.735   0.851  -0.860  0.00  0.00    +0.080 C 
ATOM      9  C   LIG    1       -5.093  -0.071  -2.042  0.00  0.00    -0.300 C 
ATOM     10  S   LIG    1       -3.447  -0.534  -2.715  0.00  0.00    +2.370 S 
ATOM     11  O   LIG    1       -3.537  -0.726  -4.120  0.00  0.00    -0.940 OA
ATOM     12  O   LIG    1       -2.853  -1.530  -1.893  0.00  0.00    -0.920 OA
ATOM     13  C   LIG    1       -2.690   1.102  -2.356  0.00  0.00    -0.290 C 
ATOM     14  C   LIG    1       -2.457   1.112   0.124  0.00  0.00    +0.320 C 
ATOM     15  N   LIG    1        1.137   1.912   0.006  0.00  0.00    -0.740 N 
ATOM     16  H   LIG    1        1.116   2.880  -0.059  0.00  0.00    +0.390 HD
ENDROOT
BRANCH  15  17
ATOM     17  C   LIG    1        2.421   1.212   0.100  0.00  0.00    +0.250 C 
ATOM     18  C   LIG    1        2.753   0.953   1.571  0.00  0.00    +0.000 C 
ATOM     19  C   LIG    1        4.094   0.222   1.669  0.00  0.00    +0.030 C 
ATOM     20  C   LIG    1        5.192   1.083   1.042  0.00  0.00    +0.030 C 
ATOM     21  C   LIG    1        4.859   1.343  -0.429  0.00  0.00    +0.030 C 
ATOM     22  C   LIG    1        3.518   2.074  -0.527  0.00  0.00    +0.010 C 
BRANCH  20  23
ATOM     23  C   LIG    1        6.512   0.363   1.139  0.00  0.00    -0.080 A 
ATOM     24  C   LIG    1        6.670  -0.874   0.542  0.00  0.00    +0.010 A 
ATOM     25  C   LIG    1        7.883  -1.532   0.627  0.00  0.00    +0.000 A 
ATOM     26  C   LIG    1        8.934  -0.958   1.317  0.00  0.00    +0.000 A 
ATOM     27  C   LIG    1        8.774   0.276   1.919  0.00  0.00    +0.000 A 
ATOM     28  C   LIG    1        7.563   0.937   1.829  0.00  0.00    +0.000 A 
ENDBRANCH  20  23
ENDBRANCH  15  17
TORSDOF 2
