REMARK  Name = ZINCkj00000dDi7f.0
REMARK                            x       y       z     vdW  Elec       q    Type
REMARK                         _______ _______ _______ _____ _____    ______ ____
ROOT
ATOM      1  C   LIG    1        2.475   5.196   2.362  0.00  0.00    +0.330 C 
ATOM      2  N   LIG    1        2.998   3.907   1.892  0.00  0.00    -0.380 N 
ATOM      3  H   LIG    1        2.458   3.157   2.296  0.00  0.00    +0.430 HD
ENDROOT
BRANCH   2   4
ATOM      4  C   LIG    1        2.903   3.844   0.427  0.00  0.00    +0.180 C 
ATOM      5  C   LIG    1        1.432   3.926  -0.031  0.00  0.00    +0.130 C 
ATOM      6  C   LIG    1        0.965   2.489  -0.126  0.00  0.00    -0.120 A 
ATOM      7  C   LIG    1       -0.314   1.963  -0.177  0.00  0.00    +0.040 A 
ATOM      8  C   LIG    1       -0.501   0.597  -0.263  0.00  0.00    +0.040 A 
ATOM      9  C   LIG    1        0.593  -0.248  -0.298  0.00  0.00    +0.030 A 
ATOM     10  C   LIG    1        1.870   0.276  -0.247  0.00  0.00    +0.040 A 
ATOM     11  C   LIG    1        2.059   1.644  -0.160  0.00  0.00    -0.120 A 
ATOM     12  C   LIG    1        3.335   2.456  -0.092  0.00  0.00    +0.120 C 
ENDBRANCH   2   4
BRANCH   2  13
ATOM     13  C   LIG    1        4.404   3.772   2.297  0.00  0.00    +0.240 C 
BRANCH  13  14
ATOM     14  C   LIG    1        4.489   3.688   3.823  0.00  0.00    +0.210 C 
BRANCH  14  15
ATOM     15  O   LIG    1        3.849   2.491   4.270  0.00  0.00    -0.540 OA
ATOM     16  H   LIG    1        4.241   1.680   3.918  0.00  0.00    +0.390 HD
ENDBRANCH  14  15
BRANCH  14  17
ATOM     17  C   LIG    1        5.957   3.673   4.252  0.00  0.00    +0.320 C 
BRANCH  17  18
ATOM     18  N   LIG    1        6.039   3.713   5.714  0.00  0.00    -0.380 N 
ATOM     19  C   LIG    1        6.692   2.829   6.497  0.00  0.00    +0.240 A 
ATOM     20  C   LIG    1        6.527   3.217   7.783  0.00  0.00    -0.110 A 
ATOM     21  C   LIG    1        5.748   4.378   7.786  0.00  0.00    +0.250 A 
ATOM     22  N   LIG    1        5.459   4.679   6.546  0.00  0.00    -0.300 NA
ENDBRANCH  17  18
ENDBRANCH  14  17
ENDBRANCH  13  14
ENDBRANCH   2  13
TORSDOF 6
