REMARK  Name = ZINCkj00000dDi7f.1
REMARK                            x       y       z     vdW  Elec       q    Type
REMARK                         _______ _______ _______ _____ _____    ______ ____
ROOT
ATOM      1  C   LIG    1        0.225   1.509   0.033  0.00  0.00    +0.330 C 
ATOM      2  N   LIG    1        0.042   0.052  -0.003  0.00  0.00    -0.370 N 
ATOM      3  H   LIG    1       -0.941  -0.165   0.060  0.00  0.00    +0.430 HD
ENDROOT
BRANCH   2   4
ATOM      4  C   LIG    1        0.751  -0.558   1.130  0.00  0.00    +0.170 C 
ATOM      5  C   LIG    1        0.437  -2.066   1.226  0.00  0.00    +0.110 C 
ATOM      6  C   LIG    1        0.403  -2.371   2.708  0.00  0.00    -0.110 A 
ATOM      7  C   LIG    1        0.482  -3.580   3.377  0.00  0.00    +0.040 A 
ATOM      8  C   LIG    1        0.429  -3.616   4.758  0.00  0.00    +0.040 A 
ATOM      9  C   LIG    1        0.297  -2.441   5.473  0.00  0.00    +0.040 A 
ATOM     10  C   LIG    1        0.219  -1.233   4.807  0.00  0.00    +0.040 A 
ATOM     11  C   LIG    1        0.271  -1.195   3.424  0.00  0.00    -0.110 A 
ATOM     12  C   LIG    1        0.207  -0.021   2.471  0.00  0.00    +0.120 C 
ENDBRANCH   2   4
BRANCH   2  13
ATOM     13  C   LIG    1        0.582  -0.479  -1.261  0.00  0.00    +0.240 C 
BRANCH  13  14
ATOM     14  C   LIG    1       -0.264   0.026  -2.432  0.00  0.00    +0.220 C 
BRANCH  14  15
ATOM     15  O   LIG    1       -0.096   1.439  -2.566  0.00  0.00    -0.540 OA
ATOM     16  H   LIG    1        0.816   1.713  -2.734  0.00  0.00    +0.390 HD
ENDBRANCH  14  15
BRANCH  14  17
ATOM     17  C   LIG    1        0.186  -0.665  -3.721  0.00  0.00    +0.320 C 
BRANCH  17  18
ATOM     18  N   LIG    1       -0.700  -0.272  -4.820  0.00  0.00    -0.380 N 
ATOM     19  C   LIG    1       -0.316   0.273  -5.993  0.00  0.00    +0.240 A 
ATOM     20  C   LIG    1       -1.428   0.488  -6.732  0.00  0.00    -0.110 A 
ATOM     21  C   LIG    1       -2.530   0.059  -5.986  0.00  0.00    +0.250 A 
ATOM     22  N   LIG    1       -2.094  -0.402  -4.841  0.00  0.00    -0.300 NA
ENDBRANCH  17  18
ENDBRANCH  14  17
ENDBRANCH  13  14
ENDBRANCH   2  13
TORSDOF 6
