REMARK  Name = ZINCqH0000007tfU.0
REMARK                            x       y       z     vdW  Elec       q    Type
REMARK                         _______ _______ _______ _____ _____    ______ ____
ROOT
ATOM      1  C   LIG    1        3.711  -0.707  -0.037  0.00  0.00    +0.240 C 
ENDROOT
BRANCH   1   5
ATOM      2  C   LIG    1        5.334  -0.811   3.915  0.00  0.00    +0.130 A 
ATOM      3  C   LIG    1        4.668  -1.917   3.408  0.00  0.00    -0.020 A 
ATOM      4  C   LIG    1        4.145  -1.881   2.130  0.00  0.00    +0.060 A 
ATOM      5  C   LIG    1        4.283  -0.744   1.356  0.00  0.00    -0.130 A 
ATOM      6  C   LIG    1        4.951   0.359   1.857  0.00  0.00    +0.080 A 
ATOM      7  C   LIG    1        5.472   0.330   3.137  0.00  0.00    -0.080 A 
BRANCH   2   9
ATOM      8  C   LIG    1        6.522   0.332   5.628  0.00  0.00    +0.250 C 
ATOM      9  O   LIG    1        5.849  -0.843   5.172  0.00  0.00    -0.320 OA
ENDBRANCH   2   9
ENDBRANCH   1   5
BRANCH   1  10
ATOM     10  C   LIG    1        2.396   0.029  -0.021  0.00  0.00    -0.080 A 
ATOM     11  C   LIG    1        1.208  -0.679  -0.013  0.00  0.00    +0.000 A 
ATOM     12  C   LIG    1        0.002  -0.004   0.002  0.00  0.00    +0.000 A 
ATOM     13  C   LIG    1       -0.017   1.378   0.010  0.00  0.00    +0.000 A 
ATOM     14  C   LIG    1        1.171   2.086   0.002  0.00  0.00    -0.010 A 
ATOM     15  C   LIG    1        2.377   1.411  -0.015  0.00  0.00    +0.050 A 
ENDBRANCH   1  10
BRANCH   1  16
ATOM     16  N   LIG    1        4.648  -0.016  -0.933  0.00  0.00    -0.660 NA
ATOM     17  H   LIG    1        5.602  -0.156  -0.636  0.00  0.00    +0.360 HD
BRANCH  16  18
ATOM     18  C   LIG    1        4.461  -0.448  -2.325  0.00  0.00    +0.200 C 
BRANCH  18  19
ATOM     19  C   LIG    1        5.437   0.281  -3.212  0.00  0.00    +0.510 C 
ATOM     20  N   LIG    1        5.449   0.043  -4.539  0.00  0.00    -0.610 N 
ATOM     21  C   LIG    1        4.516  -0.921  -5.078  0.00  0.00    +0.270 C 
ATOM     22  C   LIG    1        5.146  -2.330  -5.057  0.00  0.00    -0.000 C 
ATOM     23  C   LIG    1        6.210  -2.429  -6.067  0.00  0.00    +0.000 C 
ATOM     24  C   LIG    1        7.386  -1.484  -5.837  0.00  0.00    +0.000 C 
ATOM     25  C   LIG    1        7.070  -0.137  -6.437  0.00  0.00    +0.020 C 
ATOM     26  C   LIG    1        6.417   0.773  -5.380  0.00  0.00    +0.260 C 
ATOM     27  O   LIG    1        6.212   1.081  -2.733  0.00  0.00    -0.520 OA
ENDBRANCH  18  19
ENDBRANCH  16  18
ENDBRANCH   1  16
TORSDOF 6
