REMARK  Name = ZINCtV00000tRQaC.0
REMARK                            x       y       z     vdW  Elec       q    Type
REMARK                         _______ _______ _______ _____ _____    ______ ____
ROOT
ATOM      1  O   LIG    1        4.342  -0.363   0.758  0.00  0.00    -0.550 OA
ATOM      2  C   LIG    1        3.295  -0.679   1.291  0.00  0.00    +0.700 C 
ATOM      3  N   LIG    1        2.165  -0.001   1.009  0.00  0.00    -0.620 N 
ATOM      4  C   LIG    1        0.880  -0.412   1.592  0.00  0.00    +0.260 C 
ATOM      5  C   LIG    1       -0.135  -0.604   0.462  0.00  0.00    +0.010 C 
ATOM      6  C   LIG    1       -0.206   0.674  -0.377  0.00  0.00    +0.010 C 
ATOM      7  C   LIG    1        1.163   0.954  -1.000  0.00  0.00    +0.020 C 
ATOM      8  C   LIG    1        2.193   1.163   0.114  0.00  0.00    +0.240 C 
ATOM      9  N   LIG    1        3.265  -1.707   2.162  0.00  0.00    -0.690 N 
ATOM     10  H   LIG    1        2.419  -2.008   2.528  0.00  0.00    +0.400 HD
ENDROOT
BRANCH   8  11
ATOM     11  C   LIG    1        3.589   1.308  -0.495  0.00  0.00    +0.030 C 
ATOM     12  C   LIG    1        3.679   2.630  -1.263  0.00  0.00    -0.020 C 
ATOM     13  C   LIG    1        5.052   2.729  -1.934  0.00  0.00    +0.210 C 
ATOM     14  O   LIG    1        5.241   1.607  -2.797  0.00  0.00    -0.390 OA
ATOM     15  C   LIG    1        5.214   0.344  -2.127  0.00  0.00    +0.200 C 
ATOM     16  C   LIG    1        3.848   0.149  -1.464  0.00  0.00    -0.000 C 
ENDBRANCH   8  11
BRANCH   9  17
ATOM     17  C   LIG    1        4.455  -2.340   2.538  0.00  0.00    +0.170 A 
ATOM     18  C   LIG    1        5.632  -1.607   2.635  0.00  0.00    +0.030 A 
ATOM     19  C   LIG    1        6.809  -2.228   3.007  0.00  0.00    +0.030 A 
ATOM     20  C   LIG    1        6.822  -3.580   3.285  0.00  0.00    +0.010 A 
ATOM     21  C   LIG    1        5.647  -4.324   3.190  0.00  0.00    -0.030 A 
ATOM     22  C   LIG    1        4.460  -3.697   2.821  0.00  0.00    -0.010 A 
BRANCH  21  23
ATOM     23  C   LIG    1        5.660  -5.777   3.488  0.00  0.00    -0.020 A 
ATOM     24  C   LIG    1        6.847  -6.403   3.863  0.00  0.00    +0.050 A 
ATOM     25  C   LIG    1        6.854  -7.756   4.139  0.00  0.00    +0.060 A 
ATOM     26  C   LIG    1        5.685  -8.490   4.045  0.00  0.00    -0.030 A 
ATOM     27  C   LIG    1        4.502  -7.873   3.673  0.00  0.00    -0.030 A 
ATOM     28 CL   LIG    1        3.039  -8.800   3.557  0.00  0.00    -0.040 Cl
ATOM     29 CL   LIG    1        5.701 -10.191   4.394  0.00  0.00    -0.050 Cl
ATOM     30  C   LIG    1        4.484  -6.519   3.399  0.00  0.00    +0.050 A 
ENDBRANCH  21  23
ENDBRANCH   9  17
TORSDOF 3
