REMARK  Name = ZINCkj000005ksMe.0
REMARK                            x       y       z     vdW  Elec       q    Type
REMARK                         _______ _______ _______ _____ _____    ______ ____
ROOT
ATOM      1  N   LIG    1       -1.194  -4.422   4.268  0.00  0.00    -0.530 NA
ATOM      2  C   LIG    1       -1.319  -2.962   4.383  0.00  0.00    +0.210 C 
ATOM      3  C   LIG    1       -2.701  -2.613   4.939  0.00  0.00    +0.270 C 
ATOM      4  N   LIG    1       -2.872  -3.241   6.256  0.00  0.00    -0.380 N 
ATOM      5  C   LIG    1       -2.770  -4.700   6.121  0.00  0.00    +0.280 C 
ATOM      6  H   LIG    1       -2.153  -2.910   6.882  0.00  0.00    +0.430 HD
ATOM      7  C   LIG    1       -1.388  -5.066   5.575  0.00  0.00    +0.200 C 
ENDROOT
BRANCH   1   8
ATOM      8  C   LIG    1        0.100  -4.796   3.684  0.00  0.00    +0.230 C 
BRANCH   8   9
ATOM      9  C   LIG    1        0.020  -6.222   3.135  0.00  0.00    +0.190 C 
BRANCH   9  10
ATOM     10  O   LIG    1       -0.909  -6.263   2.051  0.00  0.00    -0.300 OA
BRANCH  10  16
ATOM     11  C   LIG    1       -3.145  -8.925  -1.376  0.00  0.00    +0.100 C 
ATOM     12  C   LIG    1       -2.180  -8.802  -0.225  0.00  0.00    -0.040 A 
ATOM     13  C   LIG    1       -1.492  -9.915   0.222  0.00  0.00    -0.030 A 
ATOM     14  C   LIG    1       -0.603  -9.805   1.275  0.00  0.00    +0.060 A 
ATOM     15  C   LIG    1       -0.407  -8.583   1.890  0.00  0.00    -0.100 A 
ATOM     16  C   LIG    1       -1.100  -7.466   1.447  0.00  0.00    +0.130 A 
ATOM     17  C   LIG    1       -1.988  -7.578   0.387  0.00  0.00    -0.020 A 
ENDBRANCH  10  16
ENDBRANCH   9  10
ENDBRANCH   8   9
ENDBRANCH   1   8
BRANCH   4  18
ATOM     18  C   LIG    1       -4.192  -2.891   6.797  0.00  0.00    +0.280 C 
BRANCH  18  19
ATOM     19  C   LIG    1       -4.346  -1.369   6.821  0.00  0.00    +0.160 C 
ATOM     20  C   LIG    1       -5.721  -1.004   7.385  0.00  0.00    +0.050 C 
BRANCH  19  21
ATOM     21  O   LIG    1       -3.327  -0.799   7.645  0.00  0.00    -0.580 OA
ATOM     22  H   LIG    1       -3.364   0.165   7.706  0.00  0.00    +0.410 HD
ENDBRANCH  19  21
ENDBRANCH  18  19
ENDBRANCH   4  18
TORSDOF 7
