REMARK  Name = ZINCrD00000F5LAh.0
REMARK                            x       y       z     vdW  Elec       q    Type
REMARK                         _______ _______ _______ _____ _____    ______ ____
ROOT
ATOM      1  N   LIG    1        0.527  -1.522   4.844  0.00  0.00    -0.380 N 
ATOM      2  C   LIG    1        0.729  -2.072   6.083  0.00  0.00    +0.030 A 
ATOM      3  C   LIG    1       -0.446  -2.497   6.576  0.00  0.00    -0.100 A 
ATOM      4  C   LIG    1       -1.466  -2.183   5.568  0.00  0.00    -0.140 A 
ATOM      5  C   LIG    1       -0.674  -3.163   7.909  0.00  0.00    +0.130 C 
ATOM      6  C   LIG    1        2.059  -2.183   6.783  0.00  0.00    +0.150 C 
ATOM      7  C   LIG    1       -0.791  -1.582   4.514  0.00  0.00    +0.330 A 
ENDROOT
BRANCH   1  11
ATOM      8  C   LIG    1        3.522   0.103   2.437  0.00  0.00    +0.140 A 
ATOM      9  C   LIG    1        2.450   0.888   2.833  0.00  0.00    +0.000 A 
ATOM     10  C   LIG    1        1.458   0.351   3.630  0.00  0.00    +0.050 A 
ATOM     11  C   LIG    1        1.534  -0.975   4.034  0.00  0.00    +0.090 A 
ATOM     12  C   LIG    1        2.611  -1.759   3.641  0.00  0.00    +0.090 A 
ATOM     13  C   LIG    1        3.599  -1.222   2.840  0.00  0.00    -0.050 A 
BRANCH   8  15
ATOM     14  C   LIG    1        5.573  -0.234   1.281  0.00  0.00    +0.250 C 
ATOM     15  O   LIG    1        4.498   0.632   1.652  0.00  0.00    -0.310 OA
ENDBRANCH   8  15
ENDBRANCH   1  11
BRANCH   7  16
ATOM     16  N   LIG    1       -1.360  -1.121   3.336  0.00  0.00    -0.660 N 
ATOM     17  H   LIG    1       -2.188  -0.616   3.363  0.00  0.00    +0.420 HD
ATOM     18  C   LIG    1       -0.762  -1.374   2.155  0.00  0.00    +0.510 C 
ATOM     19  O   LIG    1        0.221  -2.082   2.112  0.00  0.00    -0.480 OA
BRANCH  18  20
ATOM     20  C   LIG    1       -1.317  -0.777   0.887  0.00  0.00    +0.190 C 
BRANCH  20  21
ATOM     21  N   LIG    1       -0.575  -1.303  -0.267  0.00  0.00    -0.440 NA
ATOM     22  C   LIG    1       -0.818  -2.748  -0.437  0.00  0.00    +0.150 C 
ATOM     23  C   LIG    1       -0.903  -2.499  -1.949  0.00  0.00    +0.040 C 
ATOM     24  C   LIG    1       -1.324  -1.087  -1.519  0.00  0.00    +0.050 C 
ATOM     25  C   LIG    1       -0.736   0.019  -2.398  0.00  0.00    +0.050 C 
ATOM     26  C   LIG    1       -2.832  -0.938  -1.309  0.00  0.00    +0.040 C 
ENDBRANCH  20  21
ENDBRANCH  18  20
ENDBRANCH   7  16
BRANCH   4  27
ATOM     27  C   LIG    1       -2.871  -2.445   5.653  0.00  0.00    +0.290 C 
ATOM     28  N   LIG    1       -3.986  -2.653   5.720  0.00  0.00    -0.440 NA
ENDBRANCH   4  27
TORSDOF 6
