REMARK  Name = ZINCqH0000007CEY.0
REMARK                            x       y       z     vdW  Elec       q    Type
REMARK                         _______ _______ _______ _____ _____    ______ ____
ROOT
ATOM      1  C   LIG    1       -1.007  -3.205  -5.551  0.00  0.00    +0.560 C 
ATOM      2  N   LIG    1       -1.049  -4.335  -4.818  0.00  0.00    -0.670 N 
ATOM      3  H   LIG    1       -1.479  -5.128  -5.173  0.00  0.00    +0.410 HD
ATOM      4  O   LIG    1       -0.544  -2.187  -5.073  0.00  0.00    -0.490 OA
ENDROOT
BRANCH   1   9
ATOM      5  C   LIG    1       -1.968  -2.042  -9.002  0.00  0.00    +0.100 A 
ATOM      6  C   LIG    1       -2.491  -3.208  -9.535  0.00  0.00    -0.030 A 
ATOM      7  C   LIG    1       -2.533  -4.367  -8.778  0.00  0.00    +0.050 A 
ATOM      8  C   LIG    1       -2.049  -4.374  -7.488  0.00  0.00    +0.020 A 
ATOM      9  C   LIG    1       -1.521  -3.204  -6.934  0.00  0.00    -0.130 A 
ATOM     10  C   LIG    1       -1.479  -2.032  -7.699  0.00  0.00    +0.130 A 
BRANCH   5  12
ATOM     11  C   LIG    1       -2.449  -0.991 -11.080  0.00  0.00    +0.250 C 
ATOM     12  O   LIG    1       -1.931  -0.908  -9.751  0.00  0.00    -0.300 OA
ENDBRANCH   5  12
BRANCH  10  13
ATOM     13  O   LIG    1       -0.966  -0.891  -7.172  0.00  0.00    -0.310 OA
ATOM     14  C   LIG    1        0.435  -0.668  -7.349  0.00  0.00    +0.240 C 
ENDBRANCH  10  13
ENDBRANCH   1   9
BRANCH   2  15
ATOM     15  C   LIG    1       -0.472  -4.364  -3.544  0.00  0.00    +0.160 A 
ATOM     16  C   LIG    1        0.148  -5.520  -3.087  0.00  0.00    -0.010 A 
ATOM     17  C   LIG    1        0.717  -5.549  -1.828  0.00  0.00    +0.060 A 
ATOM     18  C   LIG    1        0.672  -4.429  -1.021  0.00  0.00    -0.010 A 
ATOM     19  C   LIG    1        0.053  -3.270  -1.472  0.00  0.00    +0.170 A 
ATOM     20  C   LIG    1       -0.524  -3.239  -2.732  0.00  0.00    +0.040 A 
BRANCH  19  21
ATOM     21  N   LIG    1        0.008  -2.134  -0.651  0.00  0.00    -0.330 N 
ATOM     22  N   LIG    1       -1.098  -1.294  -0.467  0.00  0.00    -0.290 NA
ATOM     23  C   LIG    1       -0.756  -0.344   0.366  0.00  0.00    +0.080 A 
ATOM     24  C   LIG    1        0.575  -0.552   0.745  0.00  0.00    -0.110 A 
ATOM     25  C   LIG    1       -1.644   0.778   0.839  0.00  0.00    +0.160 C 
ATOM     26  C   LIG    1        1.022  -1.659   0.107  0.00  0.00    +0.090 A 
ATOM     27  C   LIG    1        2.401  -2.254   0.221  0.00  0.00    +0.140 C 
ENDBRANCH  19  21
ENDBRANCH   2  15
TORSDOF 5
