REMARK  Name = ZINCwl0000000CKd.0
REMARK                            x       y       z     vdW  Elec       q    Type
REMARK                         _______ _______ _______ _____ _____    ______ ____
ROOT
ATOM      1  C   LIG    1        0.819  13.261   1.867  0.00  0.00    +0.590 C 
ATOM      2  N   LIG    1        0.937  11.944   1.605  0.00  0.00    -0.620 N 
ATOM      3  C   LIG    1        0.641  11.417   0.266  0.00  0.00    +0.300 C 
ATOM      4  C   LIG    1       -0.382  10.284   0.398  0.00  0.00    +0.030 C 
ATOM      5  C   LIG    1        0.145   9.238   1.383  0.00  0.00    +0.220 C 
ATOM      6  C   LIG    1        0.334   9.880   2.759  0.00  0.00    +0.030 C 
ATOM      7  C   LIG    1        1.365  11.008   2.654  0.00  0.00    +0.260 C 
ATOM      8  O   LIG    1        0.357  14.009   1.025  0.00  0.00    -0.510 OA
ENDROOT
BRANCH   1  14
ATOM      9  C   LIG    1        2.999  14.840   7.265  0.00  0.00    +0.170 A 
ATOM     10  C   LIG    1        2.183  15.957   7.090  0.00  0.00    -0.080 A 
ATOM     11  C   LIG    1        1.429  16.095   5.963  0.00  0.00    +0.120 A 
ATOM     12  C   LIG    1        1.472  15.108   4.968  0.00  0.00    -0.160 A 
ATOM     13  C   LIG    1        0.826  14.962   3.718  0.00  0.00    +0.080 A 
ATOM     14  C   LIG    1        1.247  13.793   3.167  0.00  0.00    -0.010 A 
ATOM     15  N   LIG    1        2.139  13.182   4.029  0.00  0.00    -0.590 N 
ATOM     16  H   LIG    1        2.583  12.333   3.875  0.00  0.00    +0.420 HD
ATOM     17  C   LIG    1        2.296  13.977   5.140  0.00  0.00    +0.150 A 
ATOM     18  C   LIG    1        3.058  13.854   6.297  0.00  0.00    -0.060 A 
BRANCH   9  20
ATOM     19  C   LIG    1        3.639  15.772   9.356  0.00  0.00    +0.250 C 
ATOM     20  O   LIG    1        3.743  14.719   8.395  0.00  0.00    -0.310 OA
ENDBRANCH   9  20
ENDBRANCH   1  14
BRANCH   5  21
ATOM     21  N   LIG    1       -0.816   8.137   1.486  0.00  0.00    -0.600 N 
ATOM     22  C   LIG    1       -0.456   6.891   1.118  0.00  0.00    +0.530 C 
ATOM     23  O   LIG    1       -1.270   5.993   1.141  0.00  0.00    -0.510 OA
ATOM     24  C   LIG    1       -2.169   8.390   1.989  0.00  0.00    +0.310 C 
BRANCH  22  25
ATOM     25  C   LIG    1        0.959   6.615   0.678  0.00  0.00    -0.020 C 
ATOM     26  C   LIG    1        1.907   6.803   1.863  0.00  0.00    +0.340 C 
ATOM     27  N   LIG    1        3.287   6.490   1.478  0.00  0.00    -0.620 NA
ATOM     28  C   LIG    1        3.504   5.573   0.572  0.00  0.00    +0.620 C 
ATOM     29  N   LIG    1        4.669   5.091   0.092  0.00  0.00    -0.520 NA
ATOM     30  C   LIG    1        4.435   4.157  -0.792  0.00  0.00    +0.710 C 
ATOM     31  N   LIG    1        3.090   3.980  -0.927  0.00  0.00    -0.450 N 
ATOM     32  H   LIG    1        2.645   3.341  -1.506  0.00  0.00    +0.480 HD
ATOM     33  N   LIG    1        2.479   4.895  -0.074  0.00  0.00    -0.400 NA
ATOM     34  H   LIG    1        4.030   6.959   1.889  0.00  0.00    +0.460 HD
ATOM     35  C   LIG    1        1.061   5.171   0.160  0.00  0.00    +0.400 C 
ENDBRANCH  22  25
ENDBRANCH   5  21
TORSDOF 4
