REMARK  Name = ZINCpk00000KfLhc.0
REMARK                            x       y       z     vdW  Elec       q    Type
REMARK                         _______ _______ _______ _____ _____    ______ ____
ROOT
ATOM      1  C   LIG    1       -2.598  -2.791  -1.847  0.00  0.00    -0.650 A 
ATOM      2  C   LIG    1       -3.444  -2.425  -2.879  0.00  0.00    +0.090 A 
ATOM      3  C   LIG    1       -3.713  -1.092  -3.114  0.00  0.00    +0.060 A 
ATOM      4  C   LIG    1       -3.122  -0.112  -2.315  0.00  0.00    -0.100 A 
ATOM      5  C   LIG    1       -2.265  -0.488  -1.279  0.00  0.00    +0.060 A 
ATOM      6  C   LIG    1       -2.009  -1.825  -1.051  0.00  0.00    +0.110 A 
ENDROOT
BRANCH   1   7
ATOM      7  S   LIG    1       -2.264  -4.495  -1.550  0.00  0.00    +2.690 S 
ATOM      8  O   LIG    1       -1.015  -4.547  -0.874  0.00  0.00    -0.950 OA
ATOM      9  O   LIG    1       -2.514  -5.173  -2.773  0.00  0.00    -0.950 OA
BRANCH   7  10
ATOM     10  N   LIG    1       -3.400  -5.037  -0.474  0.00  0.00    -0.990 NA
BRANCH  10  12
ATOM     11  C   LIG    1       -4.550  -7.118  -1.050  0.00  0.00    +0.010 C 
ATOM     12  C   LIG    1       -4.664  -5.594  -0.963  0.00  0.00    +0.280 C 
ENDBRANCH  10  12
BRANCH  10  13
ATOM     13  C   LIG    1       -3.142  -4.960   0.966  0.00  0.00    +0.290 C 
ATOM     14  C   LIG    1       -3.756  -3.675   1.526  0.00  0.00    +0.010 C 
ENDBRANCH  10  13
ENDBRANCH   7  10
ENDBRANCH   1   7
BRANCH   4  15
ATOM     15  C   LIG    1       -3.401   1.318  -2.565  0.00  0.00    +0.580 C 
ATOM     16  N   LIG    1       -3.598   1.756  -3.824  0.00  0.00    -0.600 N 
ATOM     17  O   LIG    1       -3.453   2.099  -1.635  0.00  0.00    -0.510 OA
BRANCH  16  18
ATOM     18  C   LIG    1       -4.248   0.887  -4.809  0.00  0.00    +0.160 C 
ATOM     19  C   LIG    1       -3.325  -0.287  -5.141  0.00  0.00    +0.040 C 
ATOM     20  C   LIG    1       -4.536   1.685  -6.082  0.00  0.00    +0.060 C 
ATOM     21  C   LIG    1       -5.562   0.356  -4.231  0.00  0.00    +0.050 C 
ENDBRANCH  16  18
BRANCH  16  22
ATOM     22  C   LIG    1       -3.162   3.100  -4.209  0.00  0.00    +0.330 C 
BRANCH  22  23
ATOM     23  C   LIG    1       -1.745   3.042  -4.720  0.00  0.00    +0.490 C 
ATOM     24  O   LIG    1       -1.158   1.982  -4.758  0.00  0.00    -0.530 OA
ATOM     25  N   LIG    1       -1.131   4.168  -5.133  0.00  0.00    -0.850 N 
ATOM     26  H   LIG    1       -0.219   4.131  -5.462  0.00  0.00    +0.400 HD
ATOM     27  H   LIG    1       -1.601   5.016  -5.102  0.00  0.00    +0.400 HD
ENDBRANCH  22  23
ENDBRANCH  16  22
ENDBRANCH   4  15
TORSDOF 8
