REMARK  Name = ZINCvU0000000GGG.0
REMARK                            x       y       z     vdW  Elec       q    Type
REMARK                         _______ _______ _______ _____ _____    ______ ____
ROOT
ATOM      1  C   LIG    1       -2.913   4.726  -0.877  0.00  0.00    +0.160 A 
ATOM      2  N   LIG    1       -4.121   5.089  -0.504  0.00  0.00    -0.280 NA
ATOM      3  N   LIG    1       -4.435   4.513   0.601  0.00  0.00    -0.250 NA
ATOM      4  C   LIG    1       -3.449   3.743   1.001  0.00  0.00    +0.230 A 
ATOM      5  N   LIG    1       -2.441   3.859   0.069  0.00  0.00    -0.410 N 
ENDROOT
BRANCH   5   6
ATOM      6  C   LIG    1       -1.194   3.218   0.084  0.00  0.00    +0.120 A 
ATOM      7  C   LIG    1       -1.117   1.844  -0.095  0.00  0.00    +0.070 A 
ATOM      8  C   LIG    1        0.112   1.213  -0.075  0.00  0.00    +0.080 A 
ATOM      9  C   LIG    1        1.267   1.951   0.113  0.00  0.00    -0.010 A 
ATOM     10  C   LIG    1        1.193   3.324   0.287  0.00  0.00    -0.020 A 
ATOM     11 CL   LIG    1        2.644   4.247   0.522  0.00  0.00    -0.020 Cl
ATOM     12 CL   LIG    1        2.810   1.157   0.131  0.00  0.00    -0.020 Cl
ATOM     13  C   LIG    1       -0.035   3.958   0.273  0.00  0.00    +0.070 A 
ENDBRANCH   5   6
BRANCH   4  14
ATOM     14  C   LIG    1       -3.425   2.910   2.221  0.00  0.00    +0.030 A 
ATOM     15  C   LIG    1       -4.609   2.589   2.897  0.00  0.00    +0.020 A 
ATOM     16  C   LIG    1       -4.540   1.806   4.030  0.00  0.00    +0.280 A 
ATOM     17  N   LIG    1       -3.380   1.369   4.483  0.00  0.00    -0.470 NA
ATOM     18  C   LIG    1       -2.241   1.653   3.880  0.00  0.00    +0.270 A 
ATOM     19  C   LIG    1       -2.217   2.425   2.738  0.00  0.00    -0.030 A 
ENDBRANCH   4  14
BRANCH   1  20
ATOM     20  S   LIG    1       -2.062   5.258  -2.325  0.00  0.00    +0.100 S 
BRANCH  20  21
ATOM     21  C   LIG    1       -3.309   6.361  -3.036  0.00  0.00    +0.110 C 
BRANCH  21  23
ATOM     22  N   LIG    1       -3.548   7.806  -5.029  0.00  0.00    -0.600 N 
ATOM     23  C   LIG    1       -2.786   6.949  -4.321  0.00  0.00    +0.540 C 
ATOM     24  O   LIG    1       -1.679   6.652  -4.717  0.00  0.00    -0.520 OA
BRANCH  22  25
ATOM     25  C   LIG    1       -4.886   8.164  -4.550  0.00  0.00    +0.270 C 
BRANCH  25  27
ATOM     26  C   LIG    1       -6.188   9.771  -3.148  0.00  0.00    +0.030 C 
ATOM     27  C   LIG    1       -4.791   9.396  -3.648  0.00  0.00    -0.010 C 
ENDBRANCH  25  27
ENDBRANCH  22  25
BRANCH  22  28
ATOM     28  C   LIG    1       -3.040   8.378  -6.278  0.00  0.00    +0.330 C 
BRANCH  28  29
ATOM     29  C   LIG    1       -3.423   7.470  -7.448  0.00  0.00    -0.080 C 
ATOM     30  C   LIG    1       -2.287   6.809  -8.231  0.00  0.00    +0.020 C 
ATOM     31  C   LIG    1       -3.083   7.954  -8.859  0.00  0.00    +0.030 C 
ENDBRANCH  28  29
ENDBRANCH  22  28
ENDBRANCH  21  23
ENDBRANCH  20  21
ENDBRANCH   1  20
TORSDOF 9
