REMARK  Name = ZINCpe000000SCI2.0
REMARK                            x       y       z     vdW  Elec       q    Type
REMARK                         _______ _______ _______ _____ _____    ______ ____
ROOT
ATOM      1  C   LIG    1       -2.340  -0.223  -0.891  0.00  0.00    +0.500 C 
ATOM      2  N   LIG    1       -1.020  -0.456  -1.038  0.00  0.00    -0.720 N 
ATOM      3  H   LIG    1       -0.695  -0.926  -1.822  0.00  0.00    +0.400 HD
ATOM      4  O   LIG    1       -2.738   0.438   0.045  0.00  0.00    -0.490 OA
ENDROOT
BRANCH   2   5
ATOM      5  C   LIG    1       -0.077   0.000  -0.014  0.00  0.00    +0.190 C 
ATOM      6  C   LIG    1        1.379  -0.208  -0.488  0.00  0.00    +0.030 C 
ATOM      7  C   LIG    1        1.971   1.219  -0.518  0.00  0.00    +0.210 C 
ATOM      8  O   LIG    1        1.163   1.974   0.411  0.00  0.00    -0.370 OA
ATOM      9  C   LIG    1       -0.192   1.528   0.186  0.00  0.00    +0.230 C 
BRANCH   5  10
ATOM     10  C   LIG    1       -0.320  -0.723   1.286  0.00  0.00    -0.080 A 
ATOM     11  C   LIG    1       -0.032  -0.102   2.486  0.00  0.00    +0.030 A 
ATOM     12  C   LIG    1       -0.260  -0.763   3.679  0.00  0.00    +0.000 A 
ATOM     13  C   LIG    1       -0.767  -2.049   3.670  0.00  0.00    +0.000 A 
ATOM     14  C   LIG    1       -1.050  -2.672   2.469  0.00  0.00    +0.000 A 
ATOM     15  C   LIG    1       -0.827  -2.009   1.277  0.00  0.00    +0.010 A 
ENDBRANCH   5  10
ENDBRANCH   2   5
BRANCH   1  16
ATOM     16  C   LIG    1       -3.320  -0.785  -1.888  0.00  0.00    +0.260 C 
BRANCH  16  19
ATOM     17  C   LIG    1       -6.614   0.283  -0.257  0.00  0.00    +0.080 C 
ATOM     18  C   LIG    1       -5.238   0.320  -0.870  0.00  0.00    +0.520 C 
ATOM     19  N   LIG    1       -4.657  -0.821  -1.291  0.00  0.00    -0.720 N 
ATOM     20  H   LIG    1       -5.124  -1.666  -1.199  0.00  0.00    +0.400 HD
ATOM     21  O   LIG    1       -4.654   1.377  -0.986  0.00  0.00    -0.520 OA
ENDBRANCH  16  19
BRANCH  16  22
ATOM     22  C   LIG    1       -3.342   0.101  -3.135  0.00  0.00    +0.130 C 
BRANCH  22  23
ATOM     23  C   LIG    1       -4.228  -0.525  -4.181  0.00  0.00    +0.010 A 
ATOM     24  C   LIG    1       -5.274   0.066  -4.789  0.00  0.00    +0.120 A 
ATOM     25  N   LIG    1       -5.794  -0.851  -5.662  0.00  0.00    -0.570 N 
ATOM     26  H   LIG    1       -6.557  -0.720  -6.247  0.00  0.00    +0.420 HD
ATOM     27  C   LIG    1       -5.048  -1.971  -5.557  0.00  0.00    +0.400 A 
ATOM     28  N   LIG    1       -4.110  -1.767  -4.673  0.00  0.00    -0.490 NA
ENDBRANCH  22  23
ENDBRANCH  16  22
ENDBRANCH   1  16
TORSDOF 6
