REMARK  Name = ZINCvU0000000JtN.0
REMARK                            x       y       z     vdW  Elec       q    Type
REMARK                         _______ _______ _______ _____ _____    ______ ____
ROOT
ATOM      1  C   LIG    1       -2.526   0.068  -1.914  0.00  0.00    +0.520 C 
ATOM      2  N   LIG    1       -1.873  -0.952  -1.322  0.00  0.00    -0.600 N 
ATOM      3  O   LIG    1       -2.935  -0.051  -3.050  0.00  0.00    -0.510 OA
ENDROOT
BRANCH   1   4
ATOM      4  C   LIG    1       -2.749   1.356  -1.164  0.00  0.00    +0.260 C 
BRANCH   4   5
ATOM      5  O   LIG    1       -3.469   2.291  -2.011  0.00  0.00    -0.330 OA
BRANCH   5   6
ATOM      6  C   LIG    1       -3.750   3.500  -1.486  0.00  0.00    +0.530 C 
ATOM      7  O   LIG    1       -3.403   3.767  -0.352  0.00  0.00    -0.500 OA
BRANCH   6  16
ATOM      8  C   LIG    1       -5.877   9.870  -0.853  0.00  0.00    +0.030 C 
ATOM      9  C   LIG    1       -5.230   8.543  -1.256  0.00  0.00    -0.010 C 
ATOM     10  C   LIG    1       -5.328   7.551  -0.093  0.00  0.00    +0.020 C 
ATOM     11  C   LIG    1       -4.463   6.327  -0.403  0.00  0.00    +0.120 C 
ATOM     12  C   LIG    1       -4.820   5.816  -1.789  0.00  0.00    -0.050 A 
ATOM     13  C   LIG    1       -5.477   6.546  -2.700  0.00  0.00    -0.210 A 
ATOM     14  S   LIG    1       -5.702   5.632  -4.182  0.00  0.00    +0.210 S 
ATOM     15  C   LIG    1       -4.895   4.269  -3.556  0.00  0.00    +0.000 A 
ATOM     16  C   LIG    1       -4.477   4.497  -2.285  0.00  0.00    -0.150 A 
ATOM     17  C   LIG    1       -5.962   7.965  -2.470  0.00  0.00    +0.120 C 
ENDBRANCH   6  16
ENDBRANCH   5   6
ENDBRANCH   4   5
ENDBRANCH   1   4
BRANCH   2  18
ATOM     18  C   LIG    1       -1.560  -2.162  -2.086  0.00  0.00    +0.340 C 
BRANCH  18  19
ATOM     19  C   LIG    1       -2.695  -3.146  -1.956  0.00  0.00    -0.110 A 
ATOM     20  C   LIG    1       -2.690  -4.075  -0.932  0.00  0.00    +0.010 A 
ATOM     21  C   LIG    1       -3.733  -4.974  -0.810  0.00  0.00    +0.000 A 
ATOM     22  C   LIG    1       -4.776  -4.950  -1.718  0.00  0.00    +0.010 A 
ATOM     23  C   LIG    1       -4.778  -4.024  -2.744  0.00  0.00    +0.000 A 
ATOM     24  C   LIG    1       -3.737  -3.122  -2.863  0.00  0.00    +0.040 A 
ENDBRANCH  18  19
ENDBRANCH   2  18
BRANCH   2  25
ATOM     25  C   LIG    1       -1.476  -0.850   0.084  0.00  0.00    +0.330 C 
BRANCH  25  26
ATOM     26  C   LIG    1       -0.048  -0.375   0.170  0.00  0.00    -0.110 A 
ATOM     27  C   LIG    1        0.224   0.970   0.339  0.00  0.00    +0.010 A 
ATOM     28  C   LIG    1        1.534   1.405   0.418  0.00  0.00    +0.000 A 
ATOM     29  C   LIG    1        2.571   0.496   0.326  0.00  0.00    +0.010 A 
ATOM     30  C   LIG    1        2.299  -0.849   0.158  0.00  0.00    +0.000 A 
ATOM     31  C   LIG    1        0.989  -1.284   0.080  0.00  0.00    +0.020 A 
ENDBRANCH  25  26
ENDBRANCH   2  25
TORSDOF 8
