REMARK  Name = ZINCrH000004r6OO.0
REMARK                            x       y       z     vdW  Elec       q    Type
REMARK                         _______ _______ _______ _____ _____    ______ ____
ROOT
ATOM      1  C   LIG    1        0.357  12.290   2.741  0.00  0.00    +0.560 C 
ATOM      2  N   LIG    1        0.567  11.622   1.589  0.00  0.00    -0.730 N 
ATOM      3  H   LIG    1        0.536  12.094   0.742  0.00  0.00    +0.400 HD
ATOM      4  O   LIG    1        0.395  11.698   3.802  0.00  0.00    -0.530 OA
ENDROOT
BRANCH   1  11
ATOM      5  C   LIG    1       -0.368  13.649   5.186  0.00  0.00    +0.110 C 
ATOM      6  C   LIG    1       -0.270  14.410   3.889  0.00  0.00    +0.010 A 
ATOM      7  C   LIG    1       -0.523  15.767   3.866  0.00  0.00    +0.000 A 
ATOM      8  C   LIG    1       -0.440  16.471   2.681  0.00  0.00    +0.080 A 
ATOM      9  C   LIG    1       -0.096  15.815   1.497  0.00  0.00    -0.160 A 
ATOM     10  C   LIG    1        0.166  14.446   1.514  0.00  0.00    +0.120 A 
ATOM     11  C   LIG    1        0.082  13.742   2.713  0.00  0.00    -0.150 A 
BRANCH   9  12
ATOM     12  C   LIG    1       -0.009  16.570   0.229  0.00  0.00    +0.570 C 
ATOM     13  O   LIG    1        0.291  15.997  -0.800  0.00  0.00    -0.540 OA
ATOM     14  N   LIG    1       -0.262  17.893   0.214  0.00  0.00    -0.850 N 
ATOM     15  H   LIG    1       -0.205  18.389  -0.618  0.00  0.00    +0.410 HD
ATOM     16  H   LIG    1       -0.501  18.351   1.036  0.00  0.00    +0.400 HD
ENDBRANCH   9  12
ENDBRANCH   1  11
BRANCH   2  17
ATOM     17  C   LIG    1        0.840  10.183   1.616  0.00  0.00    +0.270 C 
BRANCH  17  18
ATOM     18  C   LIG    1        1.038   9.674   0.187  0.00  0.00    +0.070 C 
BRANCH  18  19
ATOM     19  C   LIG    1        1.319   8.194   0.215  0.00  0.00    -0.080 A 
ATOM     20  C   LIG    1        0.273   7.292   0.145  0.00  0.00    +0.020 A 
ATOM     21  C   LIG    1        0.524   5.935   0.169  0.00  0.00    +0.020 A 
ATOM     22  C   LIG    1        1.836   5.474   0.265  0.00  0.00    -0.050 A 
ATOM     23  C   LIG    1        2.886   6.387   0.341  0.00  0.00    +0.020 A 
ATOM     24  C   LIG    1        2.623   7.742   0.310  0.00  0.00    +0.020 A 
BRANCH  22  25
ATOM     25  C   LIG    1        2.112   4.017   0.293  0.00  0.00    -0.050 A 
ATOM     26  C   LIG    1        3.424   3.556   0.389  0.00  0.00    +0.020 A 
ATOM     27  C   LIG    1        3.676   2.199   0.414  0.00  0.00    +0.000 A 
ATOM     28  C   LIG    1        2.629   1.297   0.343  0.00  0.00    +0.000 A 
ATOM     29  C   LIG    1        1.326   1.750   0.243  0.00  0.00    +0.000 A 
ATOM     30  C   LIG    1        1.062   3.104   0.222  0.00  0.00    +0.020 A 
ENDBRANCH  22  25
ENDBRANCH  18  19
ENDBRANCH  17  18
ENDBRANCH   2  17
TORSDOF 6
