REMARK  Name = ZINCpe00000MJJks.0
REMARK                            x       y       z     vdW  Elec       q    Type
REMARK                         _______ _______ _______ _____ _____    ______ ____
ROOT
ATOM      1  C   LIG    1       -5.603   6.431  -1.318  0.00  0.00    +0.210 C 
ATOM      2  C   LIG    1       -4.854   5.513  -0.316  0.00  0.00    +0.070 C 
ATOM      3  C   LIG    1       -3.510   6.222  -0.139  0.00  0.00    +0.200 C 
ATOM      4  C   LIG    1       -3.385   6.968  -1.499  0.00  0.00    +0.130 C 
ATOM      5  C   LIG    1       -2.201   7.902  -1.393  0.00  0.00    +0.050 C 
ATOM      6  C   LIG    1       -0.940   7.030  -1.261  0.00  0.00    +0.040 C 
ATOM      7  C   LIG    1       -1.032   6.090  -0.056  0.00  0.00    +0.260 C 
ATOM      8  C   LIG    1       -0.893   6.903   1.233  0.00  0.00    +0.020 C 
ATOM      9  N   LIG    1       -2.328   5.377  -0.044  0.00  0.00    -0.580 N 
ATOM     10  C   LIG    1       -2.409   4.036   0.055  0.00  0.00    +0.590 C 
ATOM     11  O   LIG    1       -3.494   3.500   0.175  0.00  0.00    -0.530 OA
ATOM     12  O   LIG    1       -4.692   7.504  -1.676  0.00  0.00    -0.330 OA
ENDROOT
BRANCH  10  13
ATOM     13  C   LIG    1       -1.179   3.215   0.018  0.00  0.00    -0.030 A 
ATOM     14  C   LIG    1       -1.268   1.818  -0.021  0.00  0.00    +0.140 A 
ATOM     15  C   LIG    1       -0.090   1.093  -0.050  0.00  0.00    -0.030 A 
ATOM     16  C   LIG    1        1.114   1.799  -0.048  0.00  0.00    +0.360 A 
ATOM     17  N   LIG    1        1.104   3.127  -0.015  0.00  0.00    -0.310 NA
ATOM     18  N   LIG    1        0.012   3.801   0.017  0.00  0.00    -0.160 NA
BRANCH  16  19
ATOM     19  N   LIG    1        2.318   1.115  -0.082  0.00  0.00    -0.600 N 
ATOM     20  C   LIG    1        3.582   1.856  -0.078  0.00  0.00    +0.300 C 
ATOM     21  C   LIG    1        2.328  -0.349  -0.122  0.00  0.00    +0.300 C 
ENDBRANCH  16  19
ENDBRANCH  10  13
BRANCH   1  22
ATOM     22  C   LIG    1       -6.838   7.001  -0.669  0.00  0.00    +0.460 C 
ATOM     23  O   LIG    1       -6.925   8.190  -0.477  0.00  0.00    -0.490 OA
BRANCH  22  25
ATOM     24  C   LIG    1       -8.999   6.804   0.316  0.00  0.00    +0.270 C 
ATOM     25  O   LIG    1       -7.840   6.186  -0.304  0.00  0.00    -0.350 OA
ENDBRANCH  22  25
ENDBRANCH   1  22
TORSDOF 4
