REMARK  Name = ZINCrD0000074A9E.0
REMARK                            x       y       z     vdW  Elec       q    Type
REMARK                         _______ _______ _______ _____ _____    ______ ____
ROOT
ATOM      1  N   LIG    1        0.620   3.192   0.013  0.00  0.00    -0.390 N 
ATOM      2  C   LIG    1        1.052   1.895   0.002  0.00  0.00    +0.020 A 
ATOM      3  C   LIG    1       -0.013   1.076   0.008  0.00  0.00    +0.000 A 
ATOM      4  C   LIG    1       -1.201   1.940   0.018  0.00  0.00    -0.270 A 
ATOM      5  C   LIG    1        2.493   1.454  -0.013  0.00  0.00    +0.130 C 
ATOM      6  C   LIG    1       -0.726   3.238   0.026  0.00  0.00    +0.130 A 
ATOM      7  C   LIG    1       -1.568   4.488   0.041  0.00  0.00    +0.150 C 
ENDROOT
BRANCH   1  12
ATOM      8  C   LIG    1        4.018   7.738   0.005  0.00  0.00    +0.100 C 
ATOM      9  C   LIG    1        3.115   6.531   0.007  0.00  0.00    -0.070 A 
ATOM     10  C   LIG    1        3.097   5.681  -1.083  0.00  0.00    +0.020 A 
ATOM     11  C   LIG    1        2.272   4.574  -1.084  0.00  0.00    +0.030 A 
ATOM     12  C   LIG    1        1.459   4.315   0.011  0.00  0.00    +0.100 A 
ATOM     13  C   LIG    1        1.475   5.173   1.103  0.00  0.00    +0.030 A 
ATOM     14  C   LIG    1        2.307   6.275   1.100  0.00  0.00    +0.020 A 
ENDBRANCH   1  12
BRANCH   4  15
ATOM     15  C   LIG    1       -2.602   1.513   0.021  0.00  0.00    +0.430 C 
ATOM     16  O   LIG    1       -3.488   2.341   0.029  0.00  0.00    -0.450 OA
BRANCH  15  17
ATOM     17  C   LIG    1       -2.942   0.045   0.015  0.00  0.00    +0.250 C 
BRANCH  17  18
ATOM     18  O   LIG    1       -4.385  -0.117   0.020  0.00  0.00    -0.340 OA
BRANCH  18  19
ATOM     19  C   LIG    1       -4.857  -1.374   0.015  0.00  0.00    +0.440 C 
ATOM     20  O   LIG    1       -4.090  -2.307   0.008  0.00  0.00    -0.490 OA
BRANCH  19  21
ATOM     21  C   LIG    1       -6.344  -1.620   0.020  0.00  0.00    +0.150 C 
ATOM     22  C   LIG    1       -6.859  -1.555   1.455  0.00  0.00    +0.040 C 
ATOM     23  C   LIG    1       -8.390  -1.530   1.459  0.00  0.00    +0.130 C 
ATOM     24  S   LIG    1       -9.005  -3.082   0.741  0.00  0.00    -0.260 S 
ATOM     25  C   LIG    1       -8.130  -3.143  -0.850  0.00  0.00    +0.130 C 
ATOM     26  C   LIG    1       -6.628  -2.988  -0.595  0.00  0.00    +0.090 C 
BRANCH  21  27
ATOM     27  O   LIG    1       -6.990  -0.611  -0.758  0.00  0.00    -0.540 OA
ATOM     28  H   LIG    1       -6.847   0.288  -0.433  0.00  0.00    +0.390 HD
ENDBRANCH  21  27
ENDBRANCH  19  21
ENDBRANCH  18  19
ENDBRANCH  17  18
ENDBRANCH  15  17
ENDBRANCH   4  15
TORSDOF 7
