REMARK  Name = ZINCrD0000073Z7E.0
REMARK                            x       y       z     vdW  Elec       q    Type
REMARK                         _______ _______ _______ _____ _____    ______ ____
ROOT
ATOM      1  N   LIG    1        5.130   5.003   2.569  0.00  0.00    -0.620 N 
ATOM      2  H   LIG    1        4.677   4.903   3.421  0.00  0.00    +0.430 HD
ATOM      3  C   LIG    1        6.402   5.447   2.531  0.00  0.00    +0.510 C 
ATOM      4  O   LIG    1        6.969   5.573   1.466  0.00  0.00    -0.500 OA
ENDROOT
BRANCH   1   8
ATOM      5  C   LIG    1        2.776   4.006   0.106  0.00  0.00    +0.090 A 
ATOM      6  C   LIG    1        3.638   4.240  -0.886  0.00  0.00    -0.110 A 
ATOM      7  S   LIG    1        5.144   4.818  -0.177  0.00  0.00    +0.250 S 
ATOM      8  C   LIG    1        4.468   4.689   1.388  0.00  0.00    +0.230 A 
ATOM      9  N   LIG    1        3.247   4.261   1.313  0.00  0.00    -0.500 NA
BRANCH   5  10
ATOM     10  C   LIG    1        1.378   3.499  -0.132  0.00  0.00    +0.270 C 
BRANCH  10  16
ATOM     11  C   LIG    1       -1.433  -0.535   0.035  0.00  0.00    +0.020 C 
ATOM     12  C   LIG    1        0.002  -0.004   0.002  0.00  0.00    -0.010 C 
ATOM     13  C   LIG    1        0.761  -0.506   1.233  0.00  0.00    +0.000 C 
ATOM     14  C   LIG    1        2.177   0.078   1.224  0.00  0.00    +0.010 C 
ATOM     15  C   LIG    1        2.093   1.605   1.197  0.00  0.00    +0.160 C 
ATOM     16  N   LIG    1        1.359   2.036   0.000  0.00  0.00    -0.530 NA
ATOM     17  C   LIG    1       -0.019   1.526   0.010  0.00  0.00    +0.170 C 
ENDBRANCH  10  16
ENDBRANCH   5  10
ENDBRANCH   1   8
BRANCH   3  18
ATOM     18  C   LIG    1        7.121   5.788   3.811  0.00  0.00    +0.330 C 
BRANCH  18  19
ATOM     19  N   LIG    1        8.479   6.243   3.503  0.00  0.00    -0.720 N 
ATOM     20  H   LIG    1        8.779   6.285   2.582  0.00  0.00    +0.410 HD
ATOM     21  C   LIG    1        9.310   6.604   4.500  0.00  0.00    +0.570 C 
ATOM     22  O   LIG    1        8.934   6.552   5.655  0.00  0.00    -0.530 OA
BRANCH  21  23
ATOM     23  C   LIG    1       10.680   7.064   4.189  0.00  0.00    -0.140 A 
ATOM     24  C   LIG    1       11.117   7.120   2.865  0.00  0.00    +0.070 A 
ATOM     25  C   LIG    1       12.395   7.553   2.581  0.00  0.00    +0.020 A 
ATOM     26  C   LIG    1       13.248   7.924   3.607  0.00  0.00    -0.010 A 
ATOM     27  C   LIG    1       12.822   7.866   4.924  0.00  0.00    +0.020 A 
ATOM     28 CL   LIG    1       14.857   8.463   3.243  0.00  0.00    -0.060 Cl
ATOM     29  C   LIG    1       11.544   7.438   5.220  0.00  0.00    +0.110 A 
ENDBRANCH  21  23
ENDBRANCH  18  19
ENDBRANCH   3  18
TORSDOF 6
