REMARK  Name = ZINCrD00000dTtsc.0
REMARK                            x       y       z     vdW  Elec       q    Type
REMARK                         _______ _______ _______ _____ _____    ______ ____
ROOT
ATOM      1  N   LIG    1        3.425   0.716  -0.148  0.00  0.00    -0.460 N 
ATOM      2  C   LIG    1        3.863   1.426  -1.359  0.00  0.00    +0.190 C 
ATOM      3  C   LIG    1        5.392   1.500  -1.377  0.00  0.00    +0.240 C 
ATOM      4  O   LIG    1        5.928   0.176  -1.302  0.00  0.00    -0.370 OA
ATOM      5  C   LIG    1        5.523  -0.545  -0.135  0.00  0.00    +0.170 C 
ATOM      6  C   LIG    1        3.995  -0.639  -0.105  0.00  0.00    +0.200 C 
ENDROOT
BRANCH   1  11
ATOM      7  N   LIG    1        1.269   1.239   0.904  0.00  0.00    -0.460 N 
ATOM      8  C   LIG    1       -0.023   0.942   0.569  0.00  0.00    +0.180 A 
ATOM      9  N   LIG    1        0.012   0.249  -0.533  0.00  0.00    -0.250 NA
ATOM     10  N   LIG    1        1.229   0.088  -0.914  0.00  0.00    -0.300 NA
ATOM     11  C   LIG    1        2.042   0.675  -0.069  0.00  0.00    +0.350 A 
BRANCH   8  12
ATOM     12  C   LIG    1       -1.259   1.348   1.330  0.00  0.00    +0.260 C 
ATOM     13  C   LIG    1       -1.962   2.489   0.591  0.00  0.00    +0.020 C 
ATOM     14  C   LIG    1       -3.248   2.855   1.338  0.00  0.00    +0.030 C 
ATOM     15  C   LIG    1       -4.130   1.607   1.456  0.00  0.00    +0.000 C 
ATOM     16  C   LIG    1       -3.342   0.501   2.162  0.00  0.00    +0.210 C 
ATOM     17  O   LIG    1       -2.144   0.231   1.433  0.00  0.00    -0.360 OA
ENDBRANCH   8  12
BRANCH   7  19
ATOM     18  C   LIG    1        1.960   1.052   3.243  0.00  0.00    +0.040 C 
ATOM     19  C   LIG    1        1.728   2.003   2.067  0.00  0.00    +0.290 C 
ENDBRANCH   7  19
ENDBRANCH   1  11
BRANCH   5  20
ATOM     20  C   LIG    1        6.121  -1.953  -0.170  0.00  0.00    +0.050 C 
BRANCH  20  21
ATOM     21  C   LIG    1        7.645  -1.862  -0.075  0.00  0.00    +0.070 C 
BRANCH  21  22
ATOM     22  C   LIG    1        8.234  -3.249  -0.109  0.00  0.00    -0.080 A 
ATOM     23  C   LIG    1        8.438  -3.942   1.069  0.00  0.00    +0.000 A 
ATOM     24  C   LIG    1        8.974  -5.216   1.038  0.00  0.00    +0.000 A 
ATOM     25  C   LIG    1        9.315  -5.793  -0.172  0.00  0.00    -0.010 A 
ATOM     26  C   LIG    1        9.116  -5.097  -1.349  0.00  0.00    +0.000 A 
ATOM     27  C   LIG    1        8.575  -3.825  -1.318  0.00  0.00    +0.000 A 
ENDBRANCH  21  22
ENDBRANCH  20  21
ENDBRANCH   5  20
TORSDOF 6
