REMARK  Name = ZINCpe00000gMQyq.0
REMARK                            x       y       z     vdW  Elec       q    Type
REMARK                         _______ _______ _______ _____ _____    ______ ____
ROOT
ATOM      1  C   LIG    1       -1.492   5.705  -3.579  0.00  0.00    +0.520 C 
ATOM      2  O   LIG    1       -1.199   5.167  -4.628  0.00  0.00    -0.500 OA
ENDROOT
BRANCH   1   3
ATOM      3  C   LIG    1       -1.459   4.935  -2.321  0.00  0.00    -0.120 A 
ATOM      4  C   LIG    1       -1.795   5.553  -1.114  0.00  0.00    +0.110 A 
ATOM      5  C   LIG    1       -1.765   4.834   0.062  0.00  0.00    +0.010 A 
ATOM      6  C   LIG    1       -1.399   3.496   0.048  0.00  0.00    +0.140 A 
ATOM      7  N   LIG    1       -1.365   2.756   1.233  0.00  0.00    -0.660 N 
ATOM      8  H   LIG    1       -1.802   3.089   2.033  0.00  0.00    +0.420 HD
ATOM      9  C   LIG    1       -0.717   1.571   1.249  0.00  0.00    +0.490 C 
ATOM     10  C   LIG    1       -0.013   1.086   0.008  0.00  0.00    +0.310 C 
ATOM     11  O   LIG    1       -0.703   1.559  -1.151  0.00  0.00    -0.300 OA
ATOM     12  O   LIG    1       -0.702   0.900   2.259  0.00  0.00    -0.500 OA
ATOM     13  C   LIG    1       -1.060   2.872  -1.156  0.00  0.00    +0.060 A 
ATOM     14  C   LIG    1       -1.090   3.586  -2.335  0.00  0.00    +0.120 A 
ENDBRANCH   1   3
BRANCH   1  15
ATOM     15  O   LIG    1       -1.847   7.004  -3.564  0.00  0.00    -0.330 OA
BRANCH  15  16
ATOM     16  C   LIG    1       -1.858   7.699  -4.839  0.00  0.00    +0.280 C 
BRANCH  16  19
ATOM     17  N   LIG    1       -2.358   9.972  -5.678  0.00  0.00    -0.650 N 
ATOM     18  H   LIG    1       -2.147   9.655  -6.570  0.00  0.00    +0.410 HD
ATOM     19  C   LIG    1       -2.277   9.131  -4.627  0.00  0.00    +0.520 C 
ATOM     20  O   LIG    1       -2.541   9.527  -3.512  0.00  0.00    -0.480 OA
BRANCH  17  25
ATOM     21  C   LIG    1       -3.821  14.219  -3.502  0.00  0.00    +0.160 C 
ATOM     22  C   LIG    1       -3.400  13.208  -4.538  0.00  0.00    +0.090 A 
ATOM     23  N   LIG    1       -3.280  13.431  -5.822  0.00  0.00    -0.290 NA
ATOM     24  N   LIG    1       -2.870  12.244  -6.440  0.00  0.00    -0.390 N 
ATOM     25  C   LIG    1       -2.746  11.297  -5.482  0.00  0.00    +0.300 A 
ATOM     26  C   LIG    1       -2.618  12.059  -7.871  0.00  0.00    +0.360 C 
ATOM     27  C   LIG    1       -3.075  11.871  -4.292  0.00  0.00    -0.100 A 
ENDBRANCH  17  25
ENDBRANCH  16  19
ENDBRANCH  15  16
ENDBRANCH   1  15
TORSDOF 5
