REMARK  Name = ZINCrD000006Cwzm.0
REMARK                            x       y       z     vdW  Elec       q    Type
REMARK                         _______ _______ _______ _____ _____    ______ ____
ROOT
ATOM      1  C   LIG    1        6.524   3.125  -0.986  0.00  0.00    -0.020 C 
ATOM      2  C   LIG    1        6.684   2.216   0.236  0.00  0.00    +0.050 C 
ATOM      3  C   LIG    1        5.755   1.008   0.092  0.00  0.00    +0.200 C 
ATOM      4  N   LIG    1        4.365   1.469  -0.018  0.00  0.00    -0.490 N 
ATOM      5  C   LIG    1        4.176   2.305  -1.210  0.00  0.00    +0.200 C 
ATOM      6  C   LIG    1        5.058   3.551  -1.106  0.00  0.00    +0.040 C 
ENDROOT
BRANCH   4   7
ATOM      7  C   LIG    1        3.489   0.402  -0.019  0.00  0.00    +0.440 A 
ATOM      8  C   LIG    1        2.569   0.227   1.018  0.00  0.00    -0.250 A 
ATOM      9  C   LIG    1        2.196   0.903   2.258  0.00  0.00    +0.100 A 
ATOM     10  N   LIG    1        1.231   0.187   2.761  0.00  0.00    -0.320 NA
ATOM     11  O   LIG    1        0.946  -0.776   2.087  0.00  0.00    +0.090 OA
ATOM     12  C   LIG    1        2.797   2.160   2.833  0.00  0.00    +0.200 C 
ATOM     13  C   LIG    1        1.692  -0.878   0.978  0.00  0.00    +0.260 A 
ATOM     14  N   LIG    1        1.777  -1.712  -0.049  0.00  0.00    -0.500 NA
ATOM     15  C   LIG    1        2.659  -1.511  -1.007  0.00  0.00    +0.580 A 
ATOM     16  N   LIG    1        3.497  -0.491  -1.008  0.00  0.00    -0.550 NA
ENDBRANCH   4   7
BRANCH   1  17
ATOM     17  C   LIG    1        7.405   4.365  -0.820  0.00  0.00    +0.240 C 
ATOM     18  C   LIG    1        8.869   3.937  -0.692  0.00  0.00    +0.020 C 
BRANCH  17  20
ATOM     19  C   LIG    1        7.494   6.555  -1.883  0.00  0.00    +0.580 C 
ATOM     20  N   LIG    1        7.251   5.234  -1.989  0.00  0.00    -0.720 N 
ATOM     21  H   LIG    1        6.974   4.858  -2.839  0.00  0.00    +0.400 HD
ATOM     22  O   LIG    1        7.841   7.026  -0.816  0.00  0.00    -0.530 OA
BRANCH  19  28
ATOM     23  C   LIG    1        8.002   9.598  -1.789  0.00  0.00    +0.120 C 
ATOM     24  C   LIG    1        7.573   8.853  -3.027  0.00  0.00    -0.050 A 
ATOM     25  C   LIG    1        7.377   9.438  -4.203  0.00  0.00    -0.070 A 
ATOM     26  S   LIG    1        6.879   8.259  -5.403  0.00  0.00    +0.190 S 
ATOM     27  C   LIG    1        6.955   6.977  -4.282  0.00  0.00    -0.040 A 
ATOM     28  C   LIG    1        7.339   7.428  -3.058  0.00  0.00    -0.150 A 
ENDBRANCH  19  28
ENDBRANCH  17  20
ENDBRANCH   1  17
TORSDOF 4
