REMARK  Name = ZINCrg000000sw8a.0
REMARK                            x       y       z     vdW  Elec       q    Type
REMARK                         _______ _______ _______ _____ _____    ______ ____
ROOT
ATOM      1  C   LIG    1        8.034   3.866  -2.508  0.00  0.00    +0.000 A 
ATOM      2  C   LIG    1        7.554   3.207  -1.423  0.00  0.00    +0.200 A 
ATOM      3  N   LIG    1        6.664   2.281  -1.867  0.00  0.00    -0.360 N 
ATOM      4  N   LIG    1        6.605   2.376  -3.263  0.00  0.00    -0.250 NA
ATOM      5  C   LIG    1        7.418   3.326  -3.647  0.00  0.00    +0.260 A 
ENDROOT
BRANCH   1   7
ATOM      6  C   LIG    1        9.374   5.477  -3.650  0.00  0.00    +0.530 C 
ATOM      7  N   LIG    1        8.982   4.906  -2.494  0.00  0.00    -0.640 N 
ATOM      8  H   LIG    1        9.354   5.212  -1.651  0.00  0.00    +0.410 HD
ATOM      9  O   LIG    1        8.910   5.094  -4.703  0.00  0.00    -0.520 OA
BRANCH   6  17
ATOM     10  C   LIG    1       11.516   9.092  -7.332  0.00  0.00    +0.200 C 
ATOM     11  C   LIG    1       12.191   8.844  -6.008  0.00  0.00    +0.180 A 
ATOM     12  N   LIG    1       13.266   9.441  -5.560  0.00  0.00    -0.300 NA
ATOM     13  N   LIG    1       13.563   8.983  -4.392  0.00  0.00    -0.290 NA
ATOM     14  C   LIG    1       12.697   8.080  -4.048  0.00  0.00    +0.170 A 
ATOM     15  C   LIG    1       12.639   7.270  -2.777  0.00  0.00    +0.180 C 
ATOM     16  C   LIG    1       11.693   6.084  -3.009  0.00  0.00    +0.050 C 
ATOM     17  C   LIG    1       10.390   6.590  -3.634  0.00  0.00    +0.000 C 
ATOM     18  C   LIG    1       10.657   7.058  -5.070  0.00  0.00    +0.330 C 
ATOM     19  N   LIG    1       11.802   7.968  -5.062  0.00  0.00    -0.470 N 
ENDBRANCH   6  17
ENDBRANCH   1   7
BRANCH   3  20
ATOM     20  C   LIG    1        5.905   1.346  -1.032  0.00  0.00    +0.370 C 
BRANCH  20  21
ATOM     21  C   LIG    1        4.434   1.498  -1.319  0.00  0.00    +0.500 C 
ATOM     22  N   LIG    1        3.537   0.734  -0.664  0.00  0.00    -0.720 N 
ATOM     23  H   LIG    1        3.839   0.086  -0.008  0.00  0.00    +0.400 HD
ATOM     24  O   LIG    1        4.056   2.307  -2.139  0.00  0.00    -0.500 OA
BRANCH  22  25
ATOM     25  C   LIG    1        2.107   0.881  -0.942  0.00  0.00    +0.240 C 
ATOM     26  C   LIG    1        1.477   1.939  -0.002  0.00  0.00    +0.000 C 
ATOM     27  C   LIG    1       -0.019   1.538   0.011  0.00  0.00    +0.010 C 
ATOM     28  C   LIG    1        0.002  -0.004   0.002  0.00  0.00    +0.020 C 
ATOM     29  C   LIG    1        1.353  -0.422  -0.604  0.00  0.00    +0.010 C 
ENDBRANCH  22  25
ENDBRANCH  20  21
ENDBRANCH   3  20
TORSDOF 5
