REMARK  Name = ZINCpe000000YWcf.1
REMARK                            x       y       z     vdW  Elec       q    Type
REMARK                         _______ _______ _______ _____ _____    ______ ____
ROOT
ATOM      1  O   LIG    1       -4.554  -0.163  -0.148  0.00  0.00    -0.510 OA
ATOM      2  C   LIG    1       -3.594  -0.903  -0.144  0.00  0.00    +0.520 C 
ATOM      3  N   LIG    1       -3.772  -2.238  -0.108  0.00  0.00    -0.610 N 
ATOM      4  C   LIG    1       -2.618  -3.148  -0.110  0.00  0.00    +0.270 C 
ATOM      5  C   LIG    1       -2.782  -4.157  -1.244  0.00  0.00    +0.020 C 
ATOM      6  C   LIG    1       -4.135  -4.859  -1.109  0.00  0.00    +0.140 C 
ATOM      7  C   LIG    1       -5.260  -3.826  -1.214  0.00  0.00    +0.010 C 
ATOM      8  C   LIG    1       -5.124  -2.812  -0.073  0.00  0.00    +0.280 C 
ENDROOT
BRANCH   6   9
ATOM      9  O   LIG    1       -4.207  -5.514   0.158  0.00  0.00    -0.550 OA
ATOM     10  H   LIG    1       -4.119  -4.919   0.915  0.00  0.00    +0.370 HD
ENDBRANCH   6   9
BRANCH   6  11
ATOM     11  C   LIG    1       -4.287  -5.892  -2.227  0.00  0.00    +0.210 C 
BRANCH  11  12
ATOM     12  N   LIG    1       -3.131  -6.798  -2.217  0.00  0.00    -0.530 NA
ATOM     13  C   LIG    1       -2.974  -7.467  -3.517  0.00  0.00    +0.140 C 
ATOM     14  C   LIG    1       -1.727  -8.354  -3.481  0.00  0.00    +0.220 C 
ATOM     15  O   LIG    1       -1.841  -9.286  -2.403  0.00  0.00    -0.390 OA
ATOM     16  C   LIG    1       -1.995  -8.669  -1.122  0.00  0.00    +0.220 C 
ATOM     17  C   LIG    1       -3.245  -7.786  -1.134  0.00  0.00    +0.160 C 
ENDBRANCH  11  12
ENDBRANCH   6  11
BRANCH   2  18
ATOM     18  C   LIG    1       -2.201  -0.329  -0.180  0.00  0.00    +0.240 C 
BRANCH  18  19
ATOM     19  O   LIG    1       -2.274   1.097  -0.215  0.00  0.00    -0.280 OA
BRANCH  19  20
ATOM     20  C   LIG    1       -1.095   1.775  -0.250  0.00  0.00    +0.090 A 
ATOM     21  C   LIG    1        0.105   1.081  -0.252  0.00  0.00    -0.040 A 
ATOM     22  C   LIG    1        1.301   1.772  -0.294  0.00  0.00    +0.040 A 
ATOM     23  C   LIG    1        1.303   3.154  -0.328  0.00  0.00    +0.010 A 
ATOM     24  C   LIG    1        0.108   3.850  -0.321  0.00  0.00    +0.040 A 
ATOM     25  C   LIG    1       -1.092   3.164  -0.280  0.00  0.00    +0.070 A 
ATOM     26  F   LIG    1       -2.260   3.844  -0.273  0.00  0.00    -0.130 F 
ENDBRANCH  19  20
ENDBRANCH  18  19
ENDBRANCH   2  18
TORSDOF 6
