REMARK  Name = ZINCrD000000C99K.0
REMARK                            x       y       z     vdW  Elec       q    Type
REMARK                         _______ _______ _______ _____ _____    ______ ____
ROOT
ATOM      1  C   LIG    1       -2.416   7.985  -0.936  0.00  0.00    -0.130 A 
ATOM      2  C   LIG    1       -1.080   7.588  -1.013  0.00  0.00    +0.080 A 
ATOM      3  C   LIG    1       -0.732   6.495  -1.779  0.00  0.00    +0.040 A 
ATOM      4  C   LIG    1       -1.704   5.791  -2.468  0.00  0.00    -0.090 A 
ATOM      5  C   LIG    1       -3.030   6.182  -2.400  0.00  0.00    +0.020 A 
ATOM      6  C   LIG    1       -3.392   7.271  -1.634  0.00  0.00    +0.040 A 
ENDROOT
BRANCH   1   8
ATOM      7  O   LIG    1       -1.945   9.775   0.490  0.00  0.00    -0.510 OA
ATOM      8  C   LIG    1       -2.797   9.156  -0.117  0.00  0.00    +0.560 C 
ATOM      9  N   LIG    1       -4.087   9.536  -0.044  0.00  0.00    -0.670 N 
ATOM     10  H   LIG    1       -4.757   9.085  -0.581  0.00  0.00    +0.410 HD
BRANCH   9  11
ATOM     11  C   LIG    1       -4.461  10.582   0.805  0.00  0.00    +0.140 A 
ATOM     12  C   LIG    1       -5.690  10.549   1.452  0.00  0.00    -0.010 A 
ATOM     13  C   LIG    1       -6.054  11.581   2.294  0.00  0.00    +0.030 A 
ATOM     14  C   LIG    1       -5.200  12.652   2.486  0.00  0.00    -0.010 A 
ATOM     15  C   LIG    1       -3.978  12.691   1.840  0.00  0.00    +0.030 A 
ATOM     16  C   LIG    1       -3.606  11.660   1.000  0.00  0.00    +0.020 A 
ENDBRANCH   9  11
ENDBRANCH   1   8
BRANCH   4  17
ATOM     17  C   LIG    1       -1.317   4.597  -3.302  0.00  0.00    +0.360 C 
BRANCH  17  18
ATOM     18  N   LIG    1       -1.371   3.387  -2.478  0.00  0.00    -0.580 N 
ATOM     19  C   LIG    1       -0.314   2.927  -1.773  0.00  0.00    +0.540 C 
ATOM     20  C   LIG    1       -0.702   1.564  -1.274  0.00  0.00    -0.010 C 
ATOM     21  C   LIG    1       -0.024   1.080  -0.035  0.00  0.00    +0.100 C 
ATOM     22  C   LIG    1       -0.687   1.535   1.227  0.00  0.00    -0.030 C 
ATOM     23  C   LIG    1       -1.848   2.095   1.258  0.00  0.00    -0.050 C 
ATOM     24  C   LIG    1       -2.672   2.411   0.059  0.00  0.00    +0.090 C 
ATOM     25  C   LIG    1       -2.235   1.651  -1.196  0.00  0.00    +0.040 C 
ATOM     26  O   LIG    1        0.737   3.500  -1.581  0.00  0.00    -0.460 OA
ATOM     27  C   LIG    1       -2.480   2.632  -2.355  0.00  0.00    +0.530 C 
ATOM     28  O   LIG    1       -3.483   2.711  -3.031  0.00  0.00    -0.470 OA
ENDBRANCH  17  18
ENDBRANCH   4  17
TORSDOF 4
