REMARK  Name = ZINCrH000004jYr6.0
REMARK                            x       y       z     vdW  Elec       q    Type
REMARK                         _______ _______ _______ _____ _____    ______ ____
ROOT
ATOM      1  C   LIG    1        2.499   1.455  -0.013  0.00  0.00    +0.300 C 
ENDROOT
BRANCH   1   2
ATOM      2  C   LIG    1        1.057   1.892   0.002  0.00  0.00    +0.050 A 
ATOM      3  C   LIG    1       -0.013   1.076   0.008  0.00  0.00    -0.060 A 
ATOM      4  C   LIG    1       -1.159   1.903   0.017  0.00  0.00    +0.090 A 
ATOM      5  C   LIG    1       -0.722   3.175   0.026  0.00  0.00    -0.580 A 
ATOM      6  O   LIG    1        0.621   3.162   0.013  0.00  0.00    -0.110 OA
BRANCH   5   7
ATOM      7  S   LIG    1       -1.739   4.614   0.043  0.00  0.00    +2.740 S 
ATOM      8  O   LIG    1       -2.996   4.223  -0.492  0.00  0.00    -0.930 OA
ATOM      9  O   LIG    1       -0.955   5.665  -0.504  0.00  0.00    -0.930 OA
BRANCH   7  10
ATOM     10  N   LIG    1       -2.007   5.006   1.629  0.00  0.00    -1.010 NA
ATOM     11  C   LIG    1       -3.125   4.525   2.453  0.00  0.00    +0.270 C 
ATOM     12  C   LIG    1       -2.978   5.170   3.847  0.00  0.00    +0.030 C 
ATOM     13  C   LIG    1       -2.112   6.425   3.558  0.00  0.00    +0.040 C 
ATOM     14  C   LIG    1       -1.168   5.901   2.446  0.00  0.00    +0.270 C 
ENDBRANCH   7  10
ENDBRANCH   5   7
ENDBRANCH   1   2
BRANCH   1  16
ATOM     15  C   LIG    1        2.251   0.225  -2.084  0.00  0.00    +0.190 C 
ATOM     16  N   LIG    1        2.955   1.320  -1.403  0.00  0.00    -0.530 NA
BRANCH  16  17
ATOM     17  C   LIG    1        4.410   1.128  -1.464  0.00  0.00    +0.240 C 
BRANCH  17  18
ATOM     18  C   LIG    1        4.872   1.239  -2.894  0.00  0.00    -0.080 A 
ATOM     19  C   LIG    1        4.928   0.112  -3.691  0.00  0.00    +0.050 A 
ATOM     20  C   LIG    1        5.348   0.214  -5.004  0.00  0.00    +0.020 A 
ATOM     21  C   LIG    1        5.721   1.442  -5.517  0.00  0.00    +0.070 A 
ATOM     22  C   LIG    1        5.670   2.570  -4.718  0.00  0.00    -0.180 A 
ATOM     23  C   LIG    1        5.245   2.468  -3.406  0.00  0.00    +0.090 A 
BRANCH  22  24
ATOM     24  C   LIG    1        6.076   3.909  -5.276  0.00  0.00    +0.510 C 
ATOM     25  F   LIG    1        5.354   4.920  -4.635  0.00  0.00    -0.170 F 
ATOM     26  F   LIG    1        5.807   3.942  -6.649  0.00  0.00    -0.180 F 
ATOM     27  F   LIG    1        7.445   4.107  -5.064  0.00  0.00    -0.180 F 
ENDBRANCH  22  24
ENDBRANCH  17  18
ENDBRANCH  16  17
ENDBRANCH   1  16
TORSDOF 7
