REMARK  Name = ZINCtV00000L6kBQ.0
REMARK                            x       y       z     vdW  Elec       q    Type
REMARK                         _______ _______ _______ _____ _____    ______ ____
ROOT
ATOM      1  N   LIG    1       -2.454   3.819   0.045  0.00  0.00    -0.510 N 
ATOM      2  C   LIG    1       -2.579   5.158   0.059  0.00  0.00    +0.580 C 
ATOM      3  C   LIG    1       -4.016   5.496   0.069  0.00  0.00    -0.110 A 
ATOM      4  C   LIG    1       -4.731   6.684   0.082  0.00  0.00    +0.050 A 
ATOM      5  C   LIG    1       -6.121   6.651   0.095  0.00  0.00    -0.000 A 
ATOM      6  C   LIG    1       -6.793   5.442   0.095  0.00  0.00    -0.000 A 
ATOM      7  C   LIG    1       -6.089   4.245   0.083  0.00  0.00    +0.050 A 
ATOM      8 CL   LIG    1       -6.941   2.732   0.083  0.00  0.00    +0.020 Cl
ATOM      9 CL   LIG    1       -8.529   5.422   0.112  0.00  0.00    +0.020 Cl
ATOM     10 CL   LIG    1       -7.018   8.137   0.112  0.00  0.00    +0.020 Cl
ATOM     11 CL   LIG    1       -3.895   8.205   0.083  0.00  0.00    +0.020 Cl
ATOM     12  C   LIG    1       -4.703   4.263   0.069  0.00  0.00    -0.110 A 
ATOM     13  O   LIG    1       -1.663   5.956   0.061  0.00  0.00    -0.410 OA
ATOM     14  C   LIG    1       -3.658   3.220   0.053  0.00  0.00    +0.580 C 
ATOM     15  O   LIG    1       -3.853   2.021   0.048  0.00  0.00    -0.410 OA
ENDROOT
BRANCH   1  19
ATOM     16  C   LIG    1        1.188   1.792   0.000  0.00  0.00    -0.130 A 
ATOM     17  C   LIG    1       -0.013   1.076   0.008  0.00  0.00    +0.120 A 
ATOM     18  C   LIG    1       -1.214   1.749   0.017  0.00  0.00    +0.020 A 
ATOM     19  C   LIG    1       -1.233   3.140   0.030  0.00  0.00    +0.160 A 
ATOM     20  C   LIG    1       -0.041   3.856   0.022  0.00  0.00    +0.020 A 
ATOM     21  C   LIG    1        1.164   3.190   0.008  0.00  0.00    +0.110 A 
BRANCH  16  22
ATOM     22  C   LIG    1        2.477   1.075  -0.016  0.00  0.00    +0.510 C 
ATOM     23  O   LIG    1        2.496  -0.140  -0.022  0.00  0.00    -0.500 OA
BRANCH  22  24
ATOM     24  O   LIG    1        3.633   1.767  -0.023  0.00  0.00    -0.350 OA
BRANCH  24  25
ATOM     25  C   LIG    1        4.863   0.996  -0.039  0.00  0.00    +0.210 C 
BRANCH  25  26
ATOM     26  C   LIG    1        6.061   1.946  -0.045  0.00  0.00    +0.040 C 
BRANCH  26  27
ATOM     27  C   LIG    1        7.357   1.134  -0.062  0.00  0.00    +0.020 C 
BRANCH  27  29
ATOM     28  C   LIG    1        9.852   1.272  -0.085  0.00  0.00    +0.010 C 
ATOM     29  C   LIG    1        8.556   2.085  -0.068  0.00  0.00    +0.000 C 
ENDBRANCH  27  29
ENDBRANCH  26  27
ENDBRANCH  25  26
ENDBRANCH  24  25
ENDBRANCH  22  24
ENDBRANCH  16  22
ENDBRANCH   1  19
TORSDOF 7
