REMARK  Name = ZINCnE000005qJHw.0
REMARK                            x       y       z     vdW  Elec       q    Type
REMARK                         _______ _______ _______ _____ _____    ______ ____
ROOT
ATOM      1  C   LIG    1       -1.477  -2.380   0.003  0.00  0.00    -0.080 A 
ATOM      2  N   LIG    1       -0.353  -3.022  -0.010  0.00  0.00    -0.250 NA
ATOM      3  N   LIG    1       -0.378  -4.399  -0.017  0.00  0.00    -0.510 NA
ATOM      4  C   LIG    1       -1.613  -4.980  -0.008  0.00  0.00    +0.340 A 
ATOM      5  N   LIG    1       -1.897  -6.260  -0.012  0.00  0.00    -0.630 NA
ATOM      6  S   LIG    1       -2.747  -3.617   0.016  0.00  0.00    -0.100 S 
ENDROOT
BRANCH   1   7
ATOM      7  S   LIG    1       -1.700  -0.632   0.015  0.00  0.00    +0.030 S 
BRANCH   7   8
ATOM      8  C   LIG    1        0.002  -0.004   0.002  0.00  0.00    +0.100 C 
BRANCH   8  11
ATOM      9  N   LIG    1        1.139   2.192   0.003  0.00  0.00    -0.730 N 
ATOM     10  H   LIG    1        1.986   1.719  -0.008  0.00  0.00    +0.400 HD
ATOM     11  C   LIG    1       -0.018   1.503   0.010  0.00  0.00    +0.540 C 
ATOM     12  O   LIG    1       -1.077   2.095   0.018  0.00  0.00    -0.520 OA
BRANCH   9  13
ATOM     13  C   LIG    1        1.120   3.657   0.011  0.00  0.00    +0.260 C 
BRANCH  13  14
ATOM     14  C   LIG    1        2.555   4.187   0.000  0.00  0.00    +0.010 C 
BRANCH  14  16
ATOM     15  C   LIG    1        3.965   6.246   0.123  0.00  0.00    +0.010 C 
ATOM     16  C   LIG    1        2.534   5.717   0.009  0.00  0.00    -0.020 C 
ATOM     17  C   LIG    1        1.905   6.225  -1.290  0.00  0.00    +0.020 C 
ENDBRANCH  14  16
ENDBRANCH  13  14
ENDBRANCH   9  13
ENDBRANCH   8  11
ENDBRANCH   7   8
ENDBRANCH   1   7
BRANCH   5  18
ATOM     18  C   LIG    1       -0.818  -7.250  -0.027  0.00  0.00    +0.230 C 
BRANCH  18  19
ATOM     19  C   LIG    1       -0.840  -8.039   1.257  0.00  0.00    -0.050 A 
ATOM     20  C   LIG    1       -0.108  -7.606   2.347  0.00  0.00    +0.010 A 
ATOM     21  C   LIG    1       -0.133  -8.327   3.526  0.00  0.00    -0.010 A 
ATOM     22  C   LIG    1       -0.882  -9.486   3.612  0.00  0.00    -0.030 A 
ATOM     23  C   LIG    1       -1.610  -9.921   2.521  0.00  0.00    -0.020 A 
ATOM     24  C   LIG    1       -1.589  -9.198   1.343  0.00  0.00    +0.010 A 
ENDBRANCH  18  19
ENDBRANCH   5  18
TORSDOF 8
