REMARK  Name = ZINCkj00000dEewD.0
REMARK                            x       y       z     vdW  Elec       q    Type
REMARK                         _______ _______ _______ _____ _____    ______ ____
ROOT
ATOM      1  C   LIG    1       -1.305   2.065   0.019  0.00  0.00    -0.190 A 
ATOM      2  C   LIG    1       -2.505   1.353   0.021  0.00  0.00    +0.110 A 
ATOM      3  C   LIG    1       -3.714   2.039   0.031  0.00  0.00    -0.030 A 
ATOM      4  C   LIG    1       -3.723   3.434   0.038  0.00  0.00    +0.120 A 
ATOM      5  C   LIG    1       -2.535   4.137   0.036  0.00  0.00    +0.000 A 
ATOM      6  C   LIG    1       -1.327   3.464   0.033  0.00  0.00    +0.170 A 
ATOM      7  F   LIG    1       -0.167   4.157   0.037  0.00  0.00    -0.110 F 
ENDROOT
BRANCH   3   8
ATOM      8  C   LIG    1       -4.994   1.288   0.033  0.00  0.00    +0.110 A 
ATOM      9  N   LIG    1       -5.123  -0.022   0.028  0.00  0.00    -0.290 NA
ATOM     10  N   LIG    1       -6.490  -0.325   0.033  0.00  0.00    -0.470 N 
ATOM     11  H   LIG    1       -6.876  -1.214   0.031  0.00  0.00    +0.440 HD
ATOM     12  C   LIG    1       -7.178   0.837   0.042  0.00  0.00    +0.260 A 
ATOM     13  C   LIG    1       -6.285   1.851   0.048  0.00  0.00    -0.100 A 
ENDBRANCH   3   8
BRANCH   1  15
ATOM     14  O   LIG    1        1.028   1.966   0.003  0.00  0.00    -0.500 OA
ATOM     15  C   LIG    1       -0.016   1.344   0.009  0.00  0.00    +0.570 C 
ATOM     16  N   LIG    1        0.002  -0.004   0.002  0.00  0.00    -0.730 N 
ATOM     17  H   LIG    1       -0.831  -0.500   0.007  0.00  0.00    +0.410 HD
BRANCH  16  18
ATOM     18  C   LIG    1        1.281  -0.719  -0.014  0.00  0.00    +0.260 C 
ATOM     19  C   LIG    1        1.762  -0.925  -1.469  0.00  0.00    +0.070 C 
ATOM     20  C   LIG    1        2.359  -2.356  -1.435  0.00  0.00    +0.280 C 
ATOM     21  N   LIG    1        1.441  -3.087  -0.525  0.00  0.00    -0.520 N 
ATOM     22  H   LIG    1        0.604  -3.360  -1.019  0.00  0.00    +0.430 HD
ATOM     23  H   LIG    1        1.902  -3.901  -0.146  0.00  0.00    +0.440 HD
ATOM     24  C   LIG    1        1.107  -2.138   0.558  0.00  0.00    +0.270 C 
ENDBRANCH  16  18
ENDBRANCH   1  15
TORSDOF 3
