REMARK  Name = ZINCCC0000000bPy.0
REMARK                            x       y       z     vdW  Elec       q    Type
REMARK                         _______ _______ _______ _____ _____    ______ ____
ROOT
ATOM      1  C   LIG    1        0.791   5.338   3.921  0.00  0.00    +0.010 C 
ATOM      2  C   LIG    1        2.248   5.831   3.941  0.00  0.00    +0.020 C 
ATOM      3  C   LIG    1        2.417   6.653   5.237  0.00  0.00    +0.020 C 
ATOM      4  C   LIG    1        1.307   6.116   6.175  0.00  0.00    +0.010 C 
ATOM      5  C   LIG    1        0.124   5.878   5.203  0.00  0.00    +0.050 C 
ENDROOT
BRANCH   1   6
ATOM      6  C   LIG    1        0.081   5.876   2.705  0.00  0.00    +0.000 A 
ATOM      7  C   LIG    1        0.540   5.872   1.432  0.00  0.00    +0.120 A 
ATOM      8  N   LIG    1       -0.425   6.452   0.681  0.00  0.00    -0.280 N 
ATOM      9  N   LIG    1       -1.397   6.781   1.458  0.00  0.00    -0.070 NA
ATOM     10  N   LIG    1       -1.128   6.446   2.671  0.00  0.00    -0.260 NA
BRANCH   8  11
ATOM     11  C   LIG    1       -0.372   6.669  -0.766  0.00  0.00    +0.380 C 
BRANCH  11  12
ATOM     12  C   LIG    1       -1.584   6.047  -1.412  0.00  0.00    -0.120 A 
ATOM     13  C   LIG    1       -2.738   6.789  -1.576  0.00  0.00    +0.060 A 
ATOM     14  C   LIG    1       -3.849   6.219  -2.168  0.00  0.00    +0.020 A 
ATOM     15  C   LIG    1       -3.806   4.905  -2.597  0.00  0.00    +0.050 A 
ATOM     16  C   LIG    1       -2.652   4.162  -2.433  0.00  0.00    -0.120 A 
ATOM     17  C   LIG    1       -1.539   4.734  -1.845  0.00  0.00    +0.040 A 
BRANCH  16  18
ATOM     18  C   LIG    1       -2.605   2.730  -2.899  0.00  0.00    +0.290 C 
BRANCH  18  19
ATOM     19  N   LIG    1       -2.144   2.684  -4.289  0.00  0.00    -0.730 N 
ATOM     20  H   LIG    1       -1.926   3.507  -4.755  0.00  0.00    +0.410 HD
ATOM     21  C   LIG    1       -2.023   1.500  -4.921  0.00  0.00    +0.640 C 
ATOM     22  O   LIG    1       -2.296   0.472  -4.338  0.00  0.00    -0.560 OA
ENDBRANCH  18  19
ENDBRANCH  16  18
ENDBRANCH  11  12
ENDBRANCH   8  11
ENDBRANCH   1   6
BRANCH   1  23
ATOM     23  C   LIG    1        0.755   3.809   3.915  0.00  0.00    +0.290 C 
BRANCH  23  25
ATOM     24  C   LIG    1        1.491   1.983   2.480  0.00  0.00    +0.520 C 
ATOM     25  N   LIG    1        1.405   3.310   2.701  0.00  0.00    -0.720 N 
ATOM     26  H   LIG    1        1.773   3.934   2.056  0.00  0.00    +0.400 HD
ATOM     27  O   LIG    1        1.031   1.202   3.286  0.00  0.00    -0.530 OA
BRANCH  24  29
ATOM     28  C   LIG    1        3.613   1.947   1.195  0.00  0.00    +0.070 C 
ATOM     29  C   LIG    1        2.160   1.470   1.231  0.00  0.00    -0.090 C 
ATOM     30  C   LIG    1        1.417   1.995  -0.001  0.00  0.00    +0.070 C 
ATOM     31  C   LIG    1       -0.018   1.464   0.010  0.00  0.00    +0.200 C 
ATOM     32  N   LIG    1        0.002  -0.004   0.002  0.00  0.00    -0.470 NA
ATOM     33  C   LIG    1        0.669  -0.533   1.199  0.00  0.00    +0.230 C 
ATOM     34  C   LIG    1        2.125  -0.061   1.224  0.00  0.00    +0.090 C 
BRANCH  32  35
ATOM     35  C   LIG    1       -1.285  -0.520  -0.121  0.00  0.00    +0.250 C 
ATOM     36  C   LIG    1       -2.389   0.327  -0.211  0.00  0.00    -0.010 C 
ATOM     37  C   LIG    1       -3.647  -0.224  -0.338  0.00  0.00    +0.360 C 
ATOM     38  N   LIG    1       -3.813  -1.533  -0.362  0.00  0.00    -0.470 NA
ATOM     39  C   LIG    1       -2.794  -2.367  -0.273  0.00  0.00    +0.360 C 
ATOM     40  H   LIG    1       -4.710  -1.892  -0.448  0.00  0.00    +0.450 HD
ATOM     41  C   LIG    1       -1.504  -1.897  -0.150  0.00  0.00    +0.020 C 
ENDBRANCH  32  35
ENDBRANCH  24  29
ENDBRANCH  23  25
ENDBRANCH   1  23
TORSDOF 9
