REMARK  Name = ZINCnE000001Pt94.0
REMARK                            x       y       z     vdW  Elec       q    Type
REMARK                         _______ _______ _______ _____ _____    ______ ____
ROOT
ATOM      1  S   LIG    1       -1.573  -0.929  -0.000  0.00  0.00    +2.680 S 
ATOM      2  O   LIG    1       -1.408   0.245  -0.784  0.00  0.00    -0.950 OA
ATOM      3  O   LIG    1       -0.496  -1.788   0.348  0.00  0.00    -0.930 OA
ENDROOT
BRANCH   1   4
ATOM      4  C   LIG    1       -2.754  -1.929  -0.843  0.00  0.00    -0.690 A 
ATOM      5  C   LIG    1       -3.400  -1.438  -1.958  0.00  0.00    +0.180 A 
ATOM      6  C   LIG    1       -4.337  -2.232  -2.625  0.00  0.00    -0.150 A 
ATOM      7  C   LIG    1       -4.612  -3.520  -2.157  0.00  0.00    +0.130 A 
ATOM      8  C   LIG    1       -3.959  -3.999  -1.041  0.00  0.00    +0.000 A 
ATOM      9  C   LIG    1       -3.031  -3.206  -0.384  0.00  0.00    +0.040 A 
ATOM     10 CL   LIG    1       -2.208  -3.819   1.016  0.00  0.00    -0.050 Cl
BRANCH   6  11
ATOM     11  C   LIG    1       -5.031  -1.714  -3.818  0.00  0.00    +0.520 C 
ATOM     12  O   LIG    1       -5.850  -2.412  -4.400  0.00  0.00    -0.680 OA
ATOM     13  O   LIG    1       -4.788  -0.587  -4.226  0.00  0.00    -0.680 OA
ENDBRANCH   6  11
ENDBRANCH   1   4
BRANCH   1  14
ATOM     14  N   LIG    1       -2.266  -0.447   1.424  0.00  0.00    -0.950 N 
ATOM     15  C   LIG    1       -3.165   0.710   1.446  0.00  0.00    +0.310 C 
BRANCH  14  21
ATOM     16  C   LIG    1       -3.571  -3.841   4.730  0.00  0.00    +0.100 C 
ATOM     17  C   LIG    1       -2.609  -2.794   4.231  0.00  0.00    -0.090 A 
ATOM     18  C   LIG    1       -1.456  -2.520   4.942  0.00  0.00    +0.010 A 
ATOM     19  C   LIG    1       -0.570  -1.560   4.488  0.00  0.00    +0.020 A 
ATOM     20  C   LIG    1       -0.836  -0.870   3.322  0.00  0.00    -0.070 A 
ATOM     21  C   LIG    1       -1.994  -1.143   2.604  0.00  0.00    +0.140 A 
ATOM     22  C   LIG    1        0.129   0.176   2.828  0.00  0.00    +0.080 C 
ATOM     23  C   LIG    1       -2.883  -2.104   3.066  0.00  0.00    +0.040 A 
ENDBRANCH  14  21
ENDBRANCH   1  14
TORSDOF 4
