REMARK  Name = ZINCpe000000YajE.0
REMARK                            x       y       z     vdW  Elec       q    Type
REMARK                         _______ _______ _______ _____ _____    ______ ____
ROOT
ATOM      1  N   LIG    1       -4.866  -0.167  -0.921  0.00  0.00    -0.480 N 
ATOM      2  C   LIG    1       -4.830   0.590   0.338  0.00  0.00    +0.220 C 
ATOM      3  C   LIG    1       -3.719   1.641   0.267  0.00  0.00    +0.190 C 
ATOM      4  N   LIG    1       -2.433   0.975   0.019  0.00  0.00    -0.520 NA
ATOM      5  C   LIG    1       -2.469   0.218  -1.240  0.00  0.00    +0.200 C 
ATOM      6  C   LIG    1       -3.579  -0.833  -1.169  0.00  0.00    +0.210 C 
ENDROOT
BRANCH   1  11
ATOM      7  C   LIG    1       -7.163  -2.815  -2.014  0.00  0.00    +0.040 A 
ATOM      8  C   LIG    1       -7.975  -2.872  -0.874  0.00  0.00    +0.000 A 
ATOM      9  C   LIG    1       -7.708  -2.029   0.184  0.00  0.00    +0.300 A 
ATOM     10  N   LIG    1       -6.704  -1.174   0.135  0.00  0.00    -0.500 NA
ATOM     11  C   LIG    1       -5.910  -1.085  -0.921  0.00  0.00    +0.320 A 
ATOM     12  C   LIG    1       -6.113  -1.895  -2.032  0.00  0.00    +0.000 A 
BRANCH   7  17
ATOM     13  C   LIG    1       -9.059  -6.252  -5.089  0.00  0.00    +0.200 C 
ATOM     14  C   LIG    1       -8.210  -5.160  -4.489  0.00  0.00    +0.170 A 
ATOM     15  N   LIG    1       -7.188  -4.586  -5.051  0.00  0.00    -0.380 NA
ATOM     16  O   LIG    1       -6.719  -3.742  -4.317  0.00  0.00    +0.090 OA
ATOM     17  C   LIG    1       -7.415  -3.703  -3.171  0.00  0.00    +0.220 A 
ATOM     18  N   LIG    1       -8.373  -4.606  -3.278  0.00  0.00    -0.460 NA
ENDBRANCH   7  17
ENDBRANCH   1  11
BRANCH   4  19
ATOM     19  C   LIG    1       -1.330   1.944   0.019  0.00  0.00    +0.220 C 
BRANCH  19  20
ATOM     20  C   LIG    1       -0.014   1.209   0.009  0.00  0.00    +0.520 C 
ATOM     21  N   LIG    1        1.143   1.898   0.001  0.00  0.00    -0.710 N 
ATOM     22  H   LIG    1        1.130   2.868   0.007  0.00  0.00    +0.400 HD
ATOM     23  O   LIG    1        0.002  -0.004   0.002  0.00  0.00    -0.520 OA
BRANCH  21  24
ATOM     24  C   LIG    1        2.422   1.183  -0.015  0.00  0.00    +0.220 C 
ATOM     25  C   LIG    1        3.526   1.689   0.916  0.00  0.00    +0.010 C 
ATOM     26  C   LIG    1        3.634   1.916  -0.594  0.00  0.00    +0.010 C 
ENDBRANCH  21  24
ENDBRANCH  19  20
ENDBRANCH   4  19
TORSDOF 5
