REMARK  Name = ZINCrH000004vDnr.1
REMARK                            x       y       z     vdW  Elec       q    Type
REMARK                         _______ _______ _______ _____ _____    ______ ____
ROOT
ATOM      1  O   LIG    1        0.040   0.169  -0.621  0.00  0.00    -0.510 OA
ATOM      2  C   LIG    1       -0.030   1.230  -0.031  0.00  0.00    +0.570 C 
ATOM      3  N   LIG    1        1.084   1.793   0.476  0.00  0.00    -0.610 N 
ATOM      4  C   LIG    1        2.376   1.097   0.401  0.00  0.00    +0.280 C 
ATOM      5  C   LIG    1        2.978   1.014   1.803  0.00  0.00    +0.020 C 
ATOM      6  C   LIG    1        3.055   2.419   2.406  0.00  0.00    +0.030 C 
ATOM      7  C   LIG    1        1.646   3.005   2.518  0.00  0.00    +0.090 C 
ATOM      8  C   LIG    1        1.029   3.113   1.120  0.00  0.00    +0.280 C 
ENDROOT
BRANCH   7   9
ATOM      9  C   LIG    1        1.719   4.375   3.143  0.00  0.00    +0.230 A 
ATOM     10  N   LIG    1        2.382   5.394   2.662  0.00  0.00    -0.310 NA
ATOM     11  N   LIG    1        2.179   6.464   3.548  0.00  0.00    -0.480 N 
ATOM     12  H   LIG    1        2.538   7.362   3.468  0.00  0.00    +0.440 HD
ATOM     13  C   LIG    1        1.392   5.996   4.533  0.00  0.00    +0.490 A 
ATOM     14  N   LIG    1        1.124   4.742   4.277  0.00  0.00    -0.540 NA
ENDBRANCH   7   9
BRANCH   2  15
ATOM     15  C   LIG    1       -1.334   1.903   0.124  0.00  0.00    -0.200 A 
ATOM     16  C   LIG    1       -1.420   3.300   0.112  0.00  0.00    +0.130 A 
ATOM     17  C   LIG    1       -2.666   3.883   0.260  0.00  0.00    -0.060 A 
ATOM     18  C   LIG    1       -3.780   3.078   0.415  0.00  0.00    +0.340 A 
ATOM     19  N   LIG    1       -3.676   1.763   0.423  0.00  0.00    -0.530 NA
ATOM     20  C   LIG    1       -2.510   1.155   0.280  0.00  0.00    +0.370 A 
BRANCH  20  21
ATOM     21  O   LIG    1       -2.451  -0.198   0.289  0.00  0.00    -0.220 OA
BRANCH  21  22
ATOM     22  C   LIG    1       -3.622  -0.888   0.320  0.00  0.00    +0.110 A 
ATOM     23  C   LIG    1       -3.990  -1.581   1.464  0.00  0.00    +0.030 A 
ATOM     24  C   LIG    1       -5.183  -2.277   1.494  0.00  0.00    +0.060 A 
ATOM     25  C   LIG    1       -6.005  -2.292   0.382  0.00  0.00    -0.090 A 
ATOM     26  C   LIG    1       -5.638  -1.605  -0.762  0.00  0.00    +0.070 A 
ATOM     27 BR   LIG    1       -7.634  -3.251   0.424  0.00  0.00    -0.040 Br
ATOM     28  C   LIG    1       -4.448  -0.904  -0.795  0.00  0.00    +0.020 A 
ENDBRANCH  21  22
ENDBRANCH  20  21
ENDBRANCH   2  15
TORSDOF 4
