REMARK  Name = ZINCrH000004vDnr.0
REMARK                            x       y       z     vdW  Elec       q    Type
REMARK                         _______ _______ _______ _____ _____    ______ ____
ROOT
ATOM      1  O   LIG    1       -2.074   0.644   3.168  0.00  0.00    -0.510 OA
ATOM      2  C   LIG    1       -2.742   0.454   2.170  0.00  0.00    +0.570 C 
ATOM      3  N   LIG    1       -2.141   0.324   0.971  0.00  0.00    -0.610 N 
ATOM      4  C   LIG    1       -2.925  -0.003  -0.228  0.00  0.00    +0.270 C 
ATOM      5  C   LIG    1       -2.309  -1.235  -0.899  0.00  0.00    +0.030 C 
ATOM      6  C   LIG    1       -0.826  -0.975  -1.170  0.00  0.00    +0.040 C 
ATOM      7  C   LIG    1       -0.098  -0.732   0.154  0.00  0.00    +0.090 C 
ATOM      8  C   LIG    1       -0.689   0.505   0.838  0.00  0.00    +0.290 C 
ENDROOT
BRANCH   7   9
ATOM      9  C   LIG    1        1.368  -0.509  -0.111  0.00  0.00    +0.190 A 
ATOM     10  N   LIG    1        2.310  -1.411  -0.058  0.00  0.00    -0.280 NA
ATOM     11  N   LIG    1        3.442  -0.872  -0.344  0.00  0.00    -0.290 NA
ATOM     12  C   LIG    1        3.275   0.400  -0.585  0.00  0.00    +0.380 A 
ATOM     13  N   LIG    1        1.954   0.667  -0.443  0.00  0.00    -0.580 N 
ATOM     14  H   LIG    1        1.517   1.525  -0.557  0.00  0.00    +0.430 HD
ENDBRANCH   7   9
BRANCH   2  15
ATOM     15  C   LIG    1       -4.211   0.365   2.273  0.00  0.00    -0.200 A 
ATOM     16  C   LIG    1       -5.029   0.904   1.273  0.00  0.00    +0.140 A 
ATOM     17  C   LIG    1       -6.401   0.791   1.414  0.00  0.00    -0.060 A 
ATOM     18  C   LIG    1       -6.920   0.165   2.533  0.00  0.00    +0.340 A 
ATOM     19  N   LIG    1       -6.131  -0.332   3.466  0.00  0.00    -0.530 NA
ATOM     20  C   LIG    1       -4.814  -0.255   3.378  0.00  0.00    +0.370 A 
BRANCH  20  21
ATOM     21  O   LIG    1       -4.043  -0.779   4.360  0.00  0.00    -0.220 OA
BRANCH  21  22
ATOM     22  C   LIG    1       -4.657  -1.476   5.351  0.00  0.00    +0.110 A 
ATOM     23  C   LIG    1       -4.830  -0.899   6.602  0.00  0.00    +0.030 A 
ATOM     24  C   LIG    1       -5.459  -1.608   7.607  0.00  0.00    +0.060 A 
ATOM     25  C   LIG    1       -5.908  -2.895   7.370  0.00  0.00    -0.090 A 
ATOM     26  C   LIG    1       -5.733  -3.473   6.126  0.00  0.00    +0.060 A 
ATOM     27 BR   LIG    1       -6.764  -3.865   8.750  0.00  0.00    -0.040 Br
ATOM     28  C   LIG    1       -5.109  -2.767   5.116  0.00  0.00    +0.020 A 
ENDBRANCH  21  22
ENDBRANCH  20  21
ENDBRANCH   2  15
TORSDOF 4
