REMARK  Name = ZINCtj00000roFQT.0
REMARK                            x       y       z     vdW  Elec       q    Type
REMARK                         _______ _______ _______ _____ _____    ______ ____
ROOT
ATOM      1  N   LIG    1       -0.831   7.227  -1.509  0.00  0.00    -0.440 N 
ATOM      2  C   LIG    1       -0.493   6.861  -2.909  0.00  0.00    +0.220 C 
ATOM      3  C   LIG    1        0.849   6.104  -2.800  0.00  0.00    +0.190 C 
ATOM      4  C   LIG    1        0.886   5.562  -1.356  0.00  0.00    +0.180 C 
ATOM      5  C   LIG    1       -0.435   6.035  -0.715  0.00  0.00    +0.250 C 
ENDROOT
BRANCH   1   8
ATOM      6  C   LIG    1       -4.226   7.009  -0.415  0.00  0.00    +0.590 A 
ATOM      7  N   LIG    1       -2.930   6.765  -0.543  0.00  0.00    -0.610 NA
ATOM      8  C   LIG    1       -2.186   7.484  -1.377  0.00  0.00    +0.370 A 
ATOM      9  C   LIG    1       -2.788   8.506  -2.114  0.00  0.00    -0.140 A 
ATOM     10  C   LIG    1       -4.143   8.723  -1.954  0.00  0.00    +0.390 A 
ATOM     11  N   LIG    1       -4.824   7.968  -1.105  0.00  0.00    -0.570 NA
BRANCH   6  13
ATOM     12  C   LIG    1       -6.407   6.497   0.619  0.00  0.00    +0.300 C 
ATOM     13  N   LIG    1       -4.973   6.243   0.463  0.00  0.00    -0.700 N 
ATOM     14  H   LIG    1       -4.547   5.537   0.975  0.00  0.00    +0.420 HD
ENDBRANCH   6  13
ENDBRANCH   1   8
BRANCH   4  15
ATOM     15  N   LIG    1        0.952   4.094  -1.365  0.00  0.00    -0.490 N 
ATOM     16  H   LIG    1        0.102   3.722  -1.761  0.00  0.00    +0.430 HD
ATOM     17  H   LIG    1        1.740   3.796  -1.920  0.00  0.00    +0.430 HD
BRANCH  15  18
ATOM     18  C   LIG    1        1.108   3.603   0.011  0.00  0.00    +0.350 C 
BRANCH  18  19
ATOM     19  C   LIG    1        1.175   2.097   0.002  0.00  0.00    -0.280 A 
ATOM     20  C   LIG    1        2.380   1.475  -0.013  0.00  0.00    +0.220 A 
ATOM     21  C   LIG    1        2.411   0.011  -0.021  0.00  0.00    -0.160 A 
ATOM     22  C   LIG    1        3.623  -0.686  -0.036  0.00  0.00    +0.100 A 
ATOM     23  C   LIG    1        3.617  -2.053  -0.043  0.00  0.00    -0.010 A 
ATOM     24  C   LIG    1        2.420  -2.754  -0.036  0.00  0.00    +0.100 A 
ATOM     25  C   LIG    1        1.214  -2.087  -0.021  0.00  0.00    -0.030 A 
ATOM     26  C   LIG    1        1.194  -0.697  -0.013  0.00  0.00    +0.200 A 
ATOM     27  N   LIG    1        0.002  -0.004   0.002  0.00  0.00    -0.510 N 
ATOM     28  C   LIG    1       -1.263  -0.743   0.010  0.00  0.00    +0.320 C 
ATOM     29  C   LIG    1       -0.016   1.340   0.009  0.00  0.00    +0.540 A 
ATOM     30  O   LIG    1       -1.088   1.920   0.018  0.00  0.00    -0.540 OA
ENDBRANCH  18  19
ENDBRANCH  15  18
ENDBRANCH   4  15
BRANCH   3  31
ATOM     31  O   LIG    1        0.891   5.027  -3.737  0.00  0.00    -0.400 OA
ATOM     32  C   LIG    1        1.518   5.359  -4.977  0.00  0.00    +0.250 C 
ENDBRANCH   3  31
TORSDOF 6
