REMARK  Name = ZINCDN0000000cqB.0
REMARK                            x       y       z     vdW  Elec       q    Type
REMARK                         _______ _______ _______ _____ _____    ______ ____
ROOT
ATOM      1  CA  LIG    1        0.622   1.454   7.546  0.00  0.00    +0.050 C 
ATOM      2  C   LIG    1        0.910   2.382   8.490  0.00  0.00    +0.120 C 
ENDROOT
BRANCH   2   3
ATOM      3  C   LIG    1        0.046   3.559   8.652  0.00  0.00    -0.200 A 
ATOM      4  C   LIG    1       -0.505   4.326   7.644  0.00  0.00    +0.340 A 
ATOM      5  N   LIG    1       -1.229   5.304   8.221  0.00  0.00    -0.310 N 
ATOM      6  N   LIG    1       -1.157   5.184   9.612  0.00  0.00    -0.280 NA
ATOM      7  C   LIG    1       -0.408   4.148   9.917  0.00  0.00    +0.150 A 
BRANCH   5   8
ATOM      8  C   LIG    1       -1.945   6.292   7.532  0.00  0.00    +0.170 A 
ATOM      9  C   LIG    1       -1.938   6.315   6.144  0.00  0.00    -0.010 A 
ATOM     10  C   LIG    1       -2.650   7.286   5.467  0.00  0.00    +0.040 A 
ATOM     11  C   LIG    1       -3.359   8.242   6.171  0.00  0.00    +0.000 A 
ATOM     12  C   LIG    1       -3.363   8.226   7.554  0.00  0.00    +0.030 A 
ATOM     13  C   LIG    1       -2.658   7.253   8.236  0.00  0.00    +0.020 A 
ENDBRANCH   5   8
BRANCH   7  14
ATOM     14  C   LIG    1       -0.081   3.668  11.280  0.00  0.00    -0.060 A 
ATOM     15  C   LIG    1        0.092   4.575  12.330  0.00  0.00    +0.090 A 
ATOM     16  C   LIG    1        0.396   4.076  13.585  0.00  0.00    -0.040 A 
ATOM     17  C   LIG    1        0.518   2.709  13.758  0.00  0.00    +0.260 A 
ATOM     18  N   LIG    1        0.349   1.878  12.749  0.00  0.00    -0.480 NA
ATOM     19  C   LIG    1        0.053   2.304  11.538  0.00  0.00    +0.290 A 
ENDBRANCH   7  14
ENDBRANCH   2   3
BRANCH   1  22
ATOM     20  N   LIG    1       -0.897   0.663   5.811  0.00  0.00    -0.670 N 
ATOM     21  H   LIG    1       -0.219   0.022   5.543  0.00  0.00    +0.390 HD
ATOM     22  C   LIG    1       -0.660   1.506   6.836  0.00  0.00    +0.550 C 
ATOM     23  O   LIG    1       -1.510   2.309   7.171  0.00  0.00    -0.540 OA
BRANCH  20  24
ATOM     24  CA  LIG    1       -2.178   0.714   5.101  0.00  0.00    +0.160 C 
BRANCH  24  25
ATOM     25  C   LIG    1       -3.192  -0.124   5.836  0.00  0.00    +0.500 C 
ATOM     26  OXT LIG    1       -4.369  -0.074   5.519  0.00  0.00    -0.690 OA
ATOM     27  O   LIG    1       -2.837  -0.852   6.747  0.00  0.00    -0.690 OA
ENDBRANCH  24  25
BRANCH  24  28
ATOM     28  CB  LIG    1       -1.997   0.169   3.683  0.00  0.00    -0.020 C 
ATOM     29  CG2 LIG    1       -1.630  -1.315   3.750  0.00  0.00    +0.010 C 
BRANCH  28  31
ATOM     30  CD1 LIG    1       -3.086  -0.092   1.450  0.00  0.00    -0.010 C 
ATOM     31  CG1 LIG    1       -3.302   0.337   2.902  0.00  0.00    +0.020 C 
ENDBRANCH  28  31
ENDBRANCH  24  28
ENDBRANCH  20  24
ENDBRANCH   1  22
BRANCH   1  32
ATOM     32  N   LIG    1        1.548   0.446   7.248  0.00  0.00    -0.670 N 
ATOM     33  H   LIG    1        1.812  -0.188   7.933  0.00  0.00    +0.410 HD
ATOM     34  C   LIG    1        2.072   0.357   6.010  0.00  0.00    +0.560 C 
ATOM     35  O   LIG    1        1.677   1.095   5.128  0.00  0.00    -0.510 OA
BRANCH  34  36
ATOM     36  C   LIG    1        3.127  -0.638   5.724  0.00  0.00    -0.130 A 
ATOM     37  C   LIG    1        3.587  -1.483   6.735  0.00  0.00    +0.050 A 
ATOM     38  C   LIG    1        4.569  -2.412   6.461  0.00  0.00    +0.000 A 
ATOM     39  C   LIG    1        5.105  -2.501   5.188  0.00  0.00    +0.040 A 
ATOM     40  C   LIG    1        4.657  -1.663   4.182  0.00  0.00    +0.000 A 
ATOM     41  C   LIG    1        3.672  -0.733   4.442  0.00  0.00    +0.080 A 
ENDBRANCH  34  36
ENDBRANCH   1  32
TORSDOF 10
