REMARK  Name = ZINCrD000001YLPV.0
REMARK                            x       y       z     vdW  Elec       q    Type
REMARK                         _______ _______ _______ _____ _____    ______ ____
ROOT
ATOM      1  C   LIG    1        3.698  -0.668  -0.045  0.00  0.00    +0.560 C 
ATOM      2  N   LIG    1        3.725  -2.015  -0.043  0.00  0.00    -0.720 N 
ATOM      3  H   LIG    1        2.894  -2.517  -0.033  0.00  0.00    +0.400 HD
ATOM      4  O   LIG    1        4.738  -0.039  -0.057  0.00  0.00    -0.510 OA
ENDROOT
BRANCH   2   5
ATOM      5  C   LIG    1        5.008  -2.722  -0.055  0.00  0.00    +0.300 C 
ATOM      6  C   LIG    1        5.530  -2.855   1.377  0.00  0.00    -0.000 C 
ATOM      7  C   LIG    1        6.705  -3.842   1.371  0.00  0.00    +0.240 C 
ATOM      8  O   LIG    1        6.211  -5.128   0.997  0.00  0.00    -0.310 OA
ATOM      9  C   LIG    1        5.426  -5.210  -0.108  0.00  0.00    +0.150 A 
ATOM     10  C   LIG    1        5.232  -6.456  -0.695  0.00  0.00    -0.120 A 
ATOM     11  C   LIG    1        4.438  -6.579  -1.817  0.00  0.00    +0.050 A 
ATOM     12  C   LIG    1        3.832  -5.462  -2.361  0.00  0.00    -0.020 A 
ATOM     13  C   LIG    1        4.023  -4.222  -1.781  0.00  0.00    -0.050 A 
ATOM     14  C   LIG    1        3.361  -3.006  -2.376  0.00  0.00    +0.090 C 
ATOM     15  C   LIG    1        5.892  -7.675  -0.104  0.00  0.00    +0.100 C 
ATOM     16  C   LIG    1        4.820  -4.092  -0.657  0.00  0.00    -0.180 A 
ENDBRANCH   2   5
BRANCH   1  21
ATOM     17  C   LIG    1       -0.000   0.000  -0.005  0.00  0.00    +0.130 A 
ATOM     18  C   LIG    1       -0.024   1.391  -0.007  0.00  0.00    +0.080 A 
ATOM     19  C   LIG    1        1.155   2.108  -0.021  0.00  0.00    +0.000 A 
ATOM     20  C   LIG    1        2.373   1.445  -0.033  0.00  0.00    +0.160 A 
ATOM     21  C   LIG    1        2.405   0.044  -0.032  0.00  0.00    -0.150 A 
ATOM     22  C   LIG    1        1.208  -0.675  -0.017  0.00  0.00    +0.030 A 
BRANCH  17  24
ATOM     23  C   LIG    1       -2.263  -0.245   0.692  0.00  0.00    +0.550 C 
ATOM     24  N   LIG    1       -1.202  -0.719   0.010  0.00  0.00    -0.670 N 
ATOM     25  H   LIG    1       -1.271  -1.559  -0.471  0.00  0.00    +0.410 HD
ATOM     26  O   LIG    1       -2.205   0.847   1.225  0.00  0.00    -0.520 OA
BRANCH  23  28
ATOM     27  C   LIG    1       -4.539  -0.579   1.465  0.00  0.00    +0.160 C 
ATOM     28  C   LIG    1       -3.492  -1.047   0.792  0.00  0.00    -0.090 C 
ENDBRANCH  23  28
ENDBRANCH  17  24
BRANCH  20  29
ATOM     29  O   LIG    1        3.532   2.152  -0.048  0.00  0.00    -0.480 OA
ATOM     30  H   LIG    1        3.857   2.356  -0.935  0.00  0.00    +0.400 HD
ENDBRANCH  20  29
ENDBRANCH   1  21
TORSDOF 5
