REMARK  Name = ZINCrD00000751DX.0
REMARK                            x       y       z     vdW  Elec       q    Type
REMARK                         _______ _______ _______ _____ _____    ______ ____
ROOT
ATOM      1  S   LIG    1        0.752   3.926   1.444  0.00  0.00    +0.060 S 
ENDROOT
BRANCH   1   6
ATOM      2  C   LIG    1       -3.139   1.402   3.929  0.00  0.00    +0.150 C 
ATOM      3  C   LIG    1       -2.067   1.703   2.914  0.00  0.00    +0.000 A 
ATOM      4  C   LIG    1       -1.725   0.922   1.875  0.00  0.00    +0.010 A 
ATOM      5  N   LIG    1       -0.709   1.565   1.206  0.00  0.00    -0.430 N 
ATOM      6  C   LIG    1       -0.463   2.725   1.875  0.00  0.00    +0.170 A 
ATOM      7  C   LIG    1       -2.338  -0.406   1.512  0.00  0.00    +0.150 C 
ATOM      8  N   LIG    1       -1.288   2.798   2.893  0.00  0.00    -0.480 NA
BRANCH   5   9
ATOM      9  C   LIG    1       -0.017   1.089   0.005  0.00  0.00    +0.310 C 
BRANCH   9  10
ATOM     10  C   LIG    1       -0.748   1.597  -1.240  0.00  0.00    +0.150 C 
ATOM     11  C   LIG    1        0.018   1.181  -2.520  0.00  0.00    +0.020 C 
ATOM     12  C   LIG    1       -1.132   1.189  -3.566  0.00  0.00    +0.020 C 
ATOM     13  C   LIG    1       -2.342   0.724  -2.728  0.00  0.00    +0.190 C 
ATOM     14  O   LIG    1       -2.037   0.974  -1.351  0.00  0.00    -0.370 OA
ENDBRANCH   9  10
ENDBRANCH   5   9
ENDBRANCH   1   6
BRANCH   1  15
ATOM     15  C   LIG    1        0.478   5.136   2.761  0.00  0.00    +0.120 C 
BRANCH  15  16
ATOM     16  C   LIG    1        1.435   6.288   2.592  0.00  0.00    +0.530 C 
ATOM     17  N   LIG    1        1.413   7.316   3.464  0.00  0.00    -0.670 N 
ATOM     18  H   LIG    1        0.739   7.347   4.160  0.00  0.00    +0.420 HD
ATOM     19  O   LIG    1        2.225   6.290   1.671  0.00  0.00    -0.500 OA
BRANCH  17  20
ATOM     20  C   LIG    1        2.365   8.337   3.365  0.00  0.00    +0.150 A 
ATOM     21  C   LIG    1        2.849   8.951   4.512  0.00  0.00    +0.060 A 
ATOM     22  C   LIG    1        3.791   9.956   4.411  0.00  0.00    +0.060 A 
ATOM     23  C   LIG    1        4.244  10.358   3.169  0.00  0.00    +0.090 A 
ATOM     24  C   LIG    1        3.760   9.753   2.023  0.00  0.00    -0.020 A 
ATOM     25  C   LIG    1        2.822   8.744   2.118  0.00  0.00    +0.110 A 
BRANCH  24  26
ATOM     26  N   LIG    1        4.248  10.187   0.695  0.00  0.00    +0.030 N 
ATOM     27  O   LIG    1        5.075  11.076   0.611  0.00  0.00    -0.150 OA
ATOM     28  O   LIG    1        3.821   9.654  -0.314  0.00  0.00    -0.150 OA
ENDBRANCH  24  26
ENDBRANCH  17  20
ENDBRANCH  15  16
ENDBRANCH   1  15
TORSDOF 7
