REMARK  Name = ZINCpe00000MJLYe.0
REMARK                            x       y       z     vdW  Elec       q    Type
REMARK                         _______ _______ _______ _____ _____    ______ ____
ROOT
ATOM      1  C   LIG    1       -1.427  -0.111   2.956  0.00  0.00    +0.530 C 
ATOM      2  N   LIG    1       -1.654   0.306   4.217  0.00  0.00    -0.620 N 
ATOM      3  C   LIG    1       -0.623   0.553   5.237  0.00  0.00    +0.240 C 
ATOM      4  C   LIG    1       -1.350   0.988   6.526  0.00  0.00    +0.060 C 
ATOM      5  C   LIG    1       -2.780   0.418   6.329  0.00  0.00    +0.050 C 
ATOM      6  C   LIG    1       -2.976   0.597   4.801  0.00  0.00    +0.280 C 
ATOM      7  O   LIG    1       -2.357  -0.281   2.197  0.00  0.00    -0.530 OA
ENDROOT
BRANCH   5   8
ATOM      8  C   LIG    1       -3.793   1.224   7.100  0.00  0.00    +0.240 A 
ATOM      9  C   LIG    1       -4.572   0.618   8.043  0.00  0.00    -0.190 A 
ATOM     10  C   LIG    1       -5.511   1.391   8.748  0.00  0.00    +0.540 A 
ATOM     11  N   LIG    1       -5.609   2.708   8.468  0.00  0.00    -0.660 N 
ATOM     12  H   LIG    1       -6.250   3.260   8.943  0.00  0.00    +0.410 HD
ATOM     13  C   LIG    1       -4.806   3.258   7.517  0.00  0.00    +0.640 A 
ATOM     14  O   LIG    1       -6.222   0.881   9.598  0.00  0.00    -0.540 OA
ATOM     15  N   LIG    1       -3.925   2.527   6.864  0.00  0.00    -0.590 NA
BRANCH  13  16
ATOM     16  N   LIG    1       -4.912   4.594   7.238  0.00  0.00    -0.590 N 
ATOM     17  C   LIG    1       -5.967   5.392   7.868  0.00  0.00    +0.310 C 
ATOM     18  C   LIG    1       -3.971   5.225   6.309  0.00  0.00    +0.330 C 
ENDBRANCH  13  16
ENDBRANCH   5   8
BRANCH   1  19
ATOM     19  C   LIG    1       -0.017  -0.365   2.488  0.00  0.00    +0.150 C 
BRANCH  19  22
ATOM     20  C   LIG    1       -0.084   1.492  -0.029  0.00  0.00    +0.140 C 
ATOM     21  C   LIG    1       -0.067  -0.015  -0.037  0.00  0.00    +0.100 A 
ATOM     22  C   LIG    1       -0.038  -0.819   1.051  0.00  0.00    -0.230 A 
ATOM     23  C   LIG    1       -0.032  -2.145   0.607  0.00  0.00    +0.240 A 
ATOM     24  N   LIG    1       -0.055  -2.138  -0.701  0.00  0.00    -0.300 NA
ATOM     25  N   LIG    1       -0.083  -0.805  -1.131  0.00  0.00    -0.370 N 
ATOM     26  C   LIG    1       -0.119  -0.349  -2.523  0.00  0.00    +0.350 C 
ENDBRANCH  19  22
ENDBRANCH   1  19
TORSDOF 4
