REMARK  Name = ZINCqH0000007S4C.0
REMARK                            x       y       z     vdW  Elec       q    Type
REMARK                         _______ _______ _______ _____ _____    ______ ____
ROOT
ATOM      1  C   LIG    1       -5.992   3.182  -0.237  0.00  0.00    +0.390 C 
ENDROOT
BRANCH   1   7
ATOM      2  C   LIG    1       -8.018   3.401  -1.699  0.00  0.00    +0.140 A 
ATOM      3  C   LIG    1       -8.923   4.170  -2.416  0.00  0.00    -0.080 A 
ATOM      4  C   LIG    1       -8.775   5.543  -2.465  0.00  0.00    +0.050 A 
ATOM      5  C   LIG    1       -7.730   6.151  -1.795  0.00  0.00    -0.020 A 
ATOM      6  C   LIG    1       -6.830   5.387  -1.074  0.00  0.00    +0.070 A 
ATOM      7  C   LIG    1       -6.973   4.014  -1.022  0.00  0.00    -0.120 A 
BRANCH   2   9
ATOM      8  C   LIG    1       -9.257   1.488  -2.374  0.00  0.00    +0.250 C 
ATOM      9  O   LIG    1       -8.158   2.050  -1.654  0.00  0.00    -0.310 OA
ENDBRANCH   2   9
ENDBRANCH   1   7
BRANCH   1  10
ATOM     10  C   LIG    1       -6.517   2.971   1.159  0.00  0.00    +0.120 A 
ATOM     11  C   LIG    1       -6.652   1.687   1.651  0.00  0.00    +0.000 A 
ATOM     12  C   LIG    1       -7.136   1.503   2.937  0.00  0.00    +0.050 A 
ATOM     13  C   LIG    1       -7.468   2.623   3.684  0.00  0.00    -0.040 A 
ATOM     14  C   LIG    1       -7.307   3.877   3.125  0.00  0.00    +0.240 A 
ATOM     15  N   LIG    1       -6.838   4.014   1.900  0.00  0.00    -0.470 NA
ENDBRANCH   1  10
BRANCH   1  16
ATOM     16  N   LIG    1       -4.704   3.877  -0.174  0.00  0.00    -0.730 N 
ATOM     17  H   LIG    1       -4.673   4.846  -0.199  0.00  0.00    +0.400 HD
ATOM     18  C   LIG    1       -3.560   3.169  -0.083  0.00  0.00    +0.700 C 
ATOM     19  N   LIG    1       -2.375   3.808  -0.025  0.00  0.00    -0.670 N 
ATOM     20  H   LIG    1       -2.348   4.776   0.028  0.00  0.00    +0.410 HD
ATOM     21  O   LIG    1       -3.598   1.954  -0.053  0.00  0.00    -0.520 OA
BRANCH  19  22
ATOM     22  C   LIG    1       -1.188   3.077  -0.042  0.00  0.00    +0.380 A 
ATOM     23  C   LIG    1        0.030   3.744  -0.094  0.00  0.00    -0.090 A 
ATOM     24  C   LIG    1        1.201   3.007  -0.115  0.00  0.00    +0.100 A 
ATOM     25  C   LIG    1        1.113   1.622  -0.073  0.00  0.00    -0.070 A 
ATOM     26  C   LIG    1       -0.132   1.026  -0.016  0.00  0.00    +0.160 A 
ATOM     27  C   LIG    1       -0.235  -0.477   0.029  0.00  0.00    +0.140 C 
ATOM     28  N   LIG    1       -1.231   1.755  -0.003  0.00  0.00    -0.470 NA
ENDBRANCH  19  22
ENDBRANCH   1  16
TORSDOF 5
