REMARK  Name = ZINCvU0000000ExH.0
REMARK                            x       y       z     vdW  Elec       q    Type
REMARK                         _______ _______ _______ _____ _____    ______ ____
ROOT
ATOM      1  N   LIG    1       -0.975  -0.979   0.006  0.00  0.00    -0.480 N 
ATOM      2  C   LIG    1        0.002  -0.004   0.002  0.00  0.00    +0.050 A 
ATOM      3  C   LIG    1       -0.017   1.384   0.010  0.00  0.00    +0.010 A 
ATOM      4  C   LIG    1        1.172   2.083   0.002  0.00  0.00    +0.030 A 
ATOM      5  C   LIG    1        2.384   1.409  -0.013  0.00  0.00    +0.000 A 
ATOM      6  C   LIG    1        2.422   0.043  -0.021  0.00  0.00    +0.070 A 
ATOM      7  C   LIG    1        1.230  -0.687  -0.013  0.00  0.00    +0.050 A 
ATOM      8  N   LIG    1        0.945  -2.014  -0.018  0.00  0.00    -0.480 NA
ATOM      9  C   LIG    1       -0.345  -2.184  -0.006  0.00  0.00    +0.270 A 
ENDROOT
BRANCH   9  10
ATOM     10  C   LIG    1       -1.039  -3.522  -0.007  0.00  0.00    +0.340 C 
ATOM     11  C   LIG    1       -0.929  -4.155   1.381  0.00  0.00    +0.060 C 
BRANCH  10  12
ATOM     12  N   LIG    1       -0.407  -4.399  -0.996  0.00  0.00    -0.710 N 
ATOM     13  H   LIG    1        0.516  -4.252  -1.256  0.00  0.00    +0.420 HD
ATOM     14  C   LIG    1       -1.108  -5.412  -1.543  0.00  0.00    +0.610 C 
ATOM     15  O   LIG    1       -2.265  -5.598  -1.217  0.00  0.00    -0.520 OA
BRANCH  14  16
ATOM     16  C   LIG    1       -0.475  -6.291  -2.533  0.00  0.00    -0.090 A 
ATOM     17  C   LIG    1       -1.067  -7.348  -3.162  0.00  0.00    +0.050 A 
ATOM     18  C   LIG    1       -0.102  -7.899  -4.019  0.00  0.00    -0.070 A 
ATOM     19  C   LIG    1        1.022  -7.164  -3.878  0.00  0.00    +0.210 A 
ATOM     20  O   LIG    1        0.792  -6.192  -2.985  0.00  0.00    -0.160 OA
ENDBRANCH  14  16
ENDBRANCH  10  12
ENDBRANCH   9  10
BRANCH   1  21
ATOM     21  C   LIG    1       -2.423  -0.757   0.021  0.00  0.00    +0.310 C 
BRANCH  21  22
ATOM     22  C   LIG    1       -2.941  -0.672  -1.416  0.00  0.00    +0.020 C 
BRANCH  22  23
ATOM     23  C   LIG    1       -4.454  -0.440  -1.400  0.00  0.00    +0.200 C 
BRANCH  23  24
ATOM     24  O   LIG    1       -4.937  -0.361  -2.743  0.00  0.00    -0.310 OA
BRANCH  24  29
ATOM     25  C   LIG    1      -10.463   0.490  -3.423  0.00  0.00    +0.100 C 
ATOM     26  C   LIG    1       -8.985   0.262  -3.241  0.00  0.00    -0.120 A 
ATOM     27  C   LIG    1       -8.451   0.176  -1.969  0.00  0.00    +0.030 A 
ATOM     28  C   LIG    1       -7.096  -0.033  -1.799  0.00  0.00    -0.070 A 
ATOM     29  C   LIG    1       -6.271  -0.156  -2.907  0.00  0.00    +0.120 A 
ATOM     30  C   LIG    1       -6.808  -0.063  -4.183  0.00  0.00    -0.110 A 
ATOM     31  C   LIG    1       -5.912  -0.190  -5.389  0.00  0.00    +0.100 C 
ATOM     32  C   LIG    1       -8.164   0.139  -4.347  0.00  0.00    +0.050 A 
ENDBRANCH  24  29
ENDBRANCH  23  24
ENDBRANCH  22  23
ENDBRANCH  21  22
ENDBRANCH   1  21
TORSDOF 8
