REMARK  Name = ZINCpk000000oeTM.0
REMARK                            x       y       z     vdW  Elec       q    Type
REMARK                         _______ _______ _______ _____ _____    ______ ____
ROOT
ATOM      1  N   LIG    1        1.615   5.394   0.475  0.00  0.00    -0.570 N 
ATOM      2  C   LIG    1        2.198   4.228   0.146  0.00  0.00    +0.570 C 
ATOM      3  C   LIG    1        1.149   3.187   0.050  0.00  0.00    -0.110 A 
ATOM      4  C   LIG    1        1.158   1.834  -0.247  0.00  0.00    +0.110 A 
ATOM      5  C   LIG    1       -0.029   1.121  -0.253  0.00  0.00    +0.130 A 
ATOM      6  C   LIG    1       -1.235   1.760   0.034  0.00  0.00    -0.110 A 
ATOM      7  C   LIG    1       -1.252   3.123   0.341  0.00  0.00    +0.130 A 
ATOM      8  C   LIG    1       -0.066   3.838   0.347  0.00  0.00    -0.140 A 
ATOM      9  O   LIG    1        3.385   4.057  -0.042  0.00  0.00    -0.450 OA
ATOM     10  C   LIG    1        0.284   5.249   0.612  0.00  0.00    +0.580 C 
ATOM     11  O   LIG    1       -0.498   6.130   0.905  0.00  0.00    -0.450 OA
ENDROOT
BRANCH   6  12
ATOM     12  C   LIG    1       -2.500   0.991   0.019  0.00  0.00    +0.570 C 
ATOM     13  N   LIG    1       -3.625   1.553  -0.466  0.00  0.00    -0.610 N 
ATOM     14  C   LIG    1       -3.595   2.880  -1.101  0.00  0.00    +0.260 C 
ATOM     15  C   LIG    1       -4.307   2.783  -2.455  0.00  0.00    +0.240 C 
ATOM     16  O   LIG    1       -5.598   2.198  -2.268  0.00  0.00    -0.370 OA
ATOM     17  C   LIG    1       -5.566   0.860  -1.765  0.00  0.00    +0.260 C 
ATOM     18  C   LIG    1       -4.918   0.855  -0.381  0.00  0.00    +0.360 C 
ATOM     19  O   LIG    1       -2.524  -0.148   0.444  0.00  0.00    -0.510 OA
BRANCH  18  20
ATOM     20  C   LIG    1       -5.794   1.551   0.575  0.00  0.00    +0.190 C 
ATOM     21  N   LIG    1       -6.471   2.087   1.313  0.00  0.00    -0.400 NA
ENDBRANCH  18  20
ENDBRANCH   6  12
BRANCH   1  22
ATOM     22  C   LIG    1        2.334   6.657   0.661  0.00  0.00    +0.310 C 
BRANCH  22  23
ATOM     23  C   LIG    1        2.407   7.403  -0.673  0.00  0.00    +0.000 C 
BRANCH  23  25
ATOM     24  C   LIG    1        3.231   9.467  -1.814  0.00  0.00    +0.020 C 
ATOM     25  C   LIG    1        3.158   8.722  -0.480  0.00  0.00    +0.020 C 
ENDBRANCH  23  25
ENDBRANCH  22  23
ENDBRANCH   1  22
TORSDOF 5
