REMARK  Name = ZINCtV00001bB3gh.0
REMARK                            x       y       z     vdW  Elec       q    Type
REMARK                         _______ _______ _______ _____ _____    ______ ____
ROOT
ATOM      1  N   LIG    1       -0.924  -6.211   0.096  0.00  0.00    -0.330 N 
ATOM      2  N   LIG    1       -1.809  -7.065   0.772  0.00  0.00    -0.060 NA
ATOM      3  N   LIG    1       -1.606  -8.265   0.349  0.00  0.00    -0.230 NA
ATOM      4  C   LIG    1       -0.632  -8.267  -0.562  0.00  0.00    +0.120 A 
ATOM      5  C   LIG    1       -0.192  -7.003  -0.737  0.00  0.00    +0.080 A 
ENDROOT
BRANCH   5   6
ATOM      6  C   LIG    1        0.900  -6.553  -1.674  0.00  0.00    +0.020 C 
ATOM      7  C   LIG    1        0.781  -5.047  -1.911  0.00  0.00    +0.020 C 
ATOM      8  C   LIG    1        1.889  -4.590  -2.862  0.00  0.00    -0.010 C 
ATOM      9  C   LIG    1        3.253  -4.903  -2.243  0.00  0.00    +0.020 C 
ATOM     10  C   LIG    1        3.372  -6.410  -2.006  0.00  0.00    +0.000 C 
ATOM     11  C   LIG    1        3.236  -7.148  -3.340  0.00  0.00    +0.030 C 
ATOM     12  C   LIG    1        1.872  -6.835  -3.958  0.00  0.00    +0.000 C 
ATOM     13  C   LIG    1        1.753  -5.328  -4.195  0.00  0.00    +0.020 C 
ATOM     14  C   LIG    1        2.264  -6.866  -1.055  0.00  0.00    +0.030 C 
ATOM     15  C   LIG    1        0.763  -7.291  -3.007  0.00  0.00    +0.040 C 
ENDBRANCH   5   6
BRANCH   1  19
ATOM     16  C   LIG    1       -0.589  -2.079   0.558  0.00  0.00    +0.070 A 
ATOM     17  C   LIG    1        0.460  -2.916   0.950  0.00  0.00    +0.060 A 
ATOM     18  C   LIG    1        0.343  -4.280   0.801  0.00  0.00    +0.040 A 
ATOM     19  C   LIG    1       -0.812  -4.824   0.252  0.00  0.00    +0.160 A 
ATOM     20  C   LIG    1       -1.856  -3.996  -0.144  0.00  0.00    +0.040 A 
ATOM     21  C   LIG    1       -1.750  -2.631   0.006  0.00  0.00    +0.100 A 
BRANCH  16  23
ATOM     22  N   LIG    1        0.591  -0.219   1.218  0.00  0.00    -0.200 NA
ATOM     23  N   LIG    1       -0.480  -0.726   0.709  0.00  0.00    -0.220 NA
BRANCH  22  27
ATOM     24  C   LIG    1        0.925   3.879   1.673  0.00  0.00    +0.050 A 
ATOM     25  C   LIG    1        1.964   3.056   2.069  0.00  0.00    +0.010 A 
ATOM     26  C   LIG    1        1.860   1.689   1.921  0.00  0.00    +0.090 A 
ATOM     27  C   LIG    1        0.701   1.135   1.369  0.00  0.00    +0.030 A 
ATOM     28  C   LIG    1       -0.342   1.974   0.967  0.00  0.00    +0.050 A 
ATOM     29  C   LIG    1       -0.226   3.339   1.126  0.00  0.00    +0.000 A 
ENDBRANCH  22  27
ENDBRANCH  16  23
ENDBRANCH   1  19
TORSDOF 4
