REMARK  Name = ZINCqH0000036ba9.0
REMARK                            x       y       z     vdW  Elec       q    Type
REMARK                         _______ _______ _______ _____ _____    ______ ____
ROOT
ATOM      1  C   LIG    1        1.197   2.110  -0.161  0.00  0.00    +0.120 A 
ATOM      2  C   LIG    1        0.000   1.410  -0.111  0.00  0.00    -0.050 A 
ATOM      3  C   LIG    1        0.004   0.031  -0.025  0.00  0.00    +0.050 A 
ATOM      4  C   LIG    1        1.205  -0.661   0.012  0.00  0.00    +0.070 A 
ATOM      5  O   LIG    1        1.196  -2.019   0.089  0.00  0.00    -0.310 OA
ATOM      6  C   LIG    1        2.380  -2.667   0.560  0.00  0.00    +0.160 C 
ATOM      7  C   LIG    1        3.587  -2.112  -0.208  0.00  0.00    +0.280 C 
ATOM      8  N   LIG    1        3.624  -0.656   0.011  0.00  0.00    -0.540 N 
ATOM      9  C   LIG    1        4.786  -0.016   0.249  0.00  0.00    +0.610 C 
ATOM     10  O   LIG    1        4.797   1.192   0.386  0.00  0.00    -0.480 OA
ATOM     11  C   LIG    1        2.268  -4.174   0.322  0.00  0.00    +0.080 C 
ATOM     12  C   LIG    1        2.406   0.042  -0.035  0.00  0.00    +0.110 A 
ATOM     13  C   LIG    1        2.402   1.425  -0.122  0.00  0.00    +0.030 A 
ENDROOT
BRANCH   9  14
ATOM     14  C   LIG    1        6.043  -0.781   0.342  0.00  0.00    -0.090 A 
ATOM     15  C   LIG    1        7.271  -0.298   0.698  0.00  0.00    +0.060 A 
ATOM     16  C   LIG    1        8.117  -1.439   0.629  0.00  0.00    +0.060 A 
ATOM     17  N   LIG    1        7.358  -2.437   0.251  0.00  0.00    -0.330 NA
ATOM     18  O   LIG    1        6.211  -2.092   0.088  0.00  0.00    +0.120 OA
BRANCH  16  19
ATOM     19  C   LIG    1        9.571  -1.487   0.922  0.00  0.00    -0.030 A 
ATOM     20  C   LIG    1       10.245  -0.332   1.311  0.00  0.00    +0.040 A 
ATOM     21  C   LIG    1       11.597  -0.383   1.586  0.00  0.00    +0.010 A 
ATOM     22  C   LIG    1       12.284  -1.578   1.466  0.00  0.00    +0.030 A 
ATOM     23  C   LIG    1       11.621  -2.727   1.076  0.00  0.00    +0.010 A 
ATOM     24  C   LIG    1       10.269  -2.688   0.803  0.00  0.00    +0.040 A 
ENDBRANCH  16  19
ENDBRANCH   9  14
BRANCH   1  26
ATOM     25  C   LIG    1       -0.089   4.107  -0.283  0.00  0.00    +0.250 C 
ATOM     26  O   LIG    1        1.188   3.467  -0.247  0.00  0.00    -0.310 OA
ENDBRANCH   1  26
TORSDOF 3
