REMARK  Name = ZINCrH000004mxPv.0
REMARK                            x       y       z     vdW  Elec       q    Type
REMARK                         _______ _______ _______ _____ _____    ______ ____
ROOT
ATOM      1  N   LIG    1       -2.268   3.296  -1.092  0.00  0.00    -0.720 N 
ATOM      2  H   LIG    1       -1.447   3.737  -1.361  0.00  0.00    +0.400 HD
ATOM      3  C   LIG    1       -3.428   3.982  -1.080  0.00  0.00    +0.510 C 
ATOM      4  O   LIG    1       -4.439   3.457  -0.664  0.00  0.00    -0.500 OA
ENDROOT
BRANCH   3   5
ATOM      5  C   LIG    1       -3.469   5.401  -1.585  0.00  0.00    +0.050 C 
ATOM      6  C   LIG    1       -3.034   5.434  -3.051  0.00  0.00    +0.090 C 
ATOM      7  C   LIG    1       -4.104   4.826  -3.917  0.00  0.00    +0.520 C 
ATOM      8  N   LIG    1       -5.406   4.987  -3.618  0.00  0.00    -0.660 N 
ATOM      9  H   LIG    1       -6.084   4.599  -4.193  0.00  0.00    +0.410 HD
ATOM     10  C   LIG    1       -5.788   5.710  -2.483  0.00  0.00    +0.170 A 
ATOM     11  C   LIG    1       -7.082   6.202  -2.372  0.00  0.00    -0.020 A 
ATOM     12  C   LIG    1       -7.453   6.915  -1.249  0.00  0.00    +0.050 A 
ATOM     13  C   LIG    1       -6.539   7.139  -0.236  0.00  0.00    -0.010 A 
ATOM     14  C   LIG    1       -5.249   6.650  -0.344  0.00  0.00    +0.060 A 
ATOM     15  O   LIG    1       -3.789   4.183  -4.896  0.00  0.00    -0.520 OA
ATOM     16  C   LIG    1       -4.872   5.936  -1.464  0.00  0.00    -0.100 A 
ENDBRANCH   3   5
BRANCH   1  17
ATOM     17  C   LIG    1       -2.247   1.886  -0.697  0.00  0.00    +0.220 C 
ATOM     18  C   LIG    1       -0.805   1.349  -0.734  0.00  0.00    +0.030 C 
ATOM     19  C   LIG    1       -0.468   0.893   0.701  0.00  0.00    +0.020 C 
ATOM     20  C   LIG    1       -1.430   1.710   1.599  0.00  0.00    +0.010 C 
ATOM     21  C   LIG    1       -2.735   1.737   0.759  0.00  0.00    +0.030 C 
BRANCH  17  25
ATOM     22  C   LIG    1       -4.727  -0.404  -3.318  0.00  0.00    +0.120 A 
ATOM     23  C   LIG    1       -4.255   0.839  -3.717  0.00  0.00    -0.010 A 
ATOM     24  C   LIG    1       -3.454   1.577  -2.868  0.00  0.00    +0.060 A 
ATOM     25  C   LIG    1       -3.122   1.078  -1.621  0.00  0.00    -0.110 A 
ATOM     26  C   LIG    1       -3.586  -0.162  -1.224  0.00  0.00    +0.060 A 
ATOM     27  C   LIG    1       -4.393  -0.901  -2.067  0.00  0.00    -0.080 A 
BRANCH  22  29
ATOM     28  C   LIG    1       -5.966  -2.401  -3.675  0.00  0.00    +0.240 C 
ATOM     29  O   LIG    1       -5.516  -1.131  -4.152  0.00  0.00    -0.320 OA
ENDBRANCH  22  29
ENDBRANCH  17  25
ENDBRANCH   1  17
TORSDOF 4
