REMARK  Name = ZINCvU0000000DdF.0
REMARK                            x       y       z     vdW  Elec       q    Type
REMARK                         _______ _______ _______ _____ _____    ______ ____
ROOT
ATOM      1  S   LIG    1        0.066   5.881   0.034  0.00  0.00    +0.080 S 
ENDROOT
BRANCH   1  13
ATOM      2  N   LIG    1       -1.193   3.498   0.034  0.00  0.00    -0.520 N 
ATOM      3  C   LIG    1       -1.275   2.147   0.032  0.00  0.00    +0.560 A 
ATOM      4  C   LIG    1       -0.017   1.390   0.010  0.00  0.00    -0.200 A 
ATOM      5  C   LIG    1        0.002  -0.004   0.002  0.00  0.00    +0.130 A 
ATOM      6  C   LIG    1        1.199  -0.665  -0.013  0.00  0.00    +0.000 A 
ATOM      7  C   LIG    1        2.398   0.038  -0.021  0.00  0.00    +0.010 A 
ATOM      8  C   LIG    1        2.408   1.416  -0.013  0.00  0.00    +0.040 A 
ATOM      9 CL   LIG    1        3.901  -0.830  -0.039  0.00  0.00    -0.050 Cl
ATOM     10  C   LIG    1        1.198   2.114   0.002  0.00  0.00    +0.180 A 
ATOM     11  N   LIG    1        1.159   3.467   0.010  0.00  0.00    -0.530 NA
ATOM     12  O   LIG    1       -2.353   1.581   0.044  0.00  0.00    -0.490 OA
ATOM     13  C   LIG    1        0.023   4.120   0.025  0.00  0.00    +0.370 A 
BRANCH   2  15
ATOM     14  C   LIG    1       -3.253   3.983  -1.192  0.00  0.00    +0.050 C 
ATOM     15  C   LIG    1       -2.419   4.300   0.051  0.00  0.00    +0.220 C 
ATOM     16  C   LIG    1       -3.228   3.969   1.306  0.00  0.00    +0.050 C 
ENDBRANCH   2  15
ENDBRANCH   1  13
BRANCH   1  17
ATOM     17  C   LIG    1        1.855   6.152   0.018  0.00  0.00    +0.020 C 
ATOM     18  C   LIG    1        2.463   5.618   1.317  0.00  0.00    +0.090 C 
BRANCH  17  19
ATOM     19  C   LIG    1        2.139   7.627  -0.100  0.00  0.00    +0.540 C 
ATOM     20  N   LIG    1        3.306   8.049  -0.625  0.00  0.00    -0.720 N 
ATOM     21  H   LIG    1        3.964   7.403  -0.927  0.00  0.00    +0.400 HD
ATOM     22  O   LIG    1        1.317   8.435   0.277  0.00  0.00    -0.520 OA
BRANCH  20  23
ATOM     23  C   LIG    1        3.582   9.483  -0.740  0.00  0.00    +0.180 C 
ATOM     24  C   LIG    1        3.550  10.122   0.650  0.00  0.00    +0.030 C 
ATOM     25  C   LIG    1        3.838  11.619   0.530  0.00  0.00    -0.010 C 
ATOM     26  C   LIG    1        2.776  12.274  -0.356  0.00  0.00    +0.020 C 
ATOM     27  C   LIG    1        2.808  11.635  -1.746  0.00  0.00    -0.010 C 
ATOM     28  C   LIG    1        4.191  11.840  -2.370  0.00  0.00    +0.020 C 
ATOM     29  C   LIG    1        5.252  11.186  -1.484  0.00  0.00    +0.000 C 
ATOM     30  C   LIG    1        5.220  11.825  -0.094  0.00  0.00    +0.020 C 
ATOM     31  C   LIG    1        2.520  10.137  -1.626  0.00  0.00    +0.030 C 
ATOM     32  C   LIG    1        4.964   9.688  -1.364  0.00  0.00    +0.020 C 
ENDBRANCH  20  23
ENDBRANCH  17  19
ENDBRANCH   1  17
TORSDOF 5
