REMARK  Name = ZINCtV00000rytjs.0
REMARK                            x       y       z     vdW  Elec       q    Type
REMARK                         _______ _______ _______ _____ _____    ______ ____
ROOT
ATOM      1  C   LIG    1       -3.976   5.461   0.067  0.00  0.00    -0.020 A 
ATOM      2  C   LIG    1       -4.652   4.299   0.068  0.00  0.00    +0.190 A 
ATOM      3  O   LIG    1       -3.742   3.305   0.049  0.00  0.00    -0.180 OA
ATOM      4  C   LIG    1       -2.522   3.870   0.045  0.00  0.00    +0.220 A 
ATOM      5  N   LIG    1       -2.665   5.174   0.053  0.00  0.00    -0.440 NA
ENDROOT
BRANCH   4   6
ATOM      6  C   LIG    1       -1.234   3.143   0.030  0.00  0.00    +0.030 A 
ATOM      7  C   LIG    1       -0.031   3.850   0.022  0.00  0.00    +0.080 A 
ATOM      8  C   LIG    1        1.167   3.166   0.007  0.00  0.00    +0.060 A 
ATOM      9  C   LIG    1        1.177   1.782   0.000  0.00  0.00    +0.040 A 
ATOM     10  C   LIG    1       -0.013   1.076   0.008  0.00  0.00    +0.080 A 
ATOM     11  C   LIG    1       -1.217   1.748   0.017  0.00  0.00    -0.160 A 
BRANCH  11  12
ATOM     12  C   LIG    1       -2.512   0.977   0.019  0.00  0.00    +0.510 C 
ATOM     13  F   LIG    1       -3.256   1.311  -1.118  0.00  0.00    -0.170 F 
ATOM     14  F   LIG    1       -3.245   1.298   1.167  0.00  0.00    -0.170 F 
ATOM     15  F   LIG    1       -2.238  -0.395   0.010  0.00  0.00    -0.170 F 
ENDBRANCH  11  12
ENDBRANCH   4   6
BRANCH   1  16
ATOM     16  C   LIG    1       -4.582   6.841   0.079  0.00  0.00    +0.330 C 
BRANCH  16  17
ATOM     17  O   LIG    1       -6.030   6.734   0.091  0.00  0.00    -0.340 OA
BRANCH  17  19
ATOM     18  O   LIG    1       -6.145   8.940   0.102  0.00  0.00    -0.490 OA
ATOM     19  C   LIG    1       -6.726   7.881   0.103  0.00  0.00    +0.480 C 
BRANCH  19  20
ATOM     20  C   LIG    1       -8.233   7.848   0.117  0.00  0.00    -0.040 C 
ATOM     21  C   LIG    1       -8.774   9.279   0.128  0.00  0.00    +0.050 C 
ATOM     22  C   LIG    1       -8.291  10.017  -1.123  0.00  0.00    +0.010 C 
ATOM     23  C   LIG    1       -8.797   9.290  -2.370  0.00  0.00    +0.000 C 
ATOM     24  C   LIG    1       -8.256   7.859  -2.382  0.00  0.00    +0.010 C 
ATOM     25  C   LIG    1       -8.715   7.111   1.367  0.00  0.00    +0.040 C 
ATOM     26  C   LIG    1       -8.174   5.680   1.356  0.00  0.00    +0.010 C 
ATOM     27  C   LIG    1       -8.680   4.953   0.108  0.00  0.00    +0.000 C 
ATOM     28  C   LIG    1       -8.197   5.690  -1.142  0.00  0.00    +0.020 C 
ATOM     29  C   LIG    1       -8.738   7.121  -1.131  0.00  0.00    +0.020 C 
ENDBRANCH  19  20
ENDBRANCH  17  19
ENDBRANCH  16  17
ENDBRANCH   1  16
TORSDOF 6
