REMARK  Name = ZINCvU0000000C9L.0
REMARK                            x       y       z     vdW  Elec       q    Type
REMARK                         _______ _______ _______ _____ _____    ______ ____
ROOT
ATOM      1  C   LIG    1        2.047   0.585  -0.014  0.00  0.00    +0.240 A 
ATOM      2  N   LIG    1        1.214  -0.430  -0.012  0.00  0.00    -0.260 NA
ATOM      3  N   LIG    1        0.002  -0.004   0.002  0.00  0.00    -0.280 NA
ATOM      4  C   LIG    1       -0.016   1.310   0.009  0.00  0.00    +0.150 A 
ATOM      5  N   LIG    1        1.285   1.733  -0.001  0.00  0.00    -0.420 N 
ENDROOT
BRANCH   5   6
ATOM      6  C   LIG    1        1.747   3.057   0.001  0.00  0.00    +0.120 A 
ATOM      7  C   LIG    1        2.450   3.550  -1.090  0.00  0.00    +0.050 A 
ATOM      8  C   LIG    1        2.899   4.856  -1.087  0.00  0.00    +0.070 A 
ATOM      9  C   LIG    1        2.659   5.669   0.006  0.00  0.00    -0.080 A 
ATOM     10  C   LIG    1        1.963   5.178   1.097  0.00  0.00    +0.080 A 
ATOM     11 BR   LIG    1        3.282   7.455   0.010  0.00  0.00    -0.030 Br
ATOM     12  C   LIG    1        1.507   3.875   1.097  0.00  0.00    +0.050 A 
ENDBRANCH   5   6
BRANCH   1  16
ATOM     13  C   LIG    1        6.289   0.370  -0.058  0.00  0.00    -0.050 A 
ATOM     14  C   LIG    1        5.539  -0.751  -0.367  0.00  0.00    +0.020 A 
ATOM     15  C   LIG    1        4.161  -0.688  -0.354  0.00  0.00    +0.070 A 
ATOM     16  C   LIG    1        3.523   0.510  -0.029  0.00  0.00    -0.030 A 
ATOM     17  C   LIG    1        4.286   1.639   0.276  0.00  0.00    +0.030 A 
ATOM     18  C   LIG    1        5.663   1.561   0.265  0.00  0.00    +0.010 A 
BRANCH  13  20
ATOM     19  C   LIG    1        8.271  -0.098  -1.473  0.00  0.00    +0.040 C 
ATOM     20  C   LIG    1        7.794   0.294  -0.073  0.00  0.00    -0.030 C 
ATOM     21  C   LIG    1        8.262  -0.755   0.937  0.00  0.00    +0.040 C 
ATOM     22  C   LIG    1        8.377   1.658   0.301  0.00  0.00    +0.030 C 
ENDBRANCH  13  20
ENDBRANCH   1  16
BRANCH   4  23
ATOM     23  S   LIG    1       -1.448   2.337   0.022  0.00  0.00    +0.090 S 
BRANCH  23  24
ATOM     24  C   LIG    1       -2.742   1.071   0.022  0.00  0.00    +0.110 C 
BRANCH  24  25
ATOM     25  C   LIG    1       -4.094   1.735   0.033  0.00  0.00    +0.550 C 
ATOM     26  N   LIG    1       -5.214   0.984   0.035  0.00  0.00    -0.610 N 
ATOM     27  C   LIG    1       -5.260  -0.486   0.021  0.00  0.00    +0.230 C 
ATOM     28  C   LIG    1       -6.747  -0.897   0.004  0.00  0.00    +0.040 C 
ATOM     29  C   LIG    1       -7.448   0.362  -0.570  0.00  0.00    +0.040 C 
ATOM     30  C   LIG    1       -6.595   1.500   0.045  0.00  0.00    +0.260 C 
ATOM     31  O   LIG    1       -4.176   2.945   0.039  0.00  0.00    -0.520 OA
ENDBRANCH  24  25
ENDBRANCH  23  24
ENDBRANCH   4  23
TORSDOF 6
