REMARK  Name = ZINCrH000004mWkk.0
REMARK                            x       y       z     vdW  Elec       q    Type
REMARK                         _______ _______ _______ _____ _____    ______ ____
ROOT
ATOM      1  S   LIG    1        2.339  -1.053  -1.304  0.00  0.00    +2.690 S 
ATOM      2  O   LIG    1        3.062  -0.093  -0.546  0.00  0.00    -0.950 OA
ATOM      3  O   LIG    1        2.708  -1.442  -2.620  0.00  0.00    -0.950 OA
ENDROOT
BRANCH   1   7
ATOM      4  C   LIG    1        2.260  -4.840   1.184  0.00  0.00    +0.150 A 
ATOM      5  C   LIG    1        2.442  -3.610   1.794  0.00  0.00    -0.070 A 
ATOM      6  C   LIG    1        2.470  -2.457   1.032  0.00  0.00    +0.140 A 
ATOM      7  C   LIG    1        2.307  -2.527  -0.340  0.00  0.00    -0.690 A 
ATOM      8  C   LIG    1        2.125  -3.751  -0.956  0.00  0.00    +0.180 A 
ATOM      9  C   LIG    1        2.101  -4.912  -0.198  0.00  0.00    +0.100 A 
BRANCH   9  10
ATOM     10  N   LIG    1        1.916  -6.153  -0.821  0.00  0.00    -0.660 N 
ATOM     11  H   LIG    1        1.608  -6.914  -0.304  0.00  0.00    +0.420 HD
ATOM     12  C   LIG    1        2.165  -6.290  -2.138  0.00  0.00    +0.510 C 
ATOM     13  O   LIG    1        2.643  -5.368  -2.764  0.00  0.00    -0.520 OA
ATOM     14  C   LIG    1        1.849  -7.589  -2.834  0.00  0.00    +0.110 C 
ENDBRANCH   9  10
BRANCH   4  16
ATOM     15  C   LIG    1        2.406  -5.826   3.344  0.00  0.00    +0.250 C 
ATOM     16  O   LIG    1        2.237  -5.976   1.933  0.00  0.00    -0.310 OA
ENDBRANCH   4  16
ENDBRANCH   1   7
BRANCH   1  17
ATOM     17  N   LIG    1        0.782  -0.496  -1.401  0.00  0.00    -1.110 NA
ATOM     18  H   LIG    1        0.326  -0.479  -2.256  0.00  0.00    +0.420 HD
BRANCH  17  19
ATOM     19  C   LIG    1        0.095  -0.031  -0.194  0.00  0.00    +0.340 C 
BRANCH  19  20
ATOM     20  C   LIG    1       -1.076  -0.933   0.097  0.00  0.00    -0.090 A 
ATOM     21  C   LIG    1       -1.865  -1.398  -0.939  0.00  0.00    +0.040 A 
ATOM     22  C   LIG    1       -2.936  -2.229  -0.673  0.00  0.00    +0.020 A 
ATOM     23  C   LIG    1       -3.226  -2.588   0.632  0.00  0.00    -0.030 A 
ATOM     24  C   LIG    1       -2.439  -2.119   1.669  0.00  0.00    +0.020 A 
ATOM     25 CL   LIG    1       -4.576  -3.627   0.967  0.00  0.00    -0.070 Cl
ATOM     26  C   LIG    1       -1.365  -1.292   1.401  0.00  0.00    +0.030 A 
ENDBRANCH  19  20
BRANCH  19  27
ATOM     27  C   LIG    1       -0.405   1.399  -0.411  0.00  0.00    -0.040 C 
ATOM     28  C   LIG    1       -0.172   2.027  -1.787  0.00  0.00    +0.030 C 
ATOM     29  C   LIG    1        0.647   2.497  -0.583  0.00  0.00    +0.040 C 
ENDBRANCH  19  27
ENDBRANCH  17  19
ENDBRANCH   1  17
TORSDOF 7
