REMARK  Name = ZINCvU00000005sO.0
REMARK                            x       y       z     vdW  Elec       q    Type
REMARK                         _______ _______ _______ _____ _____    ______ ____
ROOT
ATOM      1  N   LIG    1        0.295  -1.602  -4.638  0.00  0.00    -0.670 N 
ATOM      2  H   LIG    1        0.822  -1.851  -5.413  0.00  0.00    +0.410 HD
ATOM      3  C   LIG    1       -1.051  -1.589  -4.715  0.00  0.00    +0.510 C 
ATOM      4  O   LIG    1       -1.708  -1.200  -3.773  0.00  0.00    -0.510 OA
ENDROOT
BRANCH   1  11
ATOM      5  C   LIG    1        2.705  -2.953  -3.956  0.00  0.00    +0.080 C 
ATOM      6  C   LIG    1        2.108  -1.891  -3.069  0.00  0.00    -0.110 A 
ATOM      7  C   LIG    1        2.733  -1.547  -1.887  0.00  0.00    +0.030 A 
ATOM      8  C   LIG    1        2.190  -0.568  -1.075  0.00  0.00    +0.020 A 
ATOM      9  C   LIG    1        1.014   0.062  -1.439  0.00  0.00    -0.100 A 
ATOM     10  C   LIG    1        0.384  -0.277  -2.621  0.00  0.00    +0.040 A 
ATOM     11  C   LIG    1        0.930  -1.256  -3.441  0.00  0.00    +0.140 A 
BRANCH   9  12
ATOM     12  C   LIG    1        0.422   1.124  -0.549  0.00  0.00    +0.330 C 
BRANCH  12  13
ATOM     13  C   LIG    1        1.066   2.452  -0.854  0.00  0.00    +0.100 A 
ATOM     14  C   LIG    1        0.275   3.533  -1.193  0.00  0.00    -0.020 A 
ATOM     15  C   LIG    1        0.877   4.752  -1.467  0.00  0.00    +0.070 A 
ATOM     16  C   LIG    1        2.259   4.834  -1.401  0.00  0.00    -0.030 A 
ATOM     17  C   LIG    1        2.986   3.708  -1.061  0.00  0.00    +0.260 A 
ATOM     18  N   LIG    1        2.379   2.567  -0.801  0.00  0.00    -0.470 NA
ENDBRANCH  12  13
BRANCH  12  19
ATOM     19  O   LIG    1        0.657   0.784   0.819  0.00  0.00    -0.540 OA
ATOM     20  H   LIG    1        1.593   0.707   1.050  0.00  0.00    +0.380 HD
ENDBRANCH  12  19
ENDBRANCH   9  12
ENDBRANCH   1  11
BRANCH   3  21
ATOM     21  C   LIG    1       -1.738  -2.058  -5.971  0.00  0.00    +0.070 C 
BRANCH  21  22
ATOM     22  C   LIG    1       -3.254  -1.942  -5.798  0.00  0.00    +0.050 C 
ATOM     23  C   LIG    1       -3.639  -0.468  -5.652  0.00  0.00    +0.040 C 
BRANCH  22  24
ATOM     24  C   LIG    1       -3.944  -2.525  -7.004  0.00  0.00    -0.050 A 
ATOM     25  C   LIG    1       -3.715  -1.990  -8.257  0.00  0.00    +0.010 A 
ATOM     26  C   LIG    1       -4.344  -2.527  -9.364  0.00  0.00    +0.070 A 
ATOM     27  C   LIG    1       -5.212  -3.593  -9.216  0.00  0.00    -0.190 A 
ATOM     28  C   LIG    1       -5.445  -4.125  -7.962  0.00  0.00    +0.070 A 
ATOM     29  C   LIG    1       -4.812  -3.591  -6.856  0.00  0.00    +0.030 A 
BRANCH  27  30
ATOM     30  C   LIG    1       -5.903  -4.176 -10.422  0.00  0.00    +0.510 C 
ATOM     31  F   LIG    1       -6.141  -5.538 -10.211  0.00  0.00    -0.180 F 
ATOM     32  F   LIG    1       -5.090  -4.013 -11.549  0.00  0.00    -0.180 F 
ATOM     33  F   LIG    1       -7.119  -3.516 -10.626  0.00  0.00    -0.180 F 
ENDBRANCH  27  30
ENDBRANCH  22  24
ENDBRANCH  21  22
ENDBRANCH   3  21
TORSDOF 8
