REMARK  Name = ZINCrH000004t5Mv.0
REMARK                            x       y       z     vdW  Elec       q    Type
REMARK                         _______ _______ _______ _____ _____    ______ ____
ROOT
ATOM      1  N   LIG    1       -1.004  -1.117  -3.278  0.00  0.00    -0.730 N 
ATOM      2  H   LIG    1       -1.241  -2.010  -2.981  0.00  0.00    +0.410 HD
ATOM      3  C   LIG    1       -1.580  -0.599  -4.381  0.00  0.00    +0.720 C 
ATOM      4  N   LIG    1       -2.401  -1.359  -5.132  0.00  0.00    -0.630 N 
ATOM      5  C   LIG    1       -2.769  -2.715  -4.702  0.00  0.00    +0.260 C 
ATOM      6  C   LIG    1       -4.296  -2.831  -4.692  0.00  0.00    +0.010 C 
ATOM      7  C   LIG    1       -4.843  -2.438  -6.066  0.00  0.00    +0.030 C 
ATOM      8  C   LIG    1       -4.472  -0.985  -6.368  0.00  0.00    +0.030 C 
ATOM      9  C   LIG    1       -2.951  -0.845  -6.394  0.00  0.00    +0.310 C 
ATOM     10  O   LIG    1       -1.358   0.553  -4.699  0.00  0.00    -0.590 OA
ENDROOT
BRANCH   8  11
ATOM     11  C   LIG    1       -5.038  -0.588  -7.707  0.00  0.00    -0.060 A 
ATOM     12  C   LIG    1       -4.656  -1.269  -8.848  0.00  0.00    +0.050 A 
ATOM     13  C   LIG    1       -5.179  -0.911 -10.076  0.00  0.00    +0.030 A 
ATOM     14  C   LIG    1       -6.077   0.138 -10.167  0.00  0.00    +0.070 A 
ATOM     15  C   LIG    1       -6.456   0.825  -9.023  0.00  0.00    +0.070 A 
ATOM     16  F   LIG    1       -7.333   1.849  -9.109  0.00  0.00    -0.130 F 
ATOM     17  F   LIG    1       -6.584   0.492 -11.368  0.00  0.00    -0.130 F 
ATOM     18  C   LIG    1       -5.936   0.460  -7.794  0.00  0.00    +0.030 A 
ENDBRANCH   8  11
BRANCH   1  19
ATOM     19  C   LIG    1       -0.022  -0.331  -2.527  0.00  0.00    +0.390 C 
BRANCH  19  25
ATOM     20  C   LIG    1        0.007   1.458   0.003  0.00  0.00    +0.320 C 
ATOM     21  N   LIG    1        0.022  -0.007  -0.005  0.00  0.00    -0.450 N 
ATOM     22  C   LIG    1        0.045  -0.825   1.093  0.00  0.00    +0.130 A 
ATOM     23  C   LIG    1        0.053  -2.091   0.635  0.00  0.00    +0.140 A 
ATOM     24  N   LIG    1        0.035  -2.048  -0.706  0.00  0.00    -0.480 NA
ATOM     25  C   LIG    1        0.010  -0.803  -1.096  0.00  0.00    +0.190 A 
ENDBRANCH  19  25
BRANCH  19  26
ATOM     26  C   LIG    1        1.362  -0.511  -3.154  0.00  0.00    -0.060 C 
ATOM     27  C   LIG    1        2.154   0.754  -3.492  0.00  0.00    +0.020 C 
ATOM     28  C   LIG    1        1.537  -0.085  -4.613  0.00  0.00    +0.040 C 
ENDBRANCH  19  26
ENDBRANCH   1  19
TORSDOF 4
