REMARK  Name = ZINC650000006kUm.0
REMARK                            x       y       z     vdW  Elec       q    Type
REMARK                         _______ _______ _______ _____ _____    ______ ____
ROOT
ATOM      1  C   LIG    1       -0.720   3.008   1.225  0.00  0.00    +0.180 C 
ATOM      2  F   LIG    1       -1.397   3.472   0.091  0.00  0.00    -0.180 F 
ENDROOT
BRANCH   1   3
ATOM      3  C   LIG    1       -0.699   1.479   1.216  0.00  0.00    +0.300 C 
BRANCH   3   4
ATOM      4  N   LIG    1       -0.012   1.005   0.008  0.00  0.00    -0.640 N 
ATOM      5  H   LIG    1       -0.500   1.339  -0.810  0.00  0.00    +0.450 HD
ATOM      6  H   LIG    1        0.935   1.354   0.000  0.00  0.00    +0.440 HD
ATOM      7  H   LIG    1        0.002  -0.004   0.002  0.00  0.00    +0.460 HD
ENDBRANCH   3   4
ENDBRANCH   1   3
BRANCH   1   8
ATOM      8  C   LIG    1       -1.436   3.502   2.483  0.00  0.00    +0.300 C 
BRANCH   8   9
ATOM      9  N   LIG    1       -1.456   4.971   2.491  0.00  0.00    -0.640 N 
ATOM     10  H   LIG    1       -0.509   5.320   2.484  0.00  0.00    +0.440 HD
ATOM     11  H   LIG    1       -1.928   5.296   3.322  0.00  0.00    +0.460 HD
ATOM     12  H   LIG    1       -1.944   5.305   1.674  0.00  0.00    +0.450 HD
ENDBRANCH   8   9
ENDBRANCH   1   8
TORSDOF 4
