REMARK  Name = ZINC650000006kUm.1
REMARK                            x       y       z     vdW  Elec       q    Type
REMARK                         _______ _______ _______ _____ _____    ______ ____
ROOT
ATOM      1  C   LIG    1       -0.793   3.056  -1.078  0.00  0.00    +0.180 C 
ATOM      2  F   LIG    1       -1.360   3.491   0.125  0.00  0.00    -0.190 F 
ENDROOT
BRANCH   1   3
ATOM      3  C   LIG    1       -0.795   1.527  -1.120  0.00  0.00    +0.190 C 
BRANCH   3   4
ATOM      4  N   LIG    1       -0.012   1.005   0.008  0.00  0.00    -0.850 NA
ATOM      5  H   LIG    1        0.925   1.379   0.001  0.00  0.00    +0.350 HD
ATOM      6  H   LIG    1        0.002  -0.004   0.002  0.00  0.00    +0.360 HD
ENDBRANCH   3   4
ENDBRANCH   1   3
BRANCH   1   7
ATOM      7  C   LIG    1       -1.609   3.600  -2.252  0.00  0.00    +0.270 C 
BRANCH   7   8
ATOM      8  N   LIG    1       -1.607   5.069  -2.212  0.00  0.00    -0.640 N 
ATOM      9  H   LIG    1       -2.146   5.427  -2.986  0.00  0.00    +0.440 HD
ATOM     10  H   LIG    1       -0.658   5.405  -2.277  0.00  0.00    +0.440 HD
ATOM     11  H   LIG    1       -2.016   5.382  -1.344  0.00  0.00    +0.440 HD
ENDBRANCH   7   8
ENDBRANCH   1   7
TORSDOF 4
