REMARK  Name = ZINCvU0000000Drr.0
REMARK                            x       y       z     vdW  Elec       q    Type
REMARK                         _______ _______ _______ _____ _____    ______ ____
ROOT
ATOM      1  O   LIG    1        1.395   5.023  -0.964  0.00  0.00    -0.570 OA
ATOM      2  C   LIG    1        1.282   3.819  -1.087  0.00  0.00    +0.710 C 
ATOM      3  N   LIG    1        0.094   3.226  -0.850  0.00  0.00    -0.610 N 
ATOM      4  C   LIG    1       -1.045   3.979  -0.456  0.00  0.00    +0.290 C 
ATOM      5  C   LIG    1       -1.129   4.279   1.076  0.00  0.00    +0.010 C 
ATOM      6  C   LIG    1       -0.616   3.007   1.827  0.00  0.00    +0.250 C 
ATOM      7  N   LIG    1       -0.999   1.774   1.234  0.00  0.00    -0.590 N 
ATOM      8  C   LIG    1       -0.018   1.129   0.324  0.00  0.00    +0.280 C 
ATOM      9  C   LIG    1       -2.200   1.215   1.485  0.00  0.00    +0.570 C 
ATOM     10  O   LIG    1       -2.532   0.202   0.902  0.00  0.00    -0.530 OA
ATOM     11  C   LIG    1       -0.081   1.758  -0.991  0.00  0.00    +0.260 C 
ATOM     12  N   LIG    1        2.343   3.076  -1.460  0.00  0.00    -0.740 N 
ATOM     13  H   LIG    1        2.252   2.115  -1.558  0.00  0.00    +0.390 HD
ENDROOT
BRANCH   9  14
ATOM     14  C   LIG    1       -3.111   1.834   2.469  0.00  0.00    -0.150 A 
ATOM     15  C   LIG    1       -2.923   3.161   2.861  0.00  0.00    +0.080 A 
ATOM     16  C   LIG    1       -3.779   3.735   3.776  0.00  0.00    -0.020 A 
ATOM     17  C   LIG    1       -4.820   2.994   4.314  0.00  0.00    +0.130 A 
ATOM     18  C   LIG    1       -5.008   1.675   3.933  0.00  0.00    -0.020 A 
ATOM     19  F   LIG    1       -5.653   3.560   5.215  0.00  0.00    -0.130 F 
ATOM     20  C   LIG    1       -4.161   1.093   3.015  0.00  0.00    +0.110 A 
ENDBRANCH   9  14
BRANCH  12  21
ATOM     21  C   LIG    1        3.633   3.720  -1.717  0.00  0.00    +0.350 C 
BRANCH  21  22
ATOM     22  C   LIG    1        4.396   2.925  -2.745  0.00  0.00    -0.080 A 
ATOM     23  C   LIG    1        4.998   3.569  -3.811  0.00  0.00    -0.020 A 
ATOM     24  C   LIG    1        5.703   2.839  -4.751  0.00  0.00    +0.050 A 
ATOM     25  C   LIG    1        5.795   1.465  -4.633  0.00  0.00    +0.060 A 
ATOM     26  C   LIG    1        5.188   0.820  -3.571  0.00  0.00    +0.040 A 
ATOM     27 CL   LIG    1        4.876   5.294  -3.964  0.00  0.00    -0.040 Cl
ATOM     28  C   LIG    1        4.488   1.550  -2.627  0.00  0.00    -0.020 A 
ATOM     29 CL   LIG    1        3.727   0.740  -1.293  0.00  0.00    -0.040 Cl
ENDBRANCH  21  22
BRANCH  21  30
ATOM     30  C   LIG    1        4.440   3.781  -0.418  0.00  0.00    -0.060 C 
ATOM     31  C   LIG    1        3.892   3.021   0.791  0.00  0.00    +0.010 C 
ATOM     32  C   LIG    1        3.832   4.550   0.756  0.00  0.00    +0.030 C 
ENDBRANCH  21  30
ENDBRANCH  12  21
TORSDOF 4
