REMARK  Name = ZINCpe000000YW9f.0
REMARK                            x       y       z     vdW  Elec       q    Type
REMARK                         _______ _______ _______ _____ _____    ______ ____
ROOT
ATOM      1  O   LIG    1        2.195   0.318  -7.427  0.00  0.00    -0.510 OA
ATOM      2  C   LIG    1        1.910  -0.812  -7.093  0.00  0.00    +0.530 C 
ATOM      3  N   LIG    1        1.372  -1.040  -5.878  0.00  0.00    -0.620 N 
ATOM      4  C   LIG    1        0.981  -2.354  -5.347  0.00  0.00    +0.260 C 
ATOM      5  C   LIG    1        0.390  -2.123  -3.940  0.00  0.00    +0.040 C 
ATOM      6  C   LIG    1       -0.038  -0.632  -3.984  0.00  0.00    +0.270 C 
ATOM      7  C   LIG    1        1.078  -0.013  -4.862  0.00  0.00    +0.260 C 
ENDROOT
BRANCH   6   8
ATOM      8  N   LIG    1       -0.036  -0.046  -2.641  0.00  0.00    -0.740 N 
ATOM      9  H   LIG    1        0.494  -0.450  -1.936  0.00  0.00    +0.400 HD
ATOM     10  C   LIG    1       -0.770   1.055  -2.386  0.00  0.00    +0.720 C 
ATOM     11  N   LIG    1       -0.768   1.595  -1.151  0.00  0.00    -0.630 N 
ATOM     12  C   LIG    1       -0.013   1.086   0.008  0.00  0.00    +0.240 C 
ATOM     13  C   LIG    1       -0.783   1.608   1.247  0.00  0.00    +0.040 C 
ATOM     14  C   LIG    1       -1.232   3.013   0.763  0.00  0.00    +0.040 C 
ATOM     15  C   LIG    1       -1.519   2.789  -0.737  0.00  0.00    +0.240 C 
ATOM     16  O   LIG    1       -1.434   1.562  -3.270  0.00  0.00    -0.540 OA
BRANCH  15  17
ATOM     17  C   LIG    1       -1.053   4.003  -1.543  0.00  0.00    +0.150 C 
BRANCH  17  18
ATOM     18  O   LIG    1       -1.411   3.830  -2.915  0.00  0.00    -0.530 OA
ATOM     19  H   LIG    1       -1.146   4.564  -3.486  0.00  0.00    +0.370 HD
ENDBRANCH  17  18
ENDBRANCH  15  17
ENDBRANCH   6   8
BRANCH   2  20
ATOM     20  C   LIG    1        2.157  -1.962  -8.035  0.00  0.00    +0.230 C 
BRANCH  20  21
ATOM     21  O   LIG    1        2.728  -1.469  -9.248  0.00  0.00    -0.290 OA
BRANCH  21  22
ATOM     22  C   LIG    1        3.015  -2.383 -10.212  0.00  0.00    +0.130 A 
ATOM     23  C   LIG    1        2.757  -3.729  -9.992  0.00  0.00    -0.080 A 
ATOM     24  C   LIG    1        3.043  -4.656 -10.975  0.00  0.00    +0.050 A 
ATOM     25  C   LIG    1        3.598  -4.245 -12.173  0.00  0.00    -0.030 A 
ATOM     26  C   LIG    1        3.861  -2.906 -12.393  0.00  0.00    +0.050 A 
ATOM     27  C   LIG    1        3.571  -1.974 -11.415  0.00  0.00    -0.020 A 
ENDBRANCH  21  22
ENDBRANCH  20  21
ENDBRANCH   2  20
TORSDOF 6
