REMARK  Name = ZINCpk00000y6u3O.0
REMARK                            x       y       z     vdW  Elec       q    Type
REMARK                         _______ _______ _______ _____ _____    ______ ____
ROOT
ATOM      1  C   LIG    1       -1.394  -3.856  -1.639  0.00  0.00    -0.020 C 
ATOM      2  C   LIG    1       -1.338  -5.221  -2.337  0.00  0.00    +0.040 C 
ATOM      3  C   LIG    1       -0.617  -6.207  -1.415  0.00  0.00    +0.070 C 
ATOM      4  C   LIG    1        0.663  -5.600  -0.918  0.00  0.00    +0.510 C 
ATOM      5  N   LIG    1        0.925  -4.293  -0.963  0.00  0.00    -0.600 N 
ATOM      6  C   LIG    1        2.194  -3.828  -0.398  0.00  0.00    +0.290 C 
ATOM      7  O   LIG    1        1.505  -6.338  -0.451  0.00  0.00    -0.550 OA
ATOM      8  C   LIG    1        0.027  -3.300  -1.538  0.00  0.00    +0.320 C 
ENDROOT
BRANCH   8   9
ATOM      9  C   LIG    1        0.019  -2.071  -0.665  0.00  0.00    -0.260 A 
ATOM     10  C   LIG    1       -0.002  -0.788  -1.096  0.00  0.00    +0.260 A 
ATOM     11  N   LIG    1        0.002   0.011  -0.009  0.00  0.00    -0.370 N 
ATOM     12  N   LIG    1        0.017  -0.808   1.128  0.00  0.00    -0.290 NA
ATOM     13  C   LIG    1       -0.014   1.476  -0.016  0.00  0.00    +0.360 C 
ATOM     14  C   LIG    1        0.028  -2.055   0.734  0.00  0.00    +0.250 A 
ENDBRANCH   8   9
BRANCH   1  15
ATOM     15  C   LIG    1       -2.264  -2.898  -2.454  0.00  0.00    +0.280 C 
BRANCH  15  17
ATOM     16  C   LIG    1       -4.601  -2.681  -3.108  0.00  0.00    +0.600 C 
ATOM     17  N   LIG    1       -3.650  -3.372  -2.449  0.00  0.00    -0.720 N 
ATOM     18  H   LIG    1       -3.883  -4.184  -1.972  0.00  0.00    +0.400 HD
ATOM     19  O   LIG    1       -4.329  -1.615  -3.627  0.00  0.00    -0.520 OA
BRANCH  16  22
ATOM     20  C   LIG    1       -7.029  -1.820  -1.310  0.00  0.00    +0.110 C 
ATOM     21  C   LIG    1       -7.038  -2.844  -2.416  0.00  0.00    -0.110 A 
ATOM     22  C   LIG    1       -5.965  -3.214  -3.198  0.00  0.00    -0.050 A 
ATOM     23  N   LIG    1       -6.407  -4.170  -4.083  0.00  0.00    -0.420 N 
ATOM     24  C   LIG    1       -7.724  -4.398  -3.853  0.00  0.00    +0.180 A 
ATOM     25  C   LIG    1       -5.591  -4.834  -5.103  0.00  0.00    +0.320 C 
ATOM     26  C   LIG    1       -8.136  -3.598  -2.841  0.00  0.00    -0.060 A 
ENDBRANCH  16  22
ENDBRANCH  15  17
ENDBRANCH   1  15
TORSDOF 4
