REMARK  Name = ZINCrH000004spvy.0
REMARK                            x       y       z     vdW  Elec       q    Type
REMARK                         _______ _______ _______ _____ _____    ______ ____
ROOT
ATOM      1  C   LIG    1       -6.570  -3.483   1.673  0.00  0.00    +0.620 C 
ATOM      2  N   LIG    1       -5.400  -2.864   1.419  0.00  0.00    -0.710 N 
ATOM      3  H   LIG    1       -4.835  -2.574   2.153  0.00  0.00    +0.410 HD
ATOM      4  O   LIG    1       -7.278  -3.846   0.754  0.00  0.00    -0.510 OA
ENDROOT
BRANCH   1   8
ATOM      5  C   LIG    1       -6.642  -3.573   6.657  0.00  0.00    +0.210 C 
ATOM      6  C   LIG    1       -7.014  -3.754   5.207  0.00  0.00    +0.230 A 
ATOM      7  N   LIG    1       -6.305  -3.376   4.174  0.00  0.00    -0.480 NA
ATOM      8  C   LIG    1       -6.993  -3.720   3.070  0.00  0.00    +0.150 A 
ATOM      9  N   LIG    1       -8.105  -4.310   3.452  0.00  0.00    -0.250 NA
ATOM     10  N   LIG    1       -8.136  -4.340   4.740  0.00  0.00    -0.250 N 
BRANCH  10  11
ATOM     11  C   LIG    1       -9.161  -4.888   5.523  0.00  0.00    +0.120 A 
ATOM     12  C   LIG    1       -8.857  -5.526   6.719  0.00  0.00    +0.050 A 
ATOM     13  C   LIG    1       -9.870  -6.061   7.491  0.00  0.00    +0.060 A 
ATOM     14  C   LIG    1      -11.184  -5.971   7.068  0.00  0.00    -0.020 A 
ATOM     15  C   LIG    1      -11.489  -5.341   5.875  0.00  0.00    +0.060 A 
ATOM     16 CL   LIG    1      -12.454  -6.651   8.038  0.00  0.00    -0.050 Cl
ATOM     17  C   LIG    1      -10.481  -4.800   5.101  0.00  0.00    +0.070 A 
ENDBRANCH  10  11
ENDBRANCH   1   8
BRANCH   2  18
ATOM     18  C   LIG    1       -4.981  -2.629   0.035  0.00  0.00    +0.330 C 
BRANCH  18  19
ATOM     19  C   LIG    1       -3.648  -1.927   0.026  0.00  0.00    -0.140 A 
ATOM     20  C   LIG    1       -2.479  -2.665   0.011  0.00  0.00    +0.080 A 
ATOM     21  C   LIG    1       -1.255  -2.024   0.003  0.00  0.00    +0.000 A 
ATOM     22  C   LIG    1       -1.200  -0.637   0.010  0.00  0.00    +0.120 A 
ATOM     23  C   LIG    1       -2.374   0.101   0.031  0.00  0.00    -0.050 A 
ATOM     24  C   LIG    1       -3.595  -0.545   0.034  0.00  0.00    +0.070 A 
BRANCH  22  25
ATOM     25  O   LIG    1        0.002  -0.004   0.002  0.00  0.00    -0.320 OA
BRANCH  25  26
ATOM     26  C   LIG    1       -0.017   1.425   0.010  0.00  0.00    +0.590 C 
ATOM     27  F   LIG    1       -0.672   1.876   1.161  0.00  0.00    -0.200 F 
ATOM     28  F   LIG    1       -0.694   1.888  -1.123  0.00  0.00    -0.200 F 
ENDBRANCH  25  26
ENDBRANCH  22  25
ENDBRANCH  18  19
ENDBRANCH   2  18
TORSDOF 6
