REMARK  Name = ZINCpk00000xJx3C.0
REMARK                            x       y       z     vdW  Elec       q    Type
REMARK                         _______ _______ _______ _____ _____    ______ ____
ROOT
ATOM      1  C   LIG    1       -4.128  -4.553  -1.415  0.00  0.00    +0.130 C 
ATOM      2  C   LIG    1       -4.136  -6.051  -1.023  0.00  0.00    +0.040 C 
ATOM      3  C   LIG    1       -3.155  -6.066   0.179  0.00  0.00    +0.010 C 
ATOM      4  C   LIG    1       -2.101  -5.012  -0.220  0.00  0.00    +0.190 C 
ATOM      5  N   LIG    1       -2.731  -4.116  -1.206  0.00  0.00    -0.500 NA
ENDROOT
BRANCH   1  12
ATOM      6  C   LIG    1       -5.158  -0.575  -3.167  0.00  0.00    +0.100 C 
ATOM      7  C   LIG    1       -5.280  -2.001  -2.697  0.00  0.00    +0.520 C 
ATOM      8  N   LIG    1       -4.508  -2.960  -3.246  0.00  0.00    -0.610 N 
ATOM      9  C   LIG    1       -3.509  -2.754  -4.310  0.00  0.00    +0.240 C 
ATOM     10  C   LIG    1       -3.372  -4.135  -4.998  0.00  0.00    +0.020 C 
ATOM     11  C   LIG    1       -3.500  -5.100  -3.789  0.00  0.00    +0.050 C 
ATOM     12  C   LIG    1       -4.524  -4.385  -2.884  0.00  0.00    +0.230 C 
ATOM     13  O   LIG    1       -6.073  -2.287  -1.824  0.00  0.00    -0.550 OA
ENDBRANCH   1  12
BRANCH   5  14
ATOM     14  C   LIG    1       -2.679  -2.718  -0.757  0.00  0.00    +0.200 C 
BRANCH  14  15
ATOM     15  C   LIG    1       -1.283  -2.182  -0.945  0.00  0.00    +0.510 C 
ATOM     16  N   LIG    1       -0.997  -0.911  -0.599  0.00  0.00    -0.650 N 
ATOM     17  H   LIG    1       -1.669  -0.364  -0.163  0.00  0.00    +0.400 HD
ATOM     18  O   LIG    1       -0.417  -2.894  -1.408  0.00  0.00    -0.500 OA
BRANCH  16  19
ATOM     19  C   LIG    1        0.277  -0.377  -0.871  0.00  0.00    -0.010 A 
ATOM     20  C   LIG    1        0.535   0.834  -1.427  0.00  0.00    +0.070 A 
ATOM     21  N   LIG    1        1.883   0.965  -1.516  0.00  0.00    -0.370 N 
ATOM     22  N   LIG    1        2.465  -0.200  -1.000  0.00  0.00    -0.290 NA
ATOM     23  C   LIG    1        2.603   2.121  -2.058  0.00  0.00    +0.360 C 
ATOM     24  C   LIG    1       -0.490   1.846  -1.870  0.00  0.00    +0.140 C 
ATOM     25  C   LIG    1        1.506  -1.002  -0.614  0.00  0.00    +0.100 A 
ATOM     26  C   LIG    1        1.691  -2.366   0.001  0.00  0.00    +0.160 C 
ENDBRANCH  16  19
ENDBRANCH  14  15
ENDBRANCH   5  14
TORSDOF 4
