REMARK  Name = ZINCpe00000MJMCb.0
REMARK                            x       y       z     vdW  Elec       q    Type
REMARK                         _______ _______ _______ _____ _____    ______ ____
ROOT
ATOM      1  C   LIG    1        3.374   7.850  -2.566  0.00  0.00    +0.600 C 
ATOM      2  N   LIG    1        3.129   7.095  -1.477  0.00  0.00    -0.600 N 
ATOM      3  C   LIG    1        3.696   7.314  -0.134  0.00  0.00    +0.290 C 
ATOM      4  C   LIG    1        3.641   5.925   0.555  0.00  0.00    +0.040 C 
ATOM      5  C   LIG    1        2.302   5.362   0.008  0.00  0.00    +0.250 C 
ATOM      6  C   LIG    1        2.253   5.915  -1.432  0.00  0.00    +0.260 C 
ATOM      7  O   LIG    1        2.849   7.575  -3.627  0.00  0.00    -0.530 OA
ENDROOT
BRANCH   1  11
ATOM      8  C   LIG    1        5.947  11.118  -2.202  0.00  0.00    +0.280 A 
ATOM      9  C   LIG    1        5.393  10.880  -3.458  0.00  0.00    +0.030 A 
ATOM     10  C   LIG    1        4.537   9.801  -3.598  0.00  0.00    +0.140 A 
ATOM     11  C   LIG    1        4.281   9.015  -2.469  0.00  0.00    -0.010 A 
ATOM     12  N   LIG    1        4.851   9.321  -1.310  0.00  0.00    -0.170 NA
ATOM     13  N   LIG    1        5.648  10.319  -1.185  0.00  0.00    -0.300 NA
BRANCH   8  15
ATOM     14  C   LIG    1        7.321  12.346  -0.705  0.00  0.00    +0.280 C 
ATOM     15  O   LIG    1        6.790  12.163  -2.019  0.00  0.00    -0.290 OA
ENDBRANCH   8  15
ENDBRANCH   1  11
BRANCH   5  16
ATOM     16  N   LIG    1        2.320   3.897   0.000  0.00  0.00    -0.690 N 
ATOM     17  H   LIG    1        3.166   3.423  -0.010  0.00  0.00    +0.420 HD
BRANCH  16  18
ATOM     18  C   LIG    1        1.124   3.187   0.008  0.00  0.00    +0.420 A 
ATOM     19  N   LIG    1       -0.016   3.836   0.022  0.00  0.00    -0.350 NA
ATOM     20  N   LIG    1       -1.230   3.142   0.030  0.00  0.00    -0.250 N 
ATOM     21  C   LIG    1       -2.530   3.549   0.044  0.00  0.00    +0.170 A 
ATOM     22  C   LIG    1       -3.300   2.434   0.030  0.00  0.00    +0.200 A 
ATOM     23  N   LIG    1       -2.501   1.367   0.021  0.00  0.00    -0.460 NA
ATOM     24  C   LIG    1       -1.238   1.772   0.018  0.00  0.00    +0.140 A 
ATOM     25  C   LIG    1       -0.013   1.076   0.008  0.00  0.00    +0.180 A 
ATOM     26  C   LIG    1        1.151   1.779   0.001  0.00  0.00    -0.050 A 
ENDBRANCH  16  18
ENDBRANCH   5  16
TORSDOF 4
