REMARK  Name = ZINCrD000006GuyY.0
REMARK                            x       y       z     vdW  Elec       q    Type
REMARK                         _______ _______ _______ _____ _____    ______ ____
ROOT
ATOM      1  C   LIG    1        0.521  -6.764   1.035  0.00  0.00    +0.090 C 
ATOM      2  C   LIG    1        1.369  -6.083  -0.040  0.00  0.00    +0.260 C 
ENDROOT
BRANCH   2   3
ATOM      3  N   LIG    1        1.105  -4.638  -0.031  0.00  0.00    -0.520 NA
ATOM      4  C   LIG    1        1.652  -4.010   1.179  0.00  0.00    +0.210 C 
ATOM      5  C   LIG    1        1.234  -2.539   1.226  0.00  0.00    +0.050 C 
ATOM      6  C   LIG    1        1.755  -1.825  -0.024  0.00  0.00    +0.270 C 
ATOM      7  C   LIG    1        1.210  -2.527  -1.270  0.00  0.00    +0.050 C 
ATOM      8  C   LIG    1        1.628  -3.999  -1.244  0.00  0.00    +0.170 C 
BRANCH   6   9
ATOM      9  N   LIG    1        1.308  -0.430  -0.013  0.00  0.00    -0.550 N 
ATOM     10  C   LIG    1        0.002  -0.004   0.002  0.00  0.00    +0.490 A 
ATOM     11  N   LIG    1       -0.015   1.290   0.009  0.00  0.00    -0.280 NA
ATOM     12  N   LIG    1        1.310   1.744  -0.001  0.00  0.00    -0.550 N 
ATOM     13  H   LIG    1        1.601   2.670   0.001  0.00  0.00    +0.460 HD
ATOM     14  C   LIG    1        2.108   0.656  -0.015  0.00  0.00    +0.650 A 
ATOM     15  O   LIG    1        3.326   0.654  -0.026  0.00  0.00    -0.560 OA
ENDBRANCH   6   9
ENDBRANCH   2   3
BRANCH   2  16
ATOM     16  C   LIG    1        1.017  -6.649  -1.391  0.00  0.00    +0.170 A 
ATOM     17  N   LIG    1       -0.060  -6.390  -2.078  0.00  0.00    -0.250 NA
ATOM     18  N   LIG    1       -0.033  -7.045  -3.185  0.00  0.00    -0.250 NA
ATOM     19  C   LIG    1        1.071  -7.751  -3.243  0.00  0.00    +0.200 A 
ATOM     20  O   LIG    1        1.760  -7.509  -2.110  0.00  0.00    -0.220 OA
BRANCH  19  21
ATOM     21  C   LIG    1        1.486  -8.641  -4.348  0.00  0.00    -0.020 A 
ATOM     22  C   LIG    1        2.697  -9.330  -4.276  0.00  0.00    +0.090 A 
ATOM     23  C   LIG    1        3.076 -10.164  -5.307  0.00  0.00    +0.040 A 
ATOM     24  C   LIG    1        2.263 -10.309  -6.419  0.00  0.00    -0.000 A 
ATOM     25  C   LIG    1        1.062  -9.625  -6.500  0.00  0.00    +0.060 A 
ATOM     26 CL   LIG    1        2.751 -11.355  -7.716  0.00  0.00    -0.040 Cl
ATOM     27  C   LIG    1        0.669  -8.792  -5.471  0.00  0.00    +0.010 A 
ATOM     28 CL   LIG    1       -0.837  -7.934  -5.574  0.00  0.00    -0.010 Cl
ENDBRANCH  19  21
ENDBRANCH   2  16
TORSDOF 4
