REMARK  Name = ZINCrD00000mBj1A.0
REMARK                            x       y       z     vdW  Elec       q    Type
REMARK                         _______ _______ _______ _____ _____    ______ ____
ROOT
ATOM      1  C   LIG    1        5.159   7.987  -1.963  0.00  0.00    +0.570 C 
ATOM      2  N   LIG    1        4.420   7.406  -0.998  0.00  0.00    -0.610 N 
ATOM      3  C   LIG    1        5.066   6.719   0.129  0.00  0.00    +0.280 C 
ATOM      4  C   LIG    1        4.504   5.297   0.227  0.00  0.00    +0.050 C 
ATOM      5  C   LIG    1        2.978   5.361   0.322  0.00  0.00    +0.010 C 
ATOM      6  C   LIG    1        2.414   6.017  -0.941  0.00  0.00    +0.040 C 
ATOM      7  C   LIG    1        2.952   7.447  -1.052  0.00  0.00    +0.280 C 
ATOM      8  O   LIG    1        6.371   8.010  -1.870  0.00  0.00    -0.530 OA
ENDROOT
BRANCH   1  15
ATOM      9  C   LIG    1        5.913   7.153  -4.629  0.00  0.00    +0.090 C 
ATOM     10  C   LIG    1        4.852   8.204  -4.426  0.00  0.00    -0.030 A 
ATOM     11  C   LIG    1        4.226   8.773  -5.515  0.00  0.00    +0.010 A 
ATOM     12  C   LIG    1        3.256   9.742  -5.330  0.00  0.00    +0.040 A 
ATOM     13  C   LIG    1        2.902  10.142  -4.054  0.00  0.00    +0.000 A 
ATOM     14  C   LIG    1        3.517   9.575  -2.956  0.00  0.00    +0.040 A 
ATOM     15  C   LIG    1        4.496   8.598  -3.135  0.00  0.00    -0.130 A 
ENDBRANCH   1  15
BRANCH   5  16
ATOM     16  C   LIG    1        2.424   3.966   0.453  0.00  0.00    +0.530 C 
ATOM     17  N   LIG    1        1.093   3.776   0.553  0.00  0.00    -0.630 N 
ATOM     18  H   LIG    1        0.492   4.537   0.541  0.00  0.00    +0.440 HD
ATOM     19  O   LIG    1        3.175   3.014   0.468  0.00  0.00    -0.520 OA
BRANCH  17  20
ATOM     20  C   LIG    1        0.584   2.494   0.673  0.00  0.00    +0.500 A 
ATOM     21  N   LIG    1       -0.686   2.196   0.776  0.00  0.00    -0.510 NA
ATOM     22  C   LIG    1       -0.832   0.850   0.877  0.00  0.00    +0.070 A 
ATOM     23  C   LIG    1       -1.942   0.011   1.005  0.00  0.00    +0.060 A 
ATOM     24  C   LIG    1       -1.764  -1.352   1.085  0.00  0.00    +0.010 A 
ATOM     25  C   LIG    1       -0.491  -1.899   1.038  0.00  0.00    +0.030 A 
ATOM     26  C   LIG    1        0.616  -1.085   0.911  0.00  0.00    +0.010 A 
ATOM     27  C   LIG    1        0.456   0.290   0.830  0.00  0.00    +0.050 A 
ATOM     28  N   LIG    1        1.333   1.353   0.701  0.00  0.00    -0.590 N 
ATOM     29  H   LIG    1        2.299   1.297   0.642  0.00  0.00    +0.430 HD
ENDBRANCH  17  20
ENDBRANCH   5  16
TORSDOF 3
