REMARK  Name = ZINCrH000004srQc.0
REMARK                            x       y       z     vdW  Elec       q    Type
REMARK                         _______ _______ _______ _____ _____    ______ ____
ROOT
ATOM      1  C   LIG    1        5.200   7.230   3.669  0.00  0.00    +0.240 C 
ATOM      2  C   LIG    1        4.384   7.598   4.929  0.00  0.00    +0.030 C 
ATOM      3  C   LIG    1        5.225   8.732   5.568  0.00  0.00    +0.180 C 
ATOM      4  N   LIG    1        5.725   9.488   4.391  0.00  0.00    -0.470 N 
ATOM      5  C   LIG    1        6.063   8.471   3.372  0.00  0.00    +0.180 C 
ENDROOT
BRANCH   4   6
ATOM      6  C   LIG    1        6.848  10.253   4.727  0.00  0.00    +0.060 A 
ATOM      7  C   LIG    1        7.973   9.641   5.260  0.00  0.00    +0.010 A 
ATOM      8  C   LIG    1        9.081  10.400   5.590  0.00  0.00    +0.000 A 
ATOM      9  C   LIG    1        9.070  11.768   5.392  0.00  0.00    +0.050 A 
ATOM     10  C   LIG    1        7.952  12.385   4.861  0.00  0.00    -0.050 A 
ATOM     11  C   LIG    1        6.840  11.632   4.523  0.00  0.00    +0.130 A 
BRANCH  11  12
ATOM     12  O   LIG    1        5.742  12.237   3.996  0.00  0.00    -0.300 OA
BRANCH  12  13
ATOM     13  C   LIG    1        5.805  13.653   3.814  0.00  0.00    +0.590 C 
ATOM     14  F   LIG    1        6.858  13.965   2.947  0.00  0.00    -0.200 F 
ATOM     15  F   LIG    1        6.019  14.272   5.050  0.00  0.00    -0.200 F 
ENDBRANCH  12  13
ENDBRANCH  11  12
ENDBRANCH   4   6
BRANCH   1  17
ATOM     16  C   LIG    1        3.842   5.704   2.341  0.00  0.00    +0.510 C 
ATOM     17  N   LIG    1        4.303   6.954   2.544  0.00  0.00    -0.720 N 
ATOM     18  H   LIG    1        4.040   7.671   1.946  0.00  0.00    +0.400 HD
ATOM     19  O   LIG    1        4.171   4.808   3.088  0.00  0.00    -0.540 OA
BRANCH  16  20
ATOM     20  C   LIG    1        2.919   5.420   1.184  0.00  0.00    +0.050 C 
BRANCH  20  21
ATOM     21  C   LIG    1        2.547   3.936   1.180  0.00  0.00    +0.050 C 
BRANCH  21  22
ATOM     22  C   LIG    1        1.610   3.648   0.006  0.00  0.00    +0.120 C 
BRANCH  22  26
ATOM     23  C   LIG    1        2.585  -1.217  -0.028  0.00  0.00    +0.180 C 
ATOM     24  C   LIG    1        1.712   0.011  -0.014  0.00  0.00    +0.050 A 
ATOM     25  N   LIG    1        2.146   1.226  -0.012  0.00  0.00    -0.470 NA
ATOM     26  C   LIG    1        1.244   2.186   0.002  0.00  0.00    +0.070 A 
ATOM     27  C   LIG    1       -0.022   1.758   0.012  0.00  0.00    -0.080 A 
ATOM     28  S   LIG    1        0.002  -0.004   0.002  0.00  0.00    +0.110 S 
ENDBRANCH  22  26
ENDBRANCH  21  22
ENDBRANCH  20  21
ENDBRANCH  16  20
ENDBRANCH   1  17
TORSDOF 8
