REMARK  Name = ZINC9p0000006kTR.0
REMARK                            x       y       z     vdW  Elec       q    Type
REMARK                         _______ _______ _______ _____ _____    ______ ____
ROOT
ATOM      1  C   LIG    1       -0.753   1.593  -1.232  0.00  0.00    +0.110 C 
ENDROOT
BRANCH   1   2
ATOM      2  C   LIG    1       -0.047   1.107  -2.471  0.00  0.00    -0.110 A 
ATOM      3  C   LIG    1        1.049   1.697  -2.952  0.00  0.00    -0.160 A 
ATOM      4  S   LIG    1        1.585   0.856  -4.401  0.00  0.00    +0.210 S 
ATOM      5  C   LIG    1        0.251  -0.283  -4.269  0.00  0.00    -0.020 A 
ATOM      6 CL   LIG    1        1.827   3.083  -2.255  0.00  0.00    -0.000 Cl
ATOM      7  C   LIG    1       -0.484   0.010  -3.196  0.00  0.00    +0.020 A 
ENDBRANCH   1   2
BRANCH   1   8
ATOM      8  C   LIG    1       -0.013   1.086   0.008  0.00  0.00    +0.260 C 
BRANCH   8   9
ATOM      9  N   LIG    1       -0.700   1.560   1.217  0.00  0.00    -0.640 N 
ATOM     10  H   LIG    1       -0.212   1.225   2.034  0.00  0.00    +0.440 HD
ATOM     11  H   LIG    1       -1.647   1.210   1.224  0.00  0.00    +0.440 HD
ATOM     12  H   LIG    1       -0.714   2.568   1.222  0.00  0.00    +0.440 HD
ENDBRANCH   8   9
ENDBRANCH   1   8
TORSDOF 3
