REMARK  Name = ZINCrD00000F5LmE.0
REMARK                            x       y       z     vdW  Elec       q    Type
REMARK                         _______ _______ _______ _____ _____    ______ ____
ROOT
ATOM      1  C   LIG    1       -3.206   0.899   1.547  0.00  0.00    -0.680 A 
ATOM      2  C   LIG    1       -3.585   0.035   0.535  0.00  0.00    +0.150 A 
ATOM      3  C   LIG    1       -4.279  -1.125   0.830  0.00  0.00    +0.000 A 
ATOM      4  C   LIG    1       -4.607  -1.423   2.136  0.00  0.00    +0.100 A 
ATOM      5  C   LIG    1       -4.232  -0.552   3.163  0.00  0.00    +0.030 A 
ATOM      6  C   LIG    1       -3.527   0.615   2.858  0.00  0.00    +0.190 A 
ENDROOT
BRANCH   1   7
ATOM      7  S   LIG    1       -2.317   2.371   1.159  0.00  0.00    +2.690 S 
ATOM      8  O   LIG    1       -2.612   2.671  -0.198  0.00  0.00    -0.950 OA
ATOM      9  O   LIG    1       -2.557   3.278   2.226  0.00  0.00    -0.950 OA
BRANCH   7  10
ATOM     10  N   LIG    1       -0.704   1.998   1.216  0.00  0.00    -0.990 NA
BRANCH  10  12
ATOM     11  C   LIG    1        0.002  -0.004   0.002  0.00  0.00    +0.010 C 
ATOM     12  C   LIG    1       -0.019   1.526   0.010  0.00  0.00    +0.300 C 
ENDBRANCH  10  12
BRANCH  10  13
ATOM     13  C   LIG    1        0.036   2.141   2.471  0.00  0.00    +0.280 C 
ATOM     14  C   LIG    1        0.724   3.507   2.505  0.00  0.00    +0.010 C 
ENDBRANCH  10  13
ENDBRANCH   7  10
ENDBRANCH   1   7
BRANCH   5  15
ATOM     15  N   LIG    1       -4.555  -0.840   4.460  0.00  0.00    -0.220 NA
ATOM     16  N   LIG    1       -5.206  -1.918   4.739  0.00  0.00    -0.200 NA
BRANCH  16  17
ATOM     17  C   LIG    1       -5.527  -2.205   6.031  0.00  0.00    +0.010 A 
ATOM     18  C   LIG    1       -6.231  -3.372   6.328  0.00  0.00    +0.200 A 
ATOM     19  C   LIG    1       -6.557  -3.657   7.669  0.00  0.00    -0.090 A 
ATOM     20  C   LIG    1       -7.266  -4.820   8.011  0.00  0.00    +0.050 A 
ATOM     21  C   LIG    1       -7.566  -5.068   9.316  0.00  0.00    +0.010 A 
ATOM     22  C   LIG    1       -7.181  -4.182  10.319  0.00  0.00    +0.030 A 
ATOM     23  C   LIG    1       -6.492  -3.044  10.024  0.00  0.00    +0.020 A 
ATOM     24  C   LIG    1       -6.164  -2.756   8.689  0.00  0.00    -0.020 A 
ATOM     25  C   LIG    1       -5.453  -1.587   8.354  0.00  0.00    +0.020 A 
ATOM     26  C   LIG    1       -5.141  -1.325   7.061  0.00  0.00    +0.050 A 
BRANCH  18  27
ATOM     27  O   LIG    1       -6.598  -4.221   5.338  0.00  0.00    -0.480 OA
ATOM     28  H   LIG    1       -5.942  -4.904   5.142  0.00  0.00    +0.400 HD
ENDBRANCH  18  27
ENDBRANCH  16  17
ENDBRANCH   5  15
TORSDOF 7
