REMARK  Name = ZINCrD00000F5LmE.1
REMARK                            x       y       z     vdW  Elec       q    Type
REMARK                         _______ _______ _______ _____ _____    ______ ____
ROOT
ATOM      1  C   LIG    1       -3.206   0.899   1.547  0.00  0.00    -0.640 A 
ATOM      2  C   LIG    1       -3.585   0.035   0.536  0.00  0.00    +0.100 A 
ATOM      3  C   LIG    1       -4.278  -1.124   0.836  0.00  0.00    +0.030 A 
ATOM      4  C   LIG    1       -4.604  -1.416   2.145  0.00  0.00    +0.070 A 
ATOM      5  C   LIG    1       -4.229  -0.547   3.164  0.00  0.00    +0.150 A 
ATOM      6  C   LIG    1       -3.528   0.614   2.859  0.00  0.00    +0.080 A 
ENDROOT
BRANCH   1   7
ATOM      7  S   LIG    1       -2.317   2.371   1.159  0.00  0.00    +2.690 S 
ATOM      8  O   LIG    1       -2.612   2.671  -0.198  0.00  0.00    -0.950 OA
ATOM      9  O   LIG    1       -2.557   3.278   2.226  0.00  0.00    -0.950 OA
BRANCH   7  10
ATOM     10  N   LIG    1       -0.704   1.998   1.216  0.00  0.00    -0.990 NA
BRANCH  10  12
ATOM     11  C   LIG    1        0.002  -0.004   0.002  0.00  0.00    +0.010 C 
ATOM     12  C   LIG    1       -0.019   1.526   0.010  0.00  0.00    +0.300 C 
ENDBRANCH  10  12
BRANCH  10  13
ATOM     13  C   LIG    1        0.036   2.141   2.471  0.00  0.00    +0.280 C 
ATOM     14  C   LIG    1        0.724   3.507   2.505  0.00  0.00    +0.010 C 
ENDBRANCH  10  13
ENDBRANCH   7  10
ENDBRANCH   1   7
BRANCH   5  15
ATOM     15  N   LIG    1       -4.556  -0.839   4.487  0.00  0.00    -0.490 N 
ATOM     16  H   LIG    1       -4.293  -0.232   5.197  0.00  0.00    +0.390 HD
BRANCH  15  17
ATOM     17  N   LIG    1       -5.207  -1.916   4.768  0.00  0.00    -0.140 NA
ATOM     18  C   LIG    1       -5.516  -2.194   6.025  0.00  0.00    -0.030 C 
ATOM     19  C   LIG    1       -5.133  -1.303   7.131  0.00  0.00    -0.010 C 
ATOM     20  C   LIG    1       -5.844  -1.331   8.281  0.00  0.00    +0.060 C 
ATOM     21  C   LIG    1       -6.977  -2.237   8.450  0.00  0.00    -0.020 A 
ATOM     22  C   LIG    1       -7.859  -2.088   9.528  0.00  0.00    +0.030 A 
ATOM     23  C   LIG    1       -8.917  -2.955   9.670  0.00  0.00    +0.040 A 
ATOM     24  C   LIG    1       -9.127  -3.981   8.758  0.00  0.00    +0.010 A 
ATOM     25  C   LIG    1       -8.275  -4.149   7.687  0.00  0.00    +0.080 A 
ATOM     26  C   LIG    1       -7.197  -3.281   7.523  0.00  0.00    -0.150 A 
ATOM     27  C   LIG    1       -6.263  -3.421   6.391  0.00  0.00    +0.470 C 
ATOM     28  O   LIG    1       -6.114  -4.474   5.797  0.00  0.00    -0.430 OA
ENDBRANCH  15  17
ENDBRANCH   5  15
TORSDOF 6
