REMARK  Name = ZINCpe000000TU46.0
REMARK                            x       y       z     vdW  Elec       q    Type
REMARK                         _______ _______ _______ _____ _____    ______ ____
ROOT
ATOM      1  N   LIG    1        2.418  -0.806   0.079  0.00  0.00    -0.720 N 
ATOM      2  H   LIG    1        2.251  -1.235  -0.775  0.00  0.00    +0.400 HD
ATOM      3  C   LIG    1        3.462  -1.198   0.837  0.00  0.00    +0.710 C 
ATOM      4  N   LIG    1        4.272  -2.186   0.409  0.00  0.00    -0.750 N 
ATOM      5  H   LIG    1        4.105  -2.615  -0.445  0.00  0.00    +0.400 HD
ATOM      6  O   LIG    1        3.671  -0.660   1.907  0.00  0.00    -0.590 OA
ENDROOT
BRANCH   4   7
ATOM      7  C   LIG    1        5.406  -2.612   1.234  0.00  0.00    +0.300 C 
ATOM      8  C   LIG    1        6.490  -3.204   0.337  0.00  0.00    +0.050 C 
ATOM      9  C   LIG    1        5.901  -4.245  -0.607  0.00  0.00    +0.070 C 
ATOM     10  C   LIG    1        5.488  -5.490   0.182  0.00  0.00    -0.430 C 
ATOM     11  S   LIG    1        4.166  -5.042   1.345  0.00  0.00    +2.420 S 
ATOM     12  O   LIG    1        3.060  -4.544   0.606  0.00  0.00    -0.920 OA
ATOM     13  O   LIG    1        3.972  -6.120   2.250  0.00  0.00    -0.940 OA
ATOM     14  C   LIG    1        4.979  -6.562  -0.783  0.00  0.00    +0.090 C 
ATOM     15  C   LIG    1        4.934  -3.661   2.243  0.00  0.00    -0.340 C 
ENDBRANCH   4   7
BRANCH   1  18
ATOM     16  C   LIG    1        0.189   1.738  -0.169  0.00  0.00    +0.180 C 
ATOM     17  C   LIG    1        1.718   1.589  -0.222  0.00  0.00    +0.020 C 
ATOM     18  C   LIG    1        1.537   0.268   0.544  0.00  0.00    +0.280 C 
ATOM     19  C   LIG    1        0.122   0.206  -0.054  0.00  0.00    +0.250 C 
BRANCH  19  20
ATOM     20  N   LIG    1        0.061  -0.478  -1.349  0.00  0.00    -0.350 N 
ATOM     21  C   LIG    1        0.345   0.069  -2.549  0.00  0.00    +0.260 A 
ATOM     22  C   LIG    1        0.172  -0.888  -3.490  0.00  0.00    -0.140 A 
ATOM     23  C   LIG    1       -0.240  -2.058  -2.843  0.00  0.00    +0.230 A 
ATOM     24  N   LIG    1       -0.307  -1.812  -1.559  0.00  0.00    -0.290 NA
ENDBRANCH  19  20
BRANCH  16  25
ATOM     25  O   LIG    1       -0.379   2.247  -1.378  0.00  0.00    -0.370 OA
BRANCH  25  27
ATOM     26  C   LIG    1       -1.516   3.995  -2.599  0.00  0.00    +0.040 C 
ATOM     27  C   LIG    1       -0.941   3.554  -1.251  0.00  0.00    +0.150 C 
ENDBRANCH  25  27
ENDBRANCH  16  25
ENDBRANCH   1  18
TORSDOF 5
