REMARK  Name = ZINCrH00000No4uc.0
REMARK                            x       y       z     vdW  Elec       q    Type
REMARK                         _______ _______ _______ _____ _____    ______ ____
ROOT
ATOM      1  C   LIG    1       -1.249   1.767   0.018  0.00  0.00    +0.430 C 
ATOM      2  O   LIG    1       -1.265   2.985   0.024  0.00  0.00    -0.470 OA
ENDROOT
BRANCH   1  10
ATOM      3  O   LIG    1       -8.353   1.492   0.340  0.00  0.00    -0.510 OA
ATOM      4  C   LIG    1       -7.270   0.947   0.355  0.00  0.00    +0.490 C 
ATOM      5  C   LIG    1       -7.161  -0.509   0.729  0.00  0.00    +0.300 C 
ATOM      6  O   LIG    1       -6.068  -1.105   0.026  0.00  0.00    -0.300 OA
ATOM      7  C   LIG    1       -4.896  -0.418   0.023  0.00  0.00    +0.110 A 
ATOM      8  C   LIG    1       -3.684  -1.092   0.013  0.00  0.00    +0.030 A 
ATOM      9  C   LIG    1       -2.500  -0.386   0.006  0.00  0.00    +0.090 A 
ATOM     10  C   LIG    1       -2.518   1.011   0.019  0.00  0.00    -0.150 A 
ATOM     11  C   LIG    1       -3.739   1.693   0.029  0.00  0.00    +0.080 A 
ATOM     12  C   LIG    1       -4.920   0.979   0.030  0.00  0.00    +0.080 A 
ATOM     13  N   LIG    1       -6.156   1.643   0.038  0.00  0.00    -0.660 N 
ATOM     14  H   LIG    1       -6.210   2.586  -0.180  0.00  0.00    +0.420 HD
ENDBRANCH   1  10
BRANCH   1  15
ATOM     15  C   LIG    1       -0.013   1.076   0.008  0.00  0.00    -0.130 C 
ATOM     16  C   LIG    1        1.150   1.768   0.001  0.00  0.00    +0.190 C 
BRANCH  16  17
ATOM     17  C   LIG    1        2.431   1.051  -0.015  0.00  0.00    -0.230 A 
ATOM     18  C   LIG    1        3.692   1.622  -0.025  0.00  0.00    +0.280 A 
ATOM     19  N   LIG    1        4.587   0.616  -0.038  0.00  0.00    -0.310 N 
ATOM     20  N   LIG    1        3.890  -0.598  -0.037  0.00  0.00    -0.290 NA
ATOM     21  C   LIG    1        2.609  -0.353  -0.018  0.00  0.00    +0.290 A 
BRANCH  19  22
ATOM     22  C   LIG    1        5.981   0.760  -0.050  0.00  0.00    +0.150 A 
ATOM     23  C   LIG    1        6.549   2.026  -0.054  0.00  0.00    +0.010 A 
ATOM     24  C   LIG    1        7.923   2.166  -0.060  0.00  0.00    +0.070 A 
ATOM     25  C   LIG    1        8.733   1.044  -0.074  0.00  0.00    -0.040 A 
ATOM     26  C   LIG    1        8.170  -0.220  -0.075  0.00  0.00    +0.070 A 
ATOM     27 CL   LIG    1       10.460   1.222  -0.089  0.00  0.00    -0.060 Cl
ATOM     28  C   LIG    1        6.796  -0.364  -0.062  0.00  0.00    +0.050 A 
ENDBRANCH  19  22
ENDBRANCH  16  17
ENDBRANCH   1  15
TORSDOF 4
