REMARK  Name = ZINCrH00000tj16z.0
REMARK                            x       y       z     vdW  Elec       q    Type
REMARK                         _______ _______ _______ _____ _____    ______ ____
ROOT
ATOM      1  C   LIG    1       -4.599   4.601   5.904  0.00  0.00    +0.400 A 
ATOM      2  N   LIG    1       -3.304   4.833   5.966  0.00  0.00    -0.580 NA
ATOM      3  C   LIG    1       -2.435   4.094   5.259  0.00  0.00    +0.540 A 
ATOM      4  C   LIG    1       -2.913   3.051   4.437  0.00  0.00    -0.290 A 
ATOM      5  C   LIG    1       -4.253   2.823   4.378  0.00  0.00    +0.420 A 
ATOM      6  N   LIG    1       -4.758   1.818   3.583  0.00  0.00    -0.640 N 
ATOM      7  H   LIG    1       -5.659   1.491   3.731  0.00  0.00    +0.420 HD
ATOM      8  C   LIG    1       -3.993   1.281   2.584  0.00  0.00    +0.190 C 
ATOM      9  C   LIG    1       -2.660   1.446   2.570  0.00  0.00    -0.220 C 
ATOM     10  C   LIG    1       -4.656   0.493   1.483  0.00  0.00    +0.140 C 
ATOM     11  C   LIG    1       -1.947   2.208   3.650  0.00  0.00    +0.200 C 
ATOM     12  O   LIG    1       -1.236   4.323   5.327  0.00  0.00    -0.490 OA
ATOM     13  N   LIG    1       -5.099   3.605   5.120  0.00  0.00    -0.610 N 
ATOM     14  H   LIG    1       -6.056   3.449   5.087  0.00  0.00    +0.420 HD
ENDROOT
BRANCH  11  15
ATOM     15  C   LIG    1       -1.264   1.234   4.575  0.00  0.00    -0.070 A 
ATOM     16  C   LIG    1       -2.010   0.296   5.264  0.00  0.00    +0.030 A 
ATOM     17  C   LIG    1       -1.383  -0.601   6.109  0.00  0.00    +0.020 A 
ATOM     18  C   LIG    1       -0.010  -0.552   6.272  0.00  0.00    -0.030 A 
ATOM     19  C   LIG    1        0.735   0.390   5.586  0.00  0.00    +0.020 A 
ATOM     20 CL   LIG    1        0.777  -1.674   7.339  0.00  0.00    -0.070 Cl
ATOM     21  C   LIG    1        0.108   1.282   4.737  0.00  0.00    +0.050 A 
ENDBRANCH  11  15
BRANCH   9  22
ATOM     22  C   LIG    1       -1.907   0.883   1.514  0.00  0.00    +0.530 C 
ATOM     23  O   LIG    1       -1.454   1.599   0.641  0.00  0.00    -0.490 OA
BRANCH  22  24
ATOM     24  O   LIG    1       -1.693  -0.449   1.475  0.00  0.00    -0.350 OA
ATOM     25  C   LIG    1       -0.924  -0.950   0.379  0.00  0.00    +0.250 C 
ENDBRANCH  22  24
ENDBRANCH   9  22
BRANCH   1  26
ATOM     26  S   LIG    1       -5.703   5.595   6.850  0.00  0.00    +0.000 S 
BRANCH  26  27
ATOM     27  C   LIG    1       -4.518   6.701   7.657  0.00  0.00    +0.150 C 
BRANCH  27  29
ATOM     28  C   LIG    1       -5.082   7.632   9.842  0.00  0.00    +0.060 C 
ATOM     29  C   LIG    1       -5.257   7.668   8.544  0.00  0.00    -0.040 C 
ENDBRANCH  27  29
ENDBRANCH  26  27
ENDBRANCH   1  26
TORSDOF 6
