REMARK  Name = ZINCqH0000034w47.0
REMARK                            x       y       z     vdW  Elec       q    Type
REMARK                         _______ _______ _______ _____ _____    ______ ____
ROOT
ATOM      1  C   LIG    1       -2.429  -0.536   1.636  0.00  0.00    -0.690 A 
ATOM      2  C   LIG    1       -3.441  -0.630   0.698  0.00  0.00    +0.170 A 
ATOM      3  C   LIG    1       -4.720  -0.991   1.084  0.00  0.00    +0.010 A 
ATOM      4  C   LIG    1       -4.996  -1.250   2.412  0.00  0.00    +0.060 A 
ATOM      5  C   LIG    1       -3.978  -1.151   3.365  0.00  0.00    -0.140 A 
ATOM      6 CL   LIG    1       -6.602  -1.695   2.896  0.00  0.00    -0.030 Cl
ATOM      7  C   LIG    1       -2.690  -0.792   2.966  0.00  0.00    +0.190 A 
ENDROOT
BRANCH   5   8
ATOM      8  C   LIG    1       -4.265  -1.427   4.788  0.00  0.00    +0.580 C 
ATOM      9  N   LIG    1       -3.847  -0.568   5.738  0.00  0.00    -0.560 N 
ATOM     10  C   LIG    1       -4.025  -0.877   7.167  0.00  0.00    +0.300 C 
ATOM     11  C   LIG    1       -2.831  -1.614   7.713  0.00  0.00    +0.030 C 
ATOM     12  C   LIG    1       -1.539  -0.816   7.770  0.00  0.00    +0.100 C 
ATOM     13  S   LIG    1       -0.891  -0.547   6.095  0.00  0.00    -0.150 S 
ATOM     14  C   LIG    1       -1.865   0.834   5.542  0.00  0.00    -0.110 A 
ATOM     15  C   LIG    1       -1.274   2.049   5.266  0.00  0.00    +0.090 A 
ATOM     16  C   LIG    1       -2.059   3.092   4.800  0.00  0.00    +0.030 A 
ATOM     17  C   LIG    1       -3.415   2.901   4.610  0.00  0.00    +0.040 A 
ATOM     18  C   LIG    1       -4.007   1.686   4.902  0.00  0.00    +0.010 A 
ATOM     19  C   LIG    1       -3.228   0.637   5.393  0.00  0.00    +0.140 A 
ATOM     20  O   LIG    1       -4.878  -2.429   5.101  0.00  0.00    -0.500 OA
ENDBRANCH   5   8
BRANCH   1  21
ATOM     21  S   LIG    1       -0.803  -0.082   1.131  0.00  0.00    +2.690 S 
ATOM     22  O   LIG    1       -0.946   0.628  -0.092  0.00  0.00    -0.950 OA
ATOM     23  O   LIG    1       -0.165   0.465   2.277  0.00  0.00    -0.940 OA
BRANCH  21  25
ATOM     24  C   LIG    1       -0.032  -2.016  -0.595  0.00  0.00    +0.310 C 
ATOM     25  N   LIG    1        0.006  -1.481   0.768  0.00  0.00    -1.000 NA
ATOM     26  C   LIG    1        0.761  -2.182   1.810  0.00  0.00    +0.310 C 
ENDBRANCH  21  25
ENDBRANCH   1  21
TORSDOF 3
