REMARK  Name = ZINCnE000005u5BR.0
REMARK                            x       y       z     vdW  Elec       q    Type
REMARK                         _______ _______ _______ _____ _____    ______ ____
ROOT
ATOM      1  O   LIG    1        0.002  -0.004   0.002  0.00  0.00    -0.540 OA
ATOM      2  C   LIG    1       -0.014   1.209   0.009  0.00  0.00    +0.520 C 
ATOM      3  N   LIG    1       -1.191   1.867   0.018  0.00  0.00    -0.710 N 
ATOM      4  H   LIG    1       -1.204   2.837   0.023  0.00  0.00    +0.400 HD
ENDROOT
BRANCH   3   5
ATOM      5  C   LIG    1       -2.449   1.117   0.020  0.00  0.00    +0.330 C 
BRANCH   5   6
ATOM      6  C   LIG    1       -3.608   2.080   0.030  0.00  0.00    -0.250 A 
ATOM      7  C   LIG    1       -4.339   2.295  -1.121  0.00  0.00    +0.140 A 
ATOM      8  C   LIG    1       -5.406   3.175  -1.111  0.00  0.00    -0.180 A 
ATOM      9  C   LIG    1       -5.736   3.850   0.049  0.00  0.00    +0.120 A 
ATOM     10  C   LIG    1       -5.004   3.643   1.203  0.00  0.00    -0.130 A 
ATOM     11  C   LIG    1       -3.937   2.757   1.196  0.00  0.00    +0.310 A 
ATOM     12  O   LIG    1       -3.216   2.552   2.329  0.00  0.00    -0.670 OA
BRANCH   8  13
ATOM     13  N   LIG    1       -6.191   3.399  -2.345  0.00  0.00    +0.070 N 
ATOM     14  O   LIG    1       -5.901   2.805  -3.368  0.00  0.00    -0.220 OA
ATOM     15  O   LIG    1       -7.127   4.178  -2.338  0.00  0.00    -0.220 OA
ENDBRANCH   8  13
ENDBRANCH   5   6
ENDBRANCH   3   5
BRANCH   2  16
ATOM     16  C   LIG    1        1.280   1.980   0.001  0.00  0.00    +0.110 C 
BRANCH  16  17
ATOM     17  C   LIG    1        2.439   1.016  -0.016  0.00  0.00    -0.040 A 
ATOM     18  C   LIG    1        3.052   0.653   1.168  0.00  0.00    +0.060 A 
ATOM     19  C   LIG    1        4.111  -0.236   1.155  0.00  0.00    +0.040 A 
ATOM     20  C   LIG    1        4.565  -0.752  -0.045  0.00  0.00    -0.030 A 
ATOM     21  C   LIG    1        3.956  -0.384  -1.232  0.00  0.00    +0.040 A 
ATOM     22 CL   LIG    1        5.900  -1.863  -0.063  0.00  0.00    -0.060 Cl
ATOM     23  C   LIG    1        2.893   0.500  -1.217  0.00  0.00    -0.010 A 
ATOM     24 CL   LIG    1        2.127   0.963  -2.705  0.00  0.00    -0.050 Cl
ENDBRANCH  16  17
ENDBRANCH   2  16
TORSDOF 5
