REMARK  Name = ZINCrD000000Bgzd.0
REMARK                            x       y       z     vdW  Elec       q    Type
REMARK                         _______ _______ _______ _____ _____    ______ ____
ROOT
ATOM      1  C   LIG    1        7.245   1.029   0.251  0.00  0.00    +0.110 C 
ENDROOT
BRANCH   1   2
ATOM      2  C   LIG    1        8.567   1.752   0.231  0.00  0.00    -0.160 A 
ATOM      3  C   LIG    1        8.991   2.664   1.119  0.00  0.00    +0.240 A 
ATOM      4  N   LIG    1       10.242   3.101   0.778  0.00  0.00    -0.590 N 
ATOM      5  H   LIG    1       10.755   3.761   1.270  0.00  0.00    +0.420 HD
ATOM      6  C   LIG    1       10.664   2.464  -0.367  0.00  0.00    +0.100 A 
ATOM      7  C   LIG    1       11.827   2.532  -1.128  0.00  0.00    -0.010 A 
ATOM      8  C   LIG    1       11.956   1.746  -2.252  0.00  0.00    +0.030 A 
ATOM      9  C   LIG    1       10.936   0.886  -2.636  0.00  0.00    -0.020 A 
ATOM     10  C   LIG    1        9.785   0.804  -1.903  0.00  0.00    +0.050 A 
ATOM     11  C   LIG    1        9.636   1.587  -0.757  0.00  0.00    -0.100 A 
ENDBRANCH   1   2
BRANCH   1  12
ATOM     12  C   LIG    1        7.121   0.242   1.530  0.00  0.00    -0.070 A 
ATOM     13  C   LIG    1        7.169   0.893   2.749  0.00  0.00    +0.010 A 
ATOM     14  C   LIG    1        7.051   0.172   3.922  0.00  0.00    +0.000 A 
ATOM     15  C   LIG    1        6.894  -1.200   3.877  0.00  0.00    +0.000 A 
ATOM     16  C   LIG    1        6.851  -1.852   2.659  0.00  0.00    +0.000 A 
ATOM     17  C   LIG    1        6.964  -1.130   1.485  0.00  0.00    +0.000 A 
ENDBRANCH   1  12
BRANCH   1  18
ATOM     18  C   LIG    1        6.106   2.047   0.166  0.00  0.00    +0.280 C 
BRANCH  18  21
ATOM     19  O   LIG    1        3.706   3.251  -0.110  0.00  0.00    -0.460 OA
ATOM     20  C   LIG    1        3.676   2.039  -0.023  0.00  0.00    +0.550 C 
ATOM     21  N   LIG    1        4.826   1.341   0.064  0.00  0.00    -0.720 N 
ATOM     22  H   LIG    1        4.806   0.371   0.059  0.00  0.00    +0.400 HD
BRANCH  20  23
ATOM     23  C   LIG    1        2.378   1.330  -0.012  0.00  0.00    +0.050 C 
ATOM     24  C   LIG    1        2.351  -0.063  -0.025  0.00  0.00    +0.070 C 
ATOM     25  C   LIG    1        1.127  -0.713  -0.014  0.00  0.00    +0.070 C 
ATOM     26  C   LIG    1       -0.029   0.053   0.009  0.00  0.00    +0.070 C 
ATOM     27  C   LIG    1        0.071   1.433   0.020  0.00  0.00    +0.260 C 
ATOM     28  N   LIG    1        1.246   2.027   0.009  0.00  0.00    -0.090 NA
ATOM     29  O   LIG    1        1.306   3.442   0.021  0.00  0.00    -0.490 OA
ENDBRANCH  20  23
ENDBRANCH  18  21
ENDBRANCH   1  18
TORSDOF 5
