REMARK  Name = ZINCkj000018RBbs.1
REMARK                            x       y       z     vdW  Elec       q    Type
REMARK                         _______ _______ _______ _____ _____    ______ ____
ROOT
ATOM      1  C   LIG    1       -5.561   3.648  -1.924  0.00  0.00    +0.170 C 
ENDROOT
BRANCH   1   5
ATOM      2  N   LIG    1       -7.064   3.523   0.037  0.00  0.00    -0.820 N 
ATOM      3  H   LIG    1       -7.449   3.049   0.790  0.00  0.00    +0.430 HD
ATOM      4  H   LIG    1       -7.330   4.438  -0.148  0.00  0.00    +0.410 HD
ATOM      5  C   LIG    1       -6.160   2.912  -0.753  0.00  0.00    +0.510 C 
ATOM      6  O   LIG    1       -5.827   1.768  -0.522  0.00  0.00    -0.510 OA
ENDBRANCH   1   5
BRANCH   1   7
ATOM      7  N   LIG    1       -4.219   3.120  -2.201  0.00  0.00    -0.490 N 
ATOM      8  H   LIG    1       -4.272   2.121  -2.336  0.00  0.00    +0.440 HD
ATOM      9  H   LIG    1       -3.853   3.553  -3.036  0.00  0.00    +0.430 HD
BRANCH   7  10
ATOM     10  C   LIG    1       -3.333   3.415  -1.067  0.00  0.00    +0.160 C 
ATOM     11  C   LIG    1       -1.974   2.739  -1.284  0.00  0.00    +0.040 C 
ATOM     12  C   LIG    1       -1.106   2.991  -0.054  0.00  0.00    +0.060 C 
ATOM     13  C   LIG    1       -0.848   4.488   0.133  0.00  0.00    +0.000 C 
ATOM     14  C   LIG    1       -0.301   4.668   1.575  0.00  0.00    +0.010 C 
ATOM     15  C   LIG    1       -1.526   4.913   2.476  0.00  0.00    +0.010 C 
ATOM     16  C   LIG    1       -2.763   4.917   1.546  0.00  0.00    +0.010 C 
ATOM     17  C   LIG    1       -2.174   5.269   0.167  0.00  0.00    +0.010 C 
ATOM     18  C   LIG    1       -3.107   4.923  -0.969  0.00  0.00    +0.040 C 
ENDBRANCH   7  10
ENDBRANCH   1   7
BRANCH   1  19
ATOM     19  C   LIG    1       -6.449   3.456  -3.155  0.00  0.00    +0.190 C 
BRANCH  19  20
ATOM     20  C   LIG    1       -5.919   4.291  -4.292  0.00  0.00    -0.080 A 
ATOM     21  C   LIG    1       -4.950   3.943  -5.160  0.00  0.00    +0.160 A 
ATOM     22  N   LIG    1       -4.774   4.960  -6.016  0.00  0.00    -0.480 NA
ATOM     23  C   LIG    1       -5.598   5.926  -5.712  0.00  0.00    +0.440 A 
ATOM     24  N   LIG    1       -6.334   5.547  -4.645  0.00  0.00    -0.560 N 
ATOM     25  H   LIG    1       -7.027   6.068  -4.210  0.00  0.00    +0.430 HD
ENDBRANCH  19  20
ENDBRANCH   1  19
TORSDOF 5
