REMARK  Name = ZINCkj000018RBbs.0
REMARK                            x       y       z     vdW  Elec       q    Type
REMARK                         _______ _______ _______ _____ _____    ______ ____
ROOT
ATOM      1  C   LIG    1        1.658  -0.485  -2.315  0.00  0.00    +0.180 C 
ENDROOT
BRANCH   1   5
ATOM      2  N   LIG    1        3.039   1.529  -1.917  0.00  0.00    -0.820 N 
ATOM      3  H   LIG    1        3.895   1.979  -1.852  0.00  0.00    +0.420 HD
ATOM      4  H   LIG    1        2.218   2.024  -1.769  0.00  0.00    +0.410 HD
ATOM      5  C   LIG    1        2.989   0.215  -2.213  0.00  0.00    +0.510 C 
ATOM      6  O   LIG    1        4.015  -0.404  -2.398  0.00  0.00    -0.520 OA
ENDBRANCH   1   5
BRANCH   1   7
ATOM      7  N   LIG    1        1.774  -1.628  -3.230  0.00  0.00    -0.490 N 
ATOM      8  H   LIG    1        0.909  -2.147  -3.231  0.00  0.00    +0.430 HD
ATOM      9  H   LIG    1        2.526  -2.228  -2.924  0.00  0.00    +0.430 HD
BRANCH   7  10
ATOM     10  C   LIG    1        2.056  -1.143  -4.587  0.00  0.00    +0.160 C 
ATOM     11  C   LIG    1        2.330  -2.332  -5.515  0.00  0.00    +0.050 C 
ATOM     12  C   LIG    1        2.701  -1.795  -6.895  0.00  0.00    +0.050 C 
ATOM     13  C   LIG    1        1.543  -0.997  -7.500  0.00  0.00    +0.000 C 
ATOM     14  C   LIG    1        2.132  -0.193  -8.690  0.00  0.00    +0.010 C 
ATOM     15  C   LIG    1        2.577   1.165  -8.116  0.00  0.00    +0.010 C 
ATOM     16  C   LIG    1        2.205   1.153  -6.615  0.00  0.00    +0.010 C 
ATOM     17  C   LIG    1        1.078   0.107  -6.534  0.00  0.00    +0.010 C 
ATOM     18  C   LIG    1        0.844  -0.384  -5.125  0.00  0.00    +0.050 C 
ENDBRANCH   7  10
ENDBRANCH   1   7
BRANCH   1  19
ATOM     19  C   LIG    1        1.236  -0.980  -0.930  0.00  0.00    +0.200 C 
BRANCH  19  20
ATOM     20  C   LIG    1       -0.149  -1.571  -1.009  0.00  0.00    -0.060 A 
ATOM     21  C   LIG    1       -0.504  -2.809  -0.618  0.00  0.00    +0.160 A 
ATOM     22  N   LIG    1       -1.845  -2.933  -0.864  0.00  0.00    -0.560 N 
ATOM     23  H   LIG    1       -2.393  -3.715  -0.691  0.00  0.00    +0.430 HD
ATOM     24  C   LIG    1       -2.263  -1.764  -1.396  0.00  0.00    +0.430 A 
ATOM     25  N   LIG    1       -1.243  -0.954  -1.480  0.00  0.00    -0.490 NA
ENDBRANCH  19  20
ENDBRANCH   1  19
TORSDOF 5
