REMARK  Name = ZINCvU0000000CJB.0
REMARK                            x       y       z     vdW  Elec       q    Type
REMARK                         _______ _______ _______ _____ _____    ______ ____
ROOT
ATOM      1  O   LIG    1       -0.785   1.287  -0.075  0.00  0.00    -0.330 OA
ENDROOT
BRANCH   1   2
ATOM      2  C   LIG    1        0.363   0.593  -0.084  0.00  0.00    +0.460 C 
ATOM      3  O   LIG    1        0.339  -0.615  -0.085  0.00  0.00    -0.490 OA
BRANCH   2   4
ATOM      4  C   LIG    1        1.683   1.320  -0.098  0.00  0.00    +0.120 C 
BRANCH   4   5
ATOM      5  C   LIG    1        2.826   0.303  -0.113  0.00  0.00    +0.110 C 
BRANCH   5   6
ATOM      6  C   LIG    1        2.817  -0.481   1.174  0.00  0.00    -0.070 A 
ATOM      7  C   LIG    1        2.868   0.180   2.387  0.00  0.00    +0.000 A 
ATOM      8  C   LIG    1        2.855  -0.539   3.567  0.00  0.00    +0.000 A 
ATOM      9  C   LIG    1        2.801  -1.920   3.534  0.00  0.00    +0.000 A 
ATOM     10  C   LIG    1        2.755  -2.582   2.322  0.00  0.00    +0.000 A 
ATOM     11  C   LIG    1        2.763  -1.862   1.141  0.00  0.00    +0.030 A 
ENDBRANCH   5   6
BRANCH   5  12
ATOM     12  C   LIG    1        4.141   1.026  -0.251  0.00  0.00    -0.070 A 
ATOM     13  C   LIG    1        5.231   0.380  -0.804  0.00  0.00    +0.010 A 
ATOM     14  C   LIG    1        6.435   1.045  -0.935  0.00  0.00    +0.000 A 
ATOM     15  C   LIG    1        6.553   2.353  -0.504  0.00  0.00    +0.000 A 
ATOM     16  C   LIG    1        5.465   2.998   0.053  0.00  0.00    +0.000 A 
ATOM     17  C   LIG    1        4.258   2.334   0.179  0.00  0.00    +0.000 A 
ENDBRANCH   5  12
ENDBRANCH   4   5
ENDBRANCH   2   4
ENDBRANCH   1   2
BRANCH   1  18
ATOM     18  C   LIG    1       -2.019   0.521  -0.068  0.00  0.00    +0.270 C 
BRANCH  18  20
ATOM     19  O   LIG    1       -3.012   2.662  -0.058  0.00  0.00    -0.480 OA
ATOM     20  C   LIG    1       -3.195   1.462  -0.059  0.00  0.00    +0.520 C 
ATOM     21  N   LIG    1       -4.451   0.972  -0.051  0.00  0.00    -0.670 N 
ATOM     22  H   LIG    1       -4.598   0.017   0.034  0.00  0.00    +0.410 HD
BRANCH  21  23
ATOM     23  C   LIG    1       -5.542   1.841  -0.164  0.00  0.00    +0.200 A 
ATOM     24  C   LIG    1       -5.386   3.076  -0.780  0.00  0.00    +0.030 A 
ATOM     25  C   LIG    1       -6.467   3.929  -0.897  0.00  0.00    +0.080 A 
ATOM     26  C   LIG    1       -7.699   3.559  -0.390  0.00  0.00    +0.000 A 
ATOM     27  C   LIG    1       -7.855   2.332   0.230  0.00  0.00    +0.090 A 
ATOM     28  C   LIG    1       -6.781   1.473   0.344  0.00  0.00    -0.220 A 
BRANCH  28  29
ATOM     29  C   LIG    1       -6.952   0.136   1.019  0.00  0.00    +0.510 C 
ATOM     30  F   LIG    1       -6.098   0.059   2.124  0.00  0.00    -0.170 F 
ATOM     31  F   LIG    1       -6.640  -0.886   0.116  0.00  0.00    -0.180 F 
ATOM     32  F   LIG    1       -8.277  -0.005   1.443  0.00  0.00    -0.170 F 
ENDBRANCH  28  29
ENDBRANCH  21  23
ENDBRANCH  18  20
ENDBRANCH   1  18
TORSDOF 9
