REMARK  Name = ZINCrH000004oTol.1
REMARK                            x       y       z     vdW  Elec       q    Type
REMARK                         _______ _______ _______ _____ _____    ______ ____
ROOT
ATOM      1  C   LIG    1        4.383   6.132  -2.179  0.00  0.00    +0.560 C 
ATOM      2  N   LIG    1        3.709   5.625  -1.128  0.00  0.00    -0.730 N 
ATOM      3  H   LIG    1        3.983   5.845  -0.224  0.00  0.00    +0.400 HD
ATOM      4  O   LIG    1        4.038   5.856  -3.312  0.00  0.00    -0.530 OA
ENDROOT
BRANCH   1  11
ATOM      5  C   LIG    1       10.800   8.026  -2.534  0.00  0.00    +0.090 C 
ATOM      6  C   LIG    1       10.123   9.386  -2.716  0.00  0.00    +0.060 C 
ATOM      7  S   LIG    1        9.091   9.751  -1.265  0.00  0.00    -0.070 S 
ATOM      8  C   LIG    1        7.706   8.690  -1.530  0.00  0.00    -0.110 A 
ATOM      9  C   LIG    1        7.012   8.168  -0.446  0.00  0.00    +0.090 A 
ATOM     10  C   LIG    1        5.929   7.342  -0.652  0.00  0.00    +0.040 A 
ATOM     11  C   LIG    1        5.538   7.021  -1.955  0.00  0.00    -0.100 A 
ATOM     12  C   LIG    1        6.236   7.546  -3.045  0.00  0.00    +0.070 A 
ATOM     13  C   LIG    1        7.320   8.383  -2.839  0.00  0.00    +0.160 A 
ATOM     14  N   LIG    1        7.999   8.903  -3.939  0.00  0.00    -0.650 N 
ATOM     15  H   LIG    1        7.516   8.938  -4.780  0.00  0.00    +0.420 HD
ATOM     16  C   LIG    1        9.251   9.356  -3.941  0.00  0.00    +0.530 C 
ATOM     17  O   LIG    1        9.712   9.765  -4.985  0.00  0.00    -0.510 OA
ENDBRANCH   1  11
BRANCH   2  18
ATOM     18  C   LIG    1        2.562   4.742  -1.350  0.00  0.00    +0.300 C 
BRANCH  18  19
ATOM     19  C   LIG    1        1.886   4.436  -0.012  0.00  0.00    +0.210 C 
BRANCH  19  20
ATOM     20  N   LIG    1        1.354   5.679   0.563  0.00  0.00    -0.510 NA
ATOM     21  C   LIG    1        0.455   5.393   1.710  0.00  0.00    +0.170 C 
ATOM     22  C   LIG    1        0.429   6.736   2.483  0.00  0.00    +0.030 C 
ATOM     23  C   LIG    1        1.882   7.244   2.343  0.00  0.00    +0.020 C 
ATOM     24  C   LIG    1        2.443   6.521   1.104  0.00  0.00    +0.160 C 
ENDBRANCH  19  20
BRANCH  19  25
ATOM     25  C   LIG    1        0.758   3.461  -0.230  0.00  0.00    -0.190 A 
ATOM     26  C   LIG    1        0.786   2.167   0.095  0.00  0.00    +0.020 A 
ATOM     27  C   LIG    1       -0.370   1.466  -0.200  0.00  0.00    +0.000 A 
ATOM     28  C   LIG    1       -1.336   2.189  -0.769  0.00  0.00    -0.060 A 
ATOM     29  S   LIG    1       -0.798   3.854  -0.950  0.00  0.00    +0.150 S 
ENDBRANCH  19  25
ENDBRANCH  18  19
ENDBRANCH   2  18
TORSDOF 5
