REMARK  Name = ZINCb70000002hrA.0
REMARK                            x       y       z     vdW  Elec       q    Type
REMARK                         _______ _______ _______ _____ _____    ______ ____
ROOT
ATOM      1  C   LIG    1       -2.023   2.430   3.411  0.00  0.00    +0.530 A 
ATOM      2  N   LIG    1       -0.835   2.929   3.135  0.00  0.00    -0.510 NA
ATOM      3  C   LIG    1       -0.160   2.532   2.065  0.00  0.00    +0.350 A 
ATOM      4  C   LIG    1       -0.734   1.580   1.242  0.00  0.00    -0.220 A 
ATOM      5  C   LIG    1       -0.013   1.086   0.008  0.00  0.00    +0.140 C 
ATOM      6  C   LIG    1       -0.768   1.600  -1.224  0.00  0.00    +0.270 C 
ATOM      7  N   LIG    1       -1.861   0.712  -1.572  0.00  0.00    -0.500 N 
ATOM      8  C   LIG    1       -2.990   0.711  -0.659  0.00  0.00    +0.270 C 
ATOM      9  C   LIG    1       -2.623   0.041   0.670  0.00  0.00    +0.160 C 
ATOM     10  H   LIG    1       -1.498  -0.229  -1.625  0.00  0.00    +0.430 HD
ATOM     11  H   LIG    1       -2.196   0.968  -2.488  0.00  0.00    +0.430 HD
ATOM     12  C   LIG    1       -1.978   1.083   1.559  0.00  0.00    +0.160 A 
ATOM     13  N   LIG    1       -2.598   1.522   2.641  0.00  0.00    -0.500 NA
ENDROOT
TORSDOF 0
