REMARK  Name = ZINCqH0000006dtc.0
REMARK                            x       y       z     vdW  Elec       q    Type
REMARK                         _______ _______ _______ _____ _____    ______ ____
ROOT
ATOM      1  N   LIG    1       -0.515  -2.565   1.245  0.00  0.00    -0.620 N 
ATOM      2  C   LIG    1        0.829  -2.668   1.299  0.00  0.00    +0.580 C 
ATOM      3  C   LIG    1        1.472  -3.025   2.577  0.00  0.00    -0.200 A 
ATOM      4  C   LIG    1        2.808  -3.410   2.640  0.00  0.00    +0.110 A 
ATOM      5  C   LIG    1        3.367  -3.730   3.861  0.00  0.00    -0.040 A 
ATOM      6  C   LIG    1        2.608  -3.670   5.019  0.00  0.00    +0.080 A 
ATOM      7  C   LIG    1        1.279  -3.292   4.970  0.00  0.00    -0.050 A 
ATOM      8  C   LIG    1        0.704  -2.970   3.754  0.00  0.00    +0.240 A 
ATOM      9  N   LIG    1       -0.629  -2.588   3.647  0.00  0.00    -0.740 N 
ATOM     10  H   LIG    1       -1.074  -2.132   4.379  0.00  0.00    +0.420 HD
ATOM     11  O   LIG    1        1.501  -2.464   0.307  0.00  0.00    -0.510 OA
ATOM     12  C   LIG    1       -1.347  -2.890   2.404  0.00  0.00    +0.540 C 
ENDROOT
BRANCH  12  13
ATOM     13  C   LIG    1       -1.696  -4.356   2.372  0.00  0.00    -0.130 A 
ATOM     14  C   LIG    1       -1.711  -5.037   1.171  0.00  0.00    +0.070 A 
ATOM     15  C   LIG    1       -2.025  -6.384   1.142  0.00  0.00    +0.000 A 
ATOM     16  C   LIG    1       -2.336  -7.049   2.313  0.00  0.00    +0.070 A 
ATOM     17  C   LIG    1       -2.328  -6.370   3.517  0.00  0.00    -0.050 A 
ATOM     18  C   LIG    1       -2.008  -5.021   3.549  0.00  0.00    +0.130 A 
BRANCH  18  19
ATOM     19  O   LIG    1       -1.999  -4.352   4.732  0.00  0.00    -0.300 OA
BRANCH  19  20
ATOM     20  C   LIG    1       -2.329  -5.100   5.904  0.00  0.00    +0.600 C 
ATOM     21  F   LIG    1       -3.622  -5.620   5.775  0.00  0.00    -0.170 F 
ATOM     22  F   LIG    1       -2.272  -4.263   7.023  0.00  0.00    -0.130 F 
ATOM     23  F   LIG    1       -1.418  -6.150   6.059  0.00  0.00    -0.160 F 
ENDBRANCH  19  20
ENDBRANCH  18  19
ENDBRANCH  12  13
BRANCH   1  24
ATOM     24  C   LIG    1       -1.154  -2.126   0.002  0.00  0.00    +0.310 C 
BRANCH  24  25
ATOM     25  C   LIG    1       -1.295  -0.603   0.011  0.00  0.00    +0.150 C 
BRANCH  25  27
ATOM     26  C   LIG    1       -0.017   1.425   0.010  0.00  0.00    +0.200 C 
ATOM     27  O   LIG    1        0.002  -0.004   0.002  0.00  0.00    -0.370 OA
ENDBRANCH  25  27
ENDBRANCH  24  25
ENDBRANCH   1  24
TORSDOF 6
