REMARK  Name = ZINCah0000003Zxg.0
REMARK                            x       y       z     vdW  Elec       q    Type
REMARK                         _______ _______ _______ _____ _____    ______ ____
ROOT
ATOM      1  C   LIG    1        1.223  -1.966  -0.020  0.00  0.00    +0.440 A 
ATOM      2  C   LIG    1        0.062  -2.730  -0.013  0.00  0.00    -0.150 A 
ATOM      3  C   LIG    1       -1.167  -2.092   0.002  0.00  0.00    +0.140 A 
ATOM      4  C   LIG    1       -1.195  -0.707   0.015  0.00  0.00    -0.110 A 
ATOM      5  C   LIG    1        0.002  -0.004   0.002  0.00  0.00    +0.370 A 
ATOM      6  N   LIG    1        1.161  -0.643  -0.013  0.00  0.00    -0.600 NA
ENDROOT
BRANCH   1   8
ATOM      7  C   LIG    1        2.539  -4.060  -0.043  0.00  0.00    +0.300 C 
ATOM      8  N   LIG    1        2.462  -2.597  -0.035  0.00  0.00    -0.730 N 
ATOM      9  H   LIG    1        3.275  -2.068  -0.040  0.00  0.00    +0.410 HD
ENDBRANCH   1   8
BRANCH   5  10
ATOM     10  O   LIG    1       -0.016   1.353   0.009  0.00  0.00    -0.310 OA
ATOM     11  C   LIG    1        1.248   2.018   0.001  0.00  0.00    +0.260 C 
ENDBRANCH   5  10
TORSDOF 2
