REMARK  Name = ZINCtV00001bB36e.0
REMARK                            x       y       z     vdW  Elec       q    Type
REMARK                         _______ _______ _______ _____ _____    ______ ____
ROOT
ATOM      1  C   LIG    1        8.633  -0.091  -0.079  0.00  0.00    +0.150 C 
ATOM      2  C   LIG    1        7.151   0.184  -0.064  0.00  0.00    -0.180 A 
ATOM      3  C   LIG    1        6.209  -0.759  -0.061  0.00  0.00    +0.000 A 
ATOM      4  C   LIG    1        4.846  -0.246  -0.045  0.00  0.00    -0.210 A 
ATOM      5  C   LIG    1        4.806   1.136  -0.038  0.00  0.00    +0.060 A 
ATOM      6  N   LIG    1        3.580   1.769  -0.028  0.00  0.00    -0.590 N 
ATOM      7  H   LIG    1        3.542   2.738  -0.026  0.00  0.00    +0.420 HD
ATOM      8  C   LIG    1        2.423   1.051  -0.015  0.00  0.00    +0.480 A 
ATOM      9  N   LIG    1        2.417  -0.268  -0.022  0.00  0.00    -0.580 NA
ATOM     10  C   LIG    1        3.557  -0.968  -0.037  0.00  0.00    +0.540 A 
ATOM     11  O   LIG    1        3.532  -2.189  -0.044  0.00  0.00    -0.470 OA
ATOM     12  S   LIG    1        6.439   1.786  -0.049  0.00  0.00    +0.180 S 
ENDROOT
BRANCH   3  13
ATOM     13  C   LIG    1        6.521  -2.208  -0.071  0.00  0.00    -0.030 A 
ATOM     14  C   LIG    1        6.187  -3.004   1.024  0.00  0.00    +0.040 A 
ATOM     15  C   LIG    1        6.477  -4.353   1.007  0.00  0.00    +0.000 A 
ATOM     16  C   LIG    1        7.107  -4.914  -0.089  0.00  0.00    +0.010 A 
ATOM     17  C   LIG    1        7.446  -4.128  -1.176  0.00  0.00    +0.000 A 
ATOM     18  C   LIG    1        7.157  -2.779  -1.172  0.00  0.00    +0.020 A 
ENDBRANCH   3  13
BRANCH   8  19
ATOM     19  C   LIG    1        1.146   1.766   0.001  0.00  0.00    -0.020 C 
ATOM     20  C   LIG    1       -0.013   1.076   0.008  0.00  0.00    +0.170 C 
BRANCH  20  21
ATOM     21  C   LIG    1       -1.297   1.794   0.018  0.00  0.00    -0.080 A 
ATOM     22  C   LIG    1       -1.320   3.192   0.032  0.00  0.00    +0.070 A 
ATOM     23  C   LIG    1       -2.528   3.858   0.035  0.00  0.00    +0.020 A 
ATOM     24  C   LIG    1       -3.715   3.147   0.038  0.00  0.00    +0.090 A 
ATOM     25  C   LIG    1       -3.700   1.763   0.030  0.00  0.00    -0.180 A 
ATOM     26  C   LIG    1       -2.501   1.082   0.020  0.00  0.00    +0.110 A 
BRANCH  25  27
ATOM     27  C   LIG    1       -4.998   0.997   0.032  0.00  0.00    +0.510 C 
ATOM     28  F   LIG    1       -4.823  -0.220  -0.635  0.00  0.00    -0.170 F 
ATOM     29  F   LIG    1       -5.984   1.748  -0.618  0.00  0.00    -0.180 F 
ATOM     30  F   LIG    1       -5.393   0.753   1.352  0.00  0.00    -0.170 F 
ENDBRANCH  25  27
ENDBRANCH  20  21
ENDBRANCH   8  19
TORSDOF 4
