REMARK  Name = ZINCrD00000744XF.0
REMARK                            x       y       z     vdW  Elec       q    Type
REMARK                         _______ _______ _______ _____ _____    ______ ____
ROOT
ATOM      1  C   LIG    1       -0.792  -0.427   2.293  0.00  0.00    +0.070 C 
ATOM      2  C   LIG    1       -0.118   0.938   2.447  0.00  0.00    +0.180 C 
ENDROOT
BRANCH   2   3
ATOM      3  N   LIG    1       -0.365   1.744   1.244  0.00  0.00    -0.510 NA
ATOM      4  C   LIG    1        0.086   3.129   1.436  0.00  0.00    +0.190 C 
ATOM      5  C   LIG    1       -0.114   3.914   0.138  0.00  0.00    +0.200 C 
ATOM      6  N   LIG    1       -1.534   3.873  -0.242  0.00  0.00    -0.490 N 
ATOM      7  C   LIG    1       -1.985   2.488  -0.435  0.00  0.00    +0.200 C 
ATOM      8  C   LIG    1       -1.784   1.703   0.864  0.00  0.00    +0.200 C 
BRANCH   6   9
ATOM      9  C   LIG    1       -1.768   4.641  -1.385  0.00  0.00    +0.110 A 
ATOM     10  C   LIG    1       -0.720   5.316  -1.997  0.00  0.00    -0.040 A 
ATOM     11  C   LIG    1       -0.954   6.070  -3.130  0.00  0.00    +0.030 A 
ATOM     12  C   LIG    1       -2.232   6.161  -3.650  0.00  0.00    -0.030 A 
ATOM     13  C   LIG    1       -3.279   5.494  -3.040  0.00  0.00    +0.030 A 
ATOM     14  C   LIG    1       -3.051   4.734  -1.910  0.00  0.00    -0.020 A 
ENDBRANCH   6   9
ENDBRANCH   2   3
BRANCH   2  15
ATOM     15  C   LIG    1       -0.686   1.645   3.650  0.00  0.00    +0.480 C 
ATOM     16  N   LIG    1       -0.122   1.471   4.862  0.00  0.00    -0.660 N 
ATOM     17  H   LIG    1        0.696   0.957   4.947  0.00  0.00    +0.410 HD
ATOM     18  O   LIG    1       -1.650   2.370   3.529  0.00  0.00    -0.500 OA
BRANCH  16  19
ATOM     19  C   LIG    1       -0.714   2.031   5.994  0.00  0.00    +0.160 A 
ATOM     20  C   LIG    1       -2.045   2.392   5.977  0.00  0.00    +0.020 A 
ATOM     21  C   LIG    1       -2.644   2.946   7.104  0.00  0.00    +0.060 A 
ATOM     22  C   LIG    1       -1.935   3.157   8.247  0.00  0.00    +0.020 A 
ATOM     23  C   LIG    1       -0.575   2.809   8.306  0.00  0.00    +0.140 A 
ATOM     24  N   LIG    1        0.139   3.008   9.419  0.00  0.00    -0.470 NA
ATOM     25  C   LIG    1        1.409   2.687   9.480  0.00  0.00    +0.290 A 
ATOM     26  C   LIG    1        2.076   2.123   8.396  0.00  0.00    -0.030 A 
ATOM     27  C   LIG    1        1.404   1.893   7.228  0.00  0.00    +0.070 A 
ATOM     28  C   LIG    1        0.043   2.239   7.165  0.00  0.00    -0.120 A 
ENDBRANCH  16  19
ENDBRANCH   2  15
TORSDOF 4
