REMARK  Name = ZINCrg00000SjSoj.0
REMARK                            x       y       z     vdW  Elec       q    Type
REMARK                         _______ _______ _______ _____ _____    ______ ____
ROOT
ATOM      1  C   LIG    1        0.095   1.798  -2.354  0.00  0.00    +0.030 C 
ATOM      2  C   LIG    1       -0.752   1.985  -1.094  0.00  0.00    +0.160 C 
ENDROOT
BRANCH   2   3
ATOM      3  C   LIG    1       -1.020   3.453  -0.882  0.00  0.00    +0.530 C 
ATOM      4  N   LIG    1       -2.036   4.054  -1.532  0.00  0.00    -0.620 N 
ATOM      5  C   LIG    1       -2.821   3.320  -2.534  0.00  0.00    +0.280 C 
ATOM      6  C   LIG    1       -4.308   3.430  -2.164  0.00  0.00    +0.030 C 
ATOM      7  C   LIG    1       -4.686   4.907  -2.028  0.00  0.00    -0.010 C 
ATOM      8  C   LIG    1       -3.864   5.545  -0.907  0.00  0.00    +0.060 C 
ATOM      9  C   LIG    1       -2.375   5.457  -1.258  0.00  0.00    +0.280 C 
ATOM     10  O   LIG    1       -0.320   4.094  -0.126  0.00  0.00    -0.520 OA
BRANCH   7  11
ATOM     11  C   LIG    1       -6.153   5.022  -1.703  0.00  0.00    +0.520 C 
ATOM     12  O   LIG    1       -6.506   5.561  -0.675  0.00  0.00    -0.540 OA
ATOM     13  N   LIG    1       -7.073   4.526  -2.554  0.00  0.00    -0.860 N 
ATOM     14  H   LIG    1       -8.018   4.600  -2.344  0.00  0.00    +0.400 HD
ATOM     15  H   LIG    1       -6.791   4.095  -3.376  0.00  0.00    +0.400 HD
ENDBRANCH   7  11
ENDBRANCH   2   3
BRANCH   2  16
ATOM     16  N   LIG    1       -0.030   1.446   0.067  0.00  0.00    -0.520 NA
ATOM     17  C   LIG    1        1.350   1.949   0.108  0.00  0.00    +0.200 C 
ATOM     18  C   LIG    1        2.042   1.430   1.370  0.00  0.00    +0.180 C 
ATOM     19  N   LIG    1        2.019  -0.040   1.369  0.00  0.00    -0.530 NA
ATOM     20  C   LIG    1        0.639  -0.542   1.327  0.00  0.00    +0.180 C 
ATOM     21  C   LIG    1       -0.053  -0.023   0.065  0.00  0.00    +0.190 C 
BRANCH  19  22
ATOM     22  C   LIG    1        2.741  -0.579   2.529  0.00  0.00    +0.230 C 
BRANCH  22  23
ATOM     23  C   LIG    1        4.206  -0.246   2.408  0.00  0.00    -0.110 A 
ATOM     24  C   LIG    1        5.097  -1.201   1.957  0.00  0.00    +0.060 A 
ATOM     25  C   LIG    1        6.440  -0.893   1.840  0.00  0.00    +0.000 A 
ATOM     26  C   LIG    1        6.895   0.365   2.186  0.00  0.00    +0.040 A 
ATOM     27  C   LIG    1        6.006   1.320   2.643  0.00  0.00    -0.010 A 
ATOM     28  C   LIG    1        4.661   1.016   2.755  0.00  0.00    +0.100 A 
ATOM     29  F   LIG    1        3.791   1.948   3.202  0.00  0.00    -0.140 F 
ENDBRANCH  22  23
ENDBRANCH  19  22
ENDBRANCH   2  16
TORSDOF 5
