REMARK  Name = ZINCnE00000rhnpz.0
REMARK                            x       y       z     vdW  Elec       q    Type
REMARK                         _______ _______ _______ _____ _____    ______ ____
ROOT
ATOM      1  C   LIG    1       -1.659   3.083   1.179  0.00  0.00    +0.280 A 
ATOM      2  N   LIG    1       -2.519   4.048   1.124  0.00  0.00    -0.390 NA
ATOM      3  C   LIG    1       -2.070   5.202   0.616  0.00  0.00    +0.170 A 
ATOM      4  C   LIG    1       -0.757   5.178   0.230  0.00  0.00    -0.120 A 
ATOM      5  S   LIG    1       -0.110   3.628   0.547  0.00  0.00    +0.110 S 
ENDROOT
BRANCH   1   8
ATOM      6  C   LIG    1       -3.424   0.138   2.696  0.00  0.00    +0.110 C 
ATOM      7  C   LIG    1       -3.166   1.477   2.054  0.00  0.00    +0.500 C 
ATOM      8  N   LIG    1       -1.918   1.809   1.668  0.00  0.00    -0.490 N 
ATOM      9  O   LIG    1       -4.081   2.254   1.884  0.00  0.00    -0.450 OA
BRANCH   8  10
ATOM     10  C   LIG    1       -0.882   0.871   1.761  0.00  0.00    +0.130 A 
ATOM     11  C   LIG    1       -0.427   0.459   3.007  0.00  0.00    +0.040 A 
ATOM     12  C   LIG    1        0.599  -0.462   3.096  0.00  0.00    +0.040 A 
ATOM     13  C   LIG    1        1.172  -0.975   1.945  0.00  0.00    -0.030 A 
ATOM     14  C   LIG    1        0.719  -0.566   0.703  0.00  0.00    +0.050 A 
ATOM     15 CL   LIG    1        2.461  -2.132   2.061  0.00  0.00    -0.070 Cl
ATOM     16  C   LIG    1       -0.306   0.355   0.608  0.00  0.00    +0.050 A 
ENDBRANCH   8  10
ENDBRANCH   1   8
BRANCH   3  17
ATOM     17  C   LIG    1       -2.885   6.351   0.488  0.00  0.00    +0.100 C 
ATOM     18  C   LIG    1       -4.007   6.317  -0.326  0.00  0.00    -0.070 C 
BRANCH  18  19
ATOM     19  C   LIG    1       -4.267   5.147  -1.166  0.00  0.00    +0.530 C 
ATOM     20  O   LIG    1       -5.250   5.124  -1.896  0.00  0.00    -0.680 OA
ATOM     21  O   LIG    1       -3.501   4.192  -1.141  0.00  0.00    -0.650 OA
ENDBRANCH  18  19
BRANCH  18  22
ATOM     22  C   LIG    1       -4.912   7.427  -0.343  0.00  0.00    +0.280 C 
ATOM     23  N   LIG    1       -5.629   8.308  -0.357  0.00  0.00    -0.450 NA
ENDBRANCH  18  22
ENDBRANCH   3  17
TORSDOF 5
