REMARK  Name = ZINCrH00000No509.0
REMARK                            x       y       z     vdW  Elec       q    Type
REMARK                         _______ _______ _______ _____ _____    ______ ____
ROOT
ATOM      1  C   LIG    1        2.029   6.062  -2.005  0.00  0.00    +0.550 C 
ATOM      2  N   LIG    1        0.847   6.051  -1.358  0.00  0.00    -0.610 N 
ATOM      3  C   LIG    1       -0.363   6.526  -2.035  0.00  0.00    +0.290 C 
ATOM      4  O   LIG    1        3.034   5.667  -1.442  0.00  0.00    -0.540 OA
ENDROOT
BRANCH   1   6
ATOM      5  C   LIG    1        3.289   6.558  -4.030  0.00  0.00    +0.120 C 
ATOM      6  C   LIG    1        2.105   6.547  -3.382  0.00  0.00    -0.070 C 
BRANCH   5   9
ATOM      7  C   LIG    1        4.659   7.518  -7.388  0.00  0.00    +0.130 A 
ATOM      8  C   LIG    1        4.593   7.063  -6.086  0.00  0.00    -0.020 A 
ATOM      9  C   LIG    1        3.365   7.046  -5.414  0.00  0.00    -0.030 A 
ATOM     10  C   LIG    1        2.212   7.500  -6.063  0.00  0.00    +0.020 A 
ATOM     11  C   LIG    1        2.286   7.957  -7.361  0.00  0.00    -0.020 A 
ATOM     12 CL   LIG    1        0.854   8.520  -8.165  0.00  0.00    -0.040 Cl
ATOM     13  C   LIG    1        3.505   7.969  -8.028  0.00  0.00    +0.080 A 
BRANCH   7  15
ATOM     14  C   LIG    1        6.990   7.056  -7.328  0.00  0.00    +0.250 C 
ATOM     15  O   LIG    1        5.849   7.532  -8.044  0.00  0.00    -0.300 OA
ENDBRANCH   7  15
BRANCH  13  16
ATOM     16  O   LIG    1        3.572   8.421  -9.307  0.00  0.00    -0.320 OA
ATOM     17  C   LIG    1        3.828   9.815  -9.491  0.00  0.00    +0.230 C 
ENDBRANCH  13  16
ENDBRANCH   5   9
ENDBRANCH   1   6
BRANCH   2  18
ATOM     18  C   LIG    1        0.771   5.565   0.022  0.00  0.00    +0.350 C 
BRANCH  18  19
ATOM     19  C   LIG    1        0.496   4.083   0.018  0.00  0.00    -0.100 A 
ATOM     20  C   LIG    1       -0.808   3.624   0.028  0.00  0.00    +0.040 A 
ATOM     21  C   LIG    1       -1.065   2.265   0.019  0.00  0.00    +0.040 A 
ATOM     22  C   LIG    1       -0.016   1.361   0.009  0.00  0.00    +0.040 A 
ATOM     23  O   LIG    1        0.002  -0.004   0.002  0.00  0.00    -0.310 OA
ATOM     24  C   LIG    1        1.336  -0.373   0.399  0.00  0.00    +0.430 C 
ATOM     25  O   LIG    1        2.139   0.749  -0.014  0.00  0.00    -0.310 OA
ATOM     26  C   LIG    1        1.297   1.824  -0.001  0.00  0.00    +0.030 A 
ATOM     27  C   LIG    1        1.548   3.186   0.004  0.00  0.00    +0.060 A 
ENDBRANCH  18  19
ENDBRANCH   2  18
TORSDOF 6
