REMARK  Name = ZINCqH00000015pD.0
REMARK                            x       y       z     vdW  Elec       q    Type
REMARK                         _______ _______ _______ _____ _____    ______ ____
ROOT
ATOM      1  C   LIG    1       -1.471   7.286  -0.345  0.00  0.00    +0.230 A 
ATOM      2  C   LIG    1       -2.677   7.940  -0.140  0.00  0.00    -0.060 A 
ATOM      3  C   LIG    1       -3.860   7.224  -0.140  0.00  0.00    +0.070 A 
ATOM      4  C   LIG    1       -3.845   5.858  -0.352  0.00  0.00    -0.030 A 
ATOM      5  C   LIG    1       -2.647   5.200  -0.564  0.00  0.00    +0.070 A 
ATOM      6  C   LIG    1       -1.458   5.910  -0.564  0.00  0.00    +0.010 A 
ENDROOT
BRANCH   1   7
ATOM      7  N   LIG    1       -0.272   8.007  -0.339  0.00  0.00    -0.730 N 
ATOM      8  H   LIG    1        0.570   7.549  -0.487  0.00  0.00    +0.400 HD
BRANCH   7   9
ATOM      9  C   LIG    1       -0.289   9.454  -0.109  0.00  0.00    +0.390 C 
BRANCH   9  14
ATOM     10  N   LIG    1        1.921  10.187   0.909  0.00  0.00    -0.350 N 
ATOM     11  N   LIG    1        3.132  10.684   0.402  0.00  0.00    -0.310 NA
ATOM     12  C   LIG    1        2.996  10.760  -0.896  0.00  0.00    +0.410 A 
ATOM     13  N   LIG    1        1.777  10.337  -1.228  0.00  0.00    -0.520 NA
ATOM     14  C   LIG    1        1.121   9.986  -0.152  0.00  0.00    +0.250 A 
BRANCH  10  16
ATOM     15  C   LIG    1        1.141   8.484   2.481  0.00  0.00    +0.060 C 
ATOM     16  C   LIG    1        1.595   9.935   2.315  0.00  0.00    +0.170 C 
ATOM     17  C   LIG    1        0.470  10.875   2.754  0.00  0.00    +0.070 C 
ATOM     18  C   LIG    1        2.833  10.184   3.178  0.00  0.00    +0.080 C 
ENDBRANCH  10  16
ENDBRANCH   9  14
ENDBRANCH   7   9
ENDBRANCH   1   7
BRANCH   6  19
ATOM     19  O   LIG    1       -0.279   5.264  -0.771  0.00  0.00    -0.230 OA
BRANCH  19  20
ATOM     20  C   LIG    1        0.224   5.247  -2.029  0.00  0.00    +0.350 A 
ATOM     21  N   LIG    1       -0.476   5.765  -3.023  0.00  0.00    -0.520 NA
ATOM     22  C   LIG    1       -0.022   5.774  -4.262  0.00  0.00    +0.340 A 
ATOM     23  C   LIG    1        1.210   5.230  -4.578  0.00  0.00    -0.060 A 
ATOM     24  C   LIG    1        1.986   4.674  -3.575  0.00  0.00    +0.160 A 
ATOM     25  C   LIG    1        1.486   4.680  -2.268  0.00  0.00    -0.100 A 
BRANCH  25  26
ATOM     26  C   LIG    1        2.248   4.118  -1.193  0.00  0.00    +0.260 C 
ATOM     27  N   LIG    1        2.853   3.672  -0.341  0.00  0.00    -0.400 NA
ENDBRANCH  25  26
ENDBRANCH  19  20
ENDBRANCH   6  19
TORSDOF 7
