REMARK  Name = ZINCqH0000002ebX.0
REMARK                            x       y       z     vdW  Elec       q    Type
REMARK                         _______ _______ _______ _____ _____    ______ ____
ROOT
ATOM      1  N   LIG    1        0.326   4.440  -0.034  0.00  0.00    -0.520 N 
ATOM      2  C   LIG    1       -0.910   3.880   0.016  0.00  0.00    +0.600 A 
ATOM      3  N   LIG    1       -1.078   2.591   0.046  0.00  0.00    -0.500 NA
ATOM      4  C   LIG    1       -0.033   1.738   0.021  0.00  0.00    +0.070 A 
ATOM      5  C   LIG    1        1.266   2.241  -0.029  0.00  0.00    -0.220 A 
ATOM      6  C   LIG    1        2.240   1.232  -0.045  0.00  0.00    -0.020 A 
ATOM      7  C   LIG    1        1.773  -0.018  -0.009  0.00  0.00    -0.170 A 
ATOM      8  C   LIG    1        3.714   1.539  -0.097  0.00  0.00    +0.120 C 
ATOM      9  S   LIG    1        0.018  -0.020   0.048  0.00  0.00    +0.230 S 
ATOM     10  C   LIG    1        1.426   3.664  -0.057  0.00  0.00    +0.570 A 
ATOM     11  O   LIG    1        2.537   4.163  -0.102  0.00  0.00    -0.510 OA
ENDROOT
BRANCH   7  12
ATOM     12  C   LIG    1        2.616  -1.232  -0.017  0.00  0.00    -0.020 A 
ATOM     13  C   LIG    1        2.390  -2.248   0.913  0.00  0.00    +0.010 A 
ATOM     14  C   LIG    1        3.177  -3.381   0.897  0.00  0.00    +0.010 A 
ATOM     15  C   LIG    1        4.196  -3.506  -0.031  0.00  0.00    +0.020 A 
ATOM     16  C   LIG    1        4.430  -2.500  -0.951  0.00  0.00    +0.010 A 
ATOM     17  C   LIG    1        3.646  -1.364  -0.950  0.00  0.00    +0.030 A 
ENDBRANCH   7  12
BRANCH   1  18
ATOM     18  C   LIG    1        0.463   5.898  -0.062  0.00  0.00    +0.330 C 
BRANCH  18  21
ATOM     19  N   LIG    1        0.579   7.690  -1.763  0.00  0.00    -0.720 N 
ATOM     20  H   LIG    1        0.663   8.330  -1.038  0.00  0.00    +0.400 HD
ATOM     21  C   LIG    1        0.463   6.375  -1.491  0.00  0.00    +0.500 C 
ATOM     22  O   LIG    1        0.359   5.576  -2.397  0.00  0.00    -0.520 OA
BRANCH  19  23
ATOM     23  C   LIG    1        0.580   8.154  -3.152  0.00  0.00    +0.230 C 
BRANCH  23  25
ATOM     24  C   LIG    1       -1.563   6.972  -3.658  0.00  0.00    +0.020 C 
ATOM     25  C   LIG    1       -0.863   8.332  -3.631  0.00  0.00    -0.010 C 
ENDBRANCH  23  25
BRANCH  23  26
ATOM     26  C   LIG    1        1.316   9.492  -3.243  0.00  0.00    +0.020 C 
ATOM     27  C   LIG    1        2.789   9.289  -2.884  0.00  0.00    +0.020 C 
ENDBRANCH  23  26
ENDBRANCH  19  23
ENDBRANCH  18  21
ENDBRANCH   1  18
TORSDOF 6
