REMARK  Name = ZINCpe000000X6Xr.0
REMARK                            x       y       z     vdW  Elec       q    Type
REMARK                         _______ _______ _______ _____ _____    ______ ____
ROOT
ATOM      1  C   LIG    1       -1.289   2.124   0.020  0.00  0.00    +0.320 C 
ENDROOT
BRANCH   1  11
ATOM      2  C   LIG    1        2.841   1.062  -1.513  0.00  0.00    +0.060 C 
ATOM      3  C   LIG    1        2.454   1.304  -0.053  0.00  0.00    +0.230 C 
ATOM      4  O   LIG    1        2.300   0.048   0.613  0.00  0.00    -0.300 OA
ATOM      5  C   LIG    1        1.187  -0.671   0.312  0.00  0.00    +0.080 A 
ATOM      6  C   LIG    1        1.219  -2.055   0.309  0.00  0.00    +0.030 A 
ATOM      7  C   LIG    1        0.076  -2.770  -0.001  0.00  0.00    +0.030 A 
ATOM      8  C   LIG    1       -1.098  -2.109  -0.309  0.00  0.00    +0.020 A 
ATOM      9  C   LIG    1       -1.138  -0.726  -0.308  0.00  0.00    +0.000 A 
ATOM     10  C   LIG    1        0.002  -0.004   0.002  0.00  0.00    +0.090 A 
ATOM     11  N   LIG    1       -0.017   1.398   0.010  0.00  0.00    -0.550 N 
ATOM     12  C   LIG    1        1.156   2.068   0.002  0.00  0.00    +0.490 C 
ATOM     13  O   LIG    1        1.164   3.281   0.039  0.00  0.00    -0.500 OA
ENDBRANCH   1  11
BRANCH   1  14
ATOM     14  C   LIG    1       -1.725   2.369   1.466  0.00  0.00    +0.040 C 
BRANCH  14  15
ATOM     15  C   LIG    1       -3.034   3.117   1.476  0.00  0.00    +0.530 C 
ATOM     16  N   LIG    1       -3.613   3.445   2.648  0.00  0.00    -0.610 N 
ATOM     17  C   LIG    1       -2.971   3.075   3.911  0.00  0.00    +0.290 C 
ATOM     18  O   LIG    1       -3.565   3.423   0.430  0.00  0.00    -0.530 OA
BRANCH  16  19
ATOM     19  C   LIG    1       -4.885   4.171   2.658  0.00  0.00    +0.280 C 
ATOM     20  C   LIG    1       -4.707   5.517   3.383  0.00  0.00    +0.060 C 
ATOM     21  C   LIG    1       -6.131   6.070   3.648  0.00  0.00    -0.310 C 
ATOM     22  S   LIG    1       -7.043   4.578   4.198  0.00  0.00    +2.400 S 
ATOM     23  O   LIG    1       -8.319   4.549   3.574  0.00  0.00    -0.930 OA
ATOM     24  O   LIG    1       -6.942   4.458   5.610  0.00  0.00    -0.930 OA
ATOM     25  C   LIG    1       -5.948   3.345   3.409  0.00  0.00    -0.330 C 
ENDBRANCH  16  19
ENDBRANCH  14  15
ENDBRANCH   1  14
TORSDOF 4
