REMARK  Name = ZINCrD000000CfHf.1
REMARK                            x       y       z     vdW  Elec       q    Type
REMARK                         _______ _______ _______ _____ _____    ______ ____
ROOT
ATOM      1  C   LIG    1       -0.145   5.535   0.032  0.00  0.00    +0.250 A 
ATOM      2  N   LIG    1        0.888   6.328   0.032  0.00  0.00    -0.260 NA
ATOM      3  N   LIG    1        0.671   7.570   0.034  0.00  0.00    -0.230 NA
ATOM      4  C   LIG    1       -0.559   7.971   0.048  0.00  0.00    +0.040 A 
ATOM      5  S   LIG    1       -1.594   6.542   0.050  0.00  0.00    +0.070 S 
ENDROOT
BRANCH   4   6
ATOM      6  C   LIG    1       -1.025   9.404   0.059  0.00  0.00    +0.030 C 
ATOM      7  C   LIG    1       -0.485  10.106   1.307  0.00  0.00    +0.050 C 
ATOM      8  C   LIG    1       -0.959  11.561   1.319  0.00  0.00    +0.000 C 
ATOM      9  C   LIG    1       -2.488  11.600   1.334  0.00  0.00    +0.020 C 
ATOM     10  C   LIG    1       -3.028  10.898   0.086  0.00  0.00    +0.000 C 
ATOM     11  C   LIG    1       -2.511  11.612  -1.165  0.00  0.00    +0.020 C 
ATOM     12  C   LIG    1       -0.982  11.574  -1.179  0.00  0.00    +0.000 C 
ATOM     13  C   LIG    1       -0.442  12.275   0.069  0.00  0.00    +0.030 C 
ATOM     14  C   LIG    1       -2.555   9.443   0.074  0.00  0.00    +0.030 C 
ATOM     15  C   LIG    1       -0.509  10.119  -1.191  0.00  0.00    +0.050 C 
ENDBRANCH   4   6
BRANCH   1  18
ATOM     16  O   LIG    1        2.109   4.133   0.004  0.00  0.00    -0.410 OA
ATOM     17  C   LIG    1        1.071   3.500   0.010  0.00  0.00    +0.570 C 
ATOM     18  N   LIG    1       -0.112   4.146   0.025  0.00  0.00    -0.610 N 
ATOM     19  H   LIG    1       -0.940   3.641   0.030  0.00  0.00    +0.430 HD
BRANCH  17  20
ATOM     20  C   LIG    1        1.107   2.023   0.002  0.00  0.00    +0.170 A 
ATOM     21  N   LIG    1       -0.016   1.323   0.009  0.00  0.00    -0.420 NA
ATOM     22  C   LIG    1        0.002  -0.004   0.002  0.00  0.00    +0.210 A 
ATOM     23  C   LIG    1        1.159  -0.709  -0.013  0.00  0.00    +0.230 A 
ATOM     24  N   LIG    1        2.361  -0.066  -0.021  0.00  0.00    -0.360 N 
ATOM     25  C   LIG    1        3.656  -0.486  -0.036  0.00  0.00    +0.130 A 
ATOM     26  C   LIG    1        4.434   0.622  -0.038  0.00  0.00    +0.230 A 
ATOM     27  N   LIG    1        3.643   1.698  -0.025  0.00  0.00    -0.430 NA
ATOM     28  C   LIG    1        2.383   1.309  -0.014  0.00  0.00    +0.190 A 
ENDBRANCH  17  20
ENDBRANCH   1  18
TORSDOF 3
