REMARK  Name = ZINCrD0000072BAx.0
REMARK                            x       y       z     vdW  Elec       q    Type
REMARK                         _______ _______ _______ _____ _____    ______ ____
ROOT
ATOM      1  C   LIG    1       -1.219  -4.846   5.662  0.00  0.00    +0.570 C 
ATOM      2  N   LIG    1       -1.803  -4.189   6.684  0.00  0.00    -0.730 N 
ATOM      3  H   LIG    1       -1.883  -3.223   6.657  0.00  0.00    +0.400 HD
ATOM      4  O   LIG    1       -1.119  -6.057   5.696  0.00  0.00    -0.540 OA
ENDROOT
BRANCH   2   5
ATOM      5  C   LIG    1       -2.317  -4.935   7.835  0.00  0.00    +0.260 C 
ATOM      6  C   LIG    1       -3.750  -5.405   7.549  0.00  0.00    +0.030 C 
ATOM      7  C   LIG    1       -4.595  -4.191   7.159  0.00  0.00    +0.070 C 
ATOM      8  C   LIG    1       -4.429  -3.091   8.165  0.00  0.00    +0.520 C 
ATOM      9  N   LIG    1       -3.395  -3.017   9.010  0.00  0.00    -0.700 N 
ATOM     10  H   LIG    1       -3.341  -2.258   9.611  0.00  0.00    +0.400 HD
ATOM     11  O   LIG    1       -5.276  -2.224   8.215  0.00  0.00    -0.550 OA
ATOM     12  C   LIG    1       -2.346  -4.028   9.066  0.00  0.00    +0.130 C 
ATOM     13  C   LIG    1       -0.968  -3.465   9.438  0.00  0.00    +0.040 C 
ATOM     14  C   LIG    1       -1.352  -3.715  10.906  0.00  0.00    +0.020 C 
ATOM     15  C   LIG    1       -2.309  -4.803  10.390  0.00  0.00    +0.040 C 
ENDBRANCH   2   5
BRANCH   1  19
ATOM     16  C   LIG    1        0.273  -2.684   2.326  0.00  0.00    +0.250 A 
ATOM     17  C   LIG    1       -0.325  -2.003   3.383  0.00  0.00    -0.080 A 
ATOM     18  C   LIG    1       -0.815  -2.702   4.463  0.00  0.00    +0.090 A 
ATOM     19  C   LIG    1       -0.701  -4.095   4.503  0.00  0.00    -0.210 A 
ATOM     20  C   LIG    1       -0.095  -4.774   3.442  0.00  0.00    +0.130 A 
ATOM     21  C   LIG    1        0.387  -4.071   2.362  0.00  0.00    -0.080 A 
BRANCH  16  23
ATOM     22  C   LIG    1        1.281  -2.695   0.067  0.00  0.00    +0.270 C 
ATOM     23  N   LIG    1        0.762  -1.976   1.234  0.00  0.00    -0.620 N 
BRANCH  23  24
ATOM     24  C   LIG    1        0.758  -0.511   1.249  0.00  0.00    +0.230 C 
ATOM     25  C   LIG    1        0.009   0.010   0.021  0.00  0.00    +0.010 C 
ATOM     26  C   LIG    1        0.005   1.540   0.037  0.00  0.00    +0.010 C 
ATOM     27  C   LIG    1        1.446   2.054   0.011  0.00  0.00    +0.000 C 
ATOM     28  C   LIG    1        2.196   1.533   1.239  0.00  0.00    +0.010 C 
ATOM     29  C   LIG    1        2.199   0.003   1.222  0.00  0.00    +0.010 C 
ENDBRANCH  23  24
ENDBRANCH  16  23
ENDBRANCH   1  19
TORSDOF 4
