REMARK  Name = ZINCvU00000006Ru.0
REMARK                            x       y       z     vdW  Elec       q    Type
REMARK                         _______ _______ _______ _____ _____    ______ ____
ROOT
ATOM      1  C   LIG    1        5.217   1.339  -0.077  0.00  0.00    +0.150 A 
ATOM      2  N   LIG    1        4.761   0.121  -0.264  0.00  0.00    -0.290 NA
ATOM      3  N   LIG    1        3.484   0.144  -0.408  0.00  0.00    -0.240 NA
ATOM      4  C   LIG    1        3.046   1.379  -0.321  0.00  0.00    +0.220 A 
ATOM      5  N   LIG    1        4.143   2.183  -0.112  0.00  0.00    -0.450 N 
ENDROOT
BRANCH   4   6
ATOM      6  C   LIG    1        1.640   1.822  -0.433  0.00  0.00    -0.010 A 
ATOM      7  C   LIG    1        1.333   3.183  -0.439  0.00  0.00    +0.020 A 
ATOM      8  C   LIG    1        0.019   3.590  -0.545  0.00  0.00    +0.030 A 
ATOM      9  C   LIG    1       -0.994   2.653  -0.644  0.00  0.00    +0.050 A 
ATOM     10  C   LIG    1       -0.697   1.302  -0.645  0.00  0.00    +0.030 A 
ATOM     11  C   LIG    1        0.614   0.880  -0.535  0.00  0.00    -0.000 A 
ATOM     12 CL   LIG    1        0.984  -0.816  -0.529  0.00  0.00    -0.030 Cl
ENDBRANCH   4   6
BRANCH   1  13
ATOM     13  S   LIG    1        6.900   1.800   0.166  0.00  0.00    +0.090 S 
BRANCH  13  14
ATOM     14  C   LIG    1        7.687   0.173   0.077  0.00  0.00    +0.110 C 
BRANCH  14  17
ATOM     15  N   LIG    1        9.971  -0.763   0.235  0.00  0.00    -0.660 N 
ATOM     16  H   LIG    1        9.600  -1.631   0.010  0.00  0.00    +0.420 HD
ATOM     17  C   LIG    1        9.175   0.323   0.264  0.00  0.00    +0.540 C 
ATOM     18  O   LIG    1        9.656   1.423   0.440  0.00  0.00    -0.500 OA
BRANCH  15  25
ATOM     19  C   LIG    1       11.323  -3.025   1.310  0.00  0.00    +0.080 C 
ATOM     20  C   LIG    1       12.032  -1.720   1.056  0.00  0.00    -0.110 A 
ATOM     21  C   LIG    1       13.376  -1.595   1.345  0.00  0.00    +0.030 A 
ATOM     22  C   LIG    1       14.027  -0.398   1.112  0.00  0.00    -0.010 A 
ATOM     23  C   LIG    1       13.335   0.678   0.589  0.00  0.00    +0.020 A 
ATOM     24  C   LIG    1       11.992   0.558   0.291  0.00  0.00    +0.020 A 
ATOM     25  C   LIG    1       11.334  -0.641   0.529  0.00  0.00    +0.140 A 
ENDBRANCH  15  25
ENDBRANCH  14  17
ENDBRANCH  13  14
ENDBRANCH   1  13
BRANCH   5  26
ATOM     26  C   LIG    1        4.156   3.639   0.044  0.00  0.00    +0.360 C 
BRANCH  26  27
ATOM     27  C   LIG    1        4.302   4.288  -1.308  0.00  0.00    -0.130 A 
ATOM     28  C   LIG    1        5.526   4.279  -1.951  0.00  0.00    +0.040 A 
ATOM     29  C   LIG    1        5.658   4.870  -3.193  0.00  0.00    +0.010 A 
ATOM     30  C   LIG    1        4.569   5.479  -3.789  0.00  0.00    +0.030 A 
ATOM     31  C   LIG    1        3.347   5.493  -3.144  0.00  0.00    +0.010 A 
ATOM     32  C   LIG    1        3.213   4.897  -1.904  0.00  0.00    +0.030 A 
ENDBRANCH  26  27
ENDBRANCH   5  26
TORSDOF 7
