REMARK  Name = ZINCrg000000oy7T.0
REMARK                            x       y       z     vdW  Elec       q    Type
REMARK                         _______ _______ _______ _____ _____    ______ ____
ROOT
ATOM      1  C   LIG    1       -1.024   0.012   2.253  0.00  0.00    +0.350 C 
ENDROOT
BRANCH   1   2
ATOM      2  N   LIG    1       -1.467  -0.969   3.247  0.00  0.00    -0.400 N 
ATOM      3  C   LIG    1       -2.717  -1.446   3.401  0.00  0.00    +0.510 A 
ATOM      4  N   LIG    1       -2.744  -2.305   4.388  0.00  0.00    -0.490 NA
ATOM      5  C   LIG    1       -1.523  -2.425   4.916  0.00  0.00    +0.320 A 
ATOM      6  N   LIG    1       -0.995  -3.175   5.954  0.00  0.00    -0.510 N 
ATOM      7  C   LIG    1       -1.861  -4.075   6.720  0.00  0.00    +0.340 C 
ATOM      8  C   LIG    1        0.312  -3.079   6.260  0.00  0.00    +0.710 A 
ATOM      9  O   LIG    1        0.758  -3.745   7.175  0.00  0.00    -0.530 OA
ATOM     10  N   LIG    1        1.138  -2.264   5.580  0.00  0.00    -0.550 N 
ATOM     11  C   LIG    1        2.553  -2.196   5.954  0.00  0.00    +0.350 C 
ATOM     12  C   LIG    1        0.683  -1.509   4.559  0.00  0.00    +0.600 A 
ATOM     13  O   LIG    1        1.441  -0.775   3.951  0.00  0.00    -0.510 OA
ATOM     14  C   LIG    1       -0.680  -1.583   4.201  0.00  0.00    -0.140 A 
ENDBRANCH   1   2
BRANCH   1  24
ATOM     15  C   LIG    1        0.549  -0.686  -1.180  0.00  0.00    +0.320 C 
ATOM     16  C   LIG    1        1.846   0.016  -1.563  0.00  0.00    -0.120 A 
ATOM     17  C   LIG    1        2.217   1.198  -1.034  0.00  0.00    -0.170 A 
ATOM     18  S   LIG    1        3.757   1.701  -1.716  0.00  0.00    +0.110 S 
ATOM     19  C   LIG    1        3.832   0.251  -2.706  0.00  0.00    -0.040 A 
ATOM     20  C   LIG    1        1.427   1.974  -0.001  0.00  0.00    +0.110 C 
ATOM     21  C   LIG    1       -0.018   1.466   0.010  0.00  0.00    +0.290 C 
ATOM     22  C   LIG    1        2.754  -0.495  -2.486  0.00  0.00    +0.020 A 
ATOM     23  N   LIG    1        0.002  -0.004   0.002  0.00  0.00    -0.600 N 
ATOM     24  C   LIG    1       -0.468  -0.708   1.051  0.00  0.00    +0.510 C 
ATOM     25  O   LIG    1       -0.444  -1.920   1.027  0.00  0.00    -0.510 OA
BRANCH  15  27
ATOM     26  C   LIG    1       -1.717  -1.376  -1.976  0.00  0.00    +0.020 C 
ATOM     27  C   LIG    1       -0.449  -0.599  -2.336  0.00  0.00    +0.030 C 
ENDBRANCH  15  27
ENDBRANCH   1  24
TORSDOF 3
