REMARK  Name = ZINCkj000005kayL.0
REMARK                            x       y       z     vdW  Elec       q    Type
REMARK                         _______ _______ _______ _____ _____    ______ ____
ROOT
ATOM      1  S   LIG    1        0.062   6.021   0.228  0.00  0.00    +2.690 S 
ATOM      2  O   LIG    1       -0.754   5.080   0.912  0.00  0.00    -0.950 OA
ATOM      3  O   LIG    1        1.426   5.781  -0.090  0.00  0.00    -0.920 OA
ENDROOT
BRANCH   1  10
ATOM      4  C   LIG    1        1.616   8.518  -0.459  0.00  0.00    +0.120 C 
ATOM      5  C   LIG    1        0.775   8.594   0.790  0.00  0.00    +0.040 A 
ATOM      6  C   LIG    1        0.748   9.757   1.532  0.00  0.00    +0.060 A 
ATOM      7  C   LIG    1       -0.027   9.823   2.691  0.00  0.00    +0.060 A 
ATOM      8  C   LIG    1       -0.780   8.715   3.085  0.00  0.00    +0.050 A 
ATOM      9  C   LIG    1       -0.748   7.561   2.330  0.00  0.00    +0.120 A 
ATOM     10  C   LIG    1        0.027   7.500   1.185  0.00  0.00    -0.680 A 
BRANCH   7  11
ATOM     11  C   LIG    1       -0.055  11.025   3.470  0.00  0.00    +0.220 C 
ATOM     12  N   LIG    1       -0.077  11.978   4.087  0.00  0.00    -0.370 NA
ENDBRANCH   7  11
ENDBRANCH   1  10
BRANCH   1  13
ATOM     13  N   LIG    1       -0.702   6.347  -1.205  0.00  0.00    -0.990 NA
ATOM     14  C   LIG    1        0.063   6.440  -2.456  0.00  0.00    +0.310 C 
ATOM     15  C   LIG    1       -0.249   7.774  -3.132  0.00  0.00    +0.020 C 
ATOM     16  C   LIG    1       -1.763   7.912  -3.308  0.00  0.00    +0.030 C 
ATOM     17  C   LIG    1       -2.442   7.893  -1.937  0.00  0.00    +0.010 C 
ATOM     18  C   LIG    1       -2.155   6.555  -1.248  0.00  0.00    +0.250 C 
BRANCH  18  19
ATOM     19  C   LIG    1       -2.713   6.578   0.176  0.00  0.00    +0.230 C 
BRANCH  19  20
ATOM     20  N   LIG    1       -4.166   6.788   0.130  0.00  0.00    -0.620 N 
ATOM     21  H   LIG    1       -4.524   6.872   1.070  0.00  0.00    +0.450 HD
ATOM     22  H   LIG    1       -4.605   6.004  -0.329  0.00  0.00    +0.440 HD
ATOM     23  H   LIG    1       -4.368   7.634  -0.383  0.00  0.00    +0.430 HD
ENDBRANCH  19  20
ENDBRANCH  18  19
ENDBRANCH   1  13
TORSDOF 5
