REMARK  Name = ZINCpe000000UMhn.1
REMARK                            x       y       z     vdW  Elec       q    Type
REMARK                         _______ _______ _______ _____ _____    ______ ____
ROOT
ATOM      1  N   LIG    1       -3.195   4.624   3.437  0.00  0.00    -0.680 N 
ATOM      2  H   LIG    1       -3.124   4.005   2.694  0.00  0.00    +0.410 HD
ATOM      3  C   LIG    1       -3.744   5.841   3.249  0.00  0.00    +0.700 C 
ATOM      4  N   LIG    1       -4.300   6.153   2.062  0.00  0.00    -0.620 N 
ATOM      5  C   LIG    1       -4.308   5.171   0.975  0.00  0.00    +0.270 C 
ATOM      6  O   LIG    1       -3.738   6.656   4.151  0.00  0.00    -0.540 OA
ENDROOT
BRANCH   1  12
ATOM      7  C   LIG    1       -1.807   3.214   4.836  0.00  0.00    +0.060 A 
ATOM      8  C   LIG    1       -1.352   2.850   6.094  0.00  0.00    -0.010 A 
ATOM      9  C   LIG    1       -1.801   3.526   7.214  0.00  0.00    +0.000 A 
ATOM     10  C   LIG    1       -2.712   4.557   7.085  0.00  0.00    +0.010 A 
ATOM     11  C   LIG    1       -3.176   4.923   5.834  0.00  0.00    +0.040 A 
ATOM     12  C   LIG    1       -2.727   4.255   4.706  0.00  0.00    +0.160 A 
BRANCH   7  17
ATOM     13  C   LIG    1        1.108   0.750   0.766  0.00  0.00    +0.190 C 
ATOM     14  N   LIG    1        0.628   1.462   1.958  0.00  0.00    -0.550 NA
ATOM     15  C   LIG    1       -0.179   0.579   2.810  0.00  0.00    +0.170 C 
ATOM     16  C   LIG    1       -0.593   1.333   4.076  0.00  0.00    +0.210 C 
ATOM     17  N   LIG    1       -1.350   2.535   3.701  0.00  0.00    -0.490 N 
ATOM     18  C   LIG    1       -0.542   3.419   2.849  0.00  0.00    +0.180 C 
ATOM     19  C   LIG    1       -0.130   2.664   1.583  0.00  0.00    +0.180 C 
ENDBRANCH   7  17
ENDBRANCH   1  12
BRANCH   4  20
ATOM     20  C   LIG    1       -4.897   7.476   1.858  0.00  0.00    +0.330 C 
BRANCH  20  21
ATOM     21  C   LIG    1       -3.834   8.438   1.324  0.00  0.00    -0.070 C 
ATOM     22  C   LIG    1       -3.292   7.912  -0.007  0.00  0.00    +0.050 C 
BRANCH  21  23
ATOM     23  C   LIG    1       -2.690   8.545   2.334  0.00  0.00    +0.170 C 
BRANCH  23  24
ATOM     24  O   LIG    1       -3.196   9.036   3.577  0.00  0.00    -0.550 OA
ATOM     25  H   LIG    1       -2.524   9.130   4.266  0.00  0.00    +0.370 HD
ENDBRANCH  23  24
ENDBRANCH  21  23
BRANCH  21  26
ATOM     26  C   LIG    1       -4.457   9.819   1.111  0.00  0.00    +0.190 C 
BRANCH  26  27
ATOM     27  O   LIG    1       -3.465  10.718   0.612  0.00  0.00    -0.570 OA
ATOM     28  H   LIG    1       -3.790  11.614   0.454  0.00  0.00    +0.380 HD
ENDBRANCH  26  27
ENDBRANCH  21  26
ENDBRANCH  20  21
ENDBRANCH   4  20
TORSDOF 8
