REMARK  Name = ZINCpk00000y6vvA.1
REMARK                            x       y       z     vdW  Elec       q    Type
REMARK                         _______ _______ _______ _____ _____    ______ ____
ROOT
ATOM      1  C   LIG    1       -0.193   2.829  -1.720  0.00  0.00    +0.280 C 
ATOM      2  N   LIG    1       -0.652   1.558  -1.157  0.00  0.00    -0.610 N 
ATOM      3  C   LIG    1       -1.668   0.890  -1.740  0.00  0.00    +0.590 C 
ATOM      4  O   LIG    1       -2.103  -0.124  -1.227  0.00  0.00    -0.490 OA
ENDROOT
BRANCH   3   5
ATOM      5  C   LIG    1       -2.250   1.387  -2.996  0.00  0.00    -0.020 A 
ATOM      6  C   LIG    1       -1.952   0.957  -4.277  0.00  0.00    -0.140 A 
ATOM      7  C   LIG    1       -2.758   1.724  -5.122  0.00  0.00    +0.190 A 
ATOM      8  N   LIG    1       -3.459   2.539  -4.377  0.00  0.00    -0.280 NA
ATOM      9  N   LIG    1       -3.188   2.371  -3.132  0.00  0.00    -0.280 N 
ATOM     10  C   LIG    1       -3.794   3.118  -2.028  0.00  0.00    +0.360 C 
BRANCH   6  11
ATOM     11  C   LIG    1       -0.969  -0.113  -4.676  0.00  0.00    +0.050 C 
ATOM     12  C   LIG    1       -0.200   0.207  -5.969  0.00  0.00    +0.020 C 
ATOM     13  C   LIG    1       -0.362  -1.277  -6.340  0.00  0.00    +0.010 C 
ATOM     14  C   LIG    1       -1.609  -1.284  -5.440  0.00  0.00    +0.020 C 
ENDBRANCH   6  11
ENDBRANCH   3   5
BRANCH   2  15
ATOM     15  C   LIG    1       -0.008   1.011   0.041  0.00  0.00    +0.320 C 
BRANCH  15  16
ATOM     16  C   LIG    1       -0.727   1.530   1.288  0.00  0.00    +0.150 C 
ATOM     17  O   LIG    1       -2.043   0.945   1.390  0.00  0.00    -0.340 OA
ATOM     18  C   LIG    1       -2.416   1.086   2.778  0.00  0.00    +0.200 C 
ATOM     19  C   LIG    1       -1.126   0.770   3.567  0.00  0.00    +0.020 C 
ATOM     20  C   LIG    1        0.010   1.069   2.564  0.00  0.00    +0.080 C 
BRANCH  20  21
ATOM     21  C   LIG    1        0.816  -0.175   2.289  0.00  0.00    +0.230 A 
ATOM     22  N   LIG    1        2.111  -0.287   2.425  0.00  0.00    -0.310 NA
ATOM     23  N   LIG    1        2.444  -1.603   2.065  0.00  0.00    -0.480 N 
ATOM     24  H   LIG    1        3.330  -1.998   2.061  0.00  0.00    +0.440 HD
ATOM     25  C   LIG    1        1.292  -2.207   1.728  0.00  0.00    +0.480 A 
ATOM     26  N   LIG    1        0.322  -1.340   1.872  0.00  0.00    -0.520 NA
ENDBRANCH  20  21
ENDBRANCH  15  16
ENDBRANCH   2  15
TORSDOF 5
