REMARK  Name = ZINCpk00000y6vvA.0
REMARK                            x       y       z     vdW  Elec       q    Type
REMARK                         _______ _______ _______ _____ _____    ______ ____
ROOT
ATOM      1  C   LIG    1       -1.683   0.612   1.752  0.00  0.00    +0.290 C 
ATOM      2  N   LIG    1       -0.666   1.502   1.186  0.00  0.00    -0.600 N 
ATOM      3  C   LIG    1       -0.395   2.680   1.783  0.00  0.00    +0.600 C 
ATOM      4  O   LIG    1        0.390   3.455   1.270  0.00  0.00    -0.500 OA
ENDROOT
BRANCH   3   5
ATOM      5  C   LIG    1       -1.048   3.028   3.055  0.00  0.00    -0.030 A 
ATOM      6  C   LIG    1       -0.519   2.890   4.326  0.00  0.00    -0.140 A 
ATOM      7  C   LIG    1       -1.511   3.354   5.192  0.00  0.00    +0.190 A 
ATOM      8  N   LIG    1       -2.536   3.724   4.468  0.00  0.00    -0.280 NA
ATOM      9  N   LIG    1       -2.301   3.547   3.217  0.00  0.00    -0.280 N 
ATOM     10  C   LIG    1       -3.235   3.857   2.131  0.00  0.00    +0.360 C 
BRANCH   6  11
ATOM     11  C   LIG    1        0.840   2.354   4.696  0.00  0.00    +0.050 C 
ATOM     12  C   LIG    1        0.840   1.506   5.978  0.00  0.00    +0.030 C 
ATOM     13  C   LIG    1        2.171   2.187   6.336  0.00  0.00    +0.010 C 
ATOM     14  C   LIG    1        1.713   3.365   5.459  0.00  0.00    +0.020 C 
ENDBRANCH   6  11
ENDBRANCH   3   5
BRANCH   2  15
ATOM     15  C   LIG    1        0.056   1.112  -0.027  0.00  0.00    +0.310 C 
BRANCH  15  16
ATOM     16  C   LIG    1       -0.702   1.618  -1.256  0.00  0.00    +0.160 C 
ATOM     17  O   LIG    1       -0.681   3.055  -1.287  0.00  0.00    -0.350 OA
ATOM     18  C   LIG    1       -0.629   3.446  -2.676  0.00  0.00    +0.220 C 
ATOM     19  C   LIG    1        0.348   2.420  -3.304  0.00  0.00    +0.020 C 
ATOM     20  C   LIG    1       -0.009   1.122  -2.540  0.00  0.00    +0.100 C 
BRANCH  20  21
ATOM     21  C   LIG    1        1.239   0.349  -2.201  0.00  0.00    +0.180 A 
ATOM     22  N   LIG    1        1.335  -0.946  -2.070  0.00  0.00    -0.290 NA
ATOM     23  N   LIG    1        2.548  -1.263  -1.781  0.00  0.00    -0.290 NA
ATOM     24  C   LIG    1        3.278  -0.184  -1.705  0.00  0.00    +0.380 A 
ATOM     25  N   LIG    1        2.468   0.870  -1.969  0.00  0.00    -0.580 N 
ATOM     26  H   LIG    1        2.718   1.807  -1.989  0.00  0.00    +0.430 HD
ENDBRANCH  20  21
ENDBRANCH  15  16
ENDBRANCH   2  15
TORSDOF 5
