REMARK  Name = ZINCrD0000074BjW.0
REMARK                            x       y       z     vdW  Elec       q    Type
REMARK                         _______ _______ _______ _____ _____    ______ ____
ROOT
ATOM      1  C   LIG    1        3.635  -2.403  -0.042  0.00  0.00    +0.520 C 
ATOM      2  N   LIG    1        4.719  -3.204  -0.055  0.00  0.00    -0.610 N 
ATOM      3  C   LIG    1        6.072  -2.633  -0.071  0.00  0.00    +0.260 C 
ATOM      4  C   LIG    1        6.872  -3.240   1.091  0.00  0.00    +0.020 C 
ATOM      5  C   LIG    1        6.833  -4.767   0.988  0.00  0.00    +0.000 C 
ATOM      6  C   LIG    1        5.385  -5.250   1.096  0.00  0.00    +0.020 C 
ATOM      7  C   LIG    1        4.568  -4.666  -0.061  0.00  0.00    +0.280 C 
ATOM      8  O   LIG    1        2.523  -2.886  -0.034  0.00  0.00    -0.520 OA
ENDROOT
BRANCH   1   9
ATOM      9  C   LIG    1        3.806  -0.905  -0.036  0.00  0.00    +0.250 C 
BRANCH   9  10
ATOM     10  O   LIG    1        2.501  -0.269  -0.021  0.00  0.00    -0.330 OA
BRANCH  10  11
ATOM     11  C   LIG    1        2.477   1.078  -0.015  0.00  0.00    +0.510 C 
ATOM     12  O   LIG    1        3.518   1.704  -0.021  0.00  0.00    -0.490 OA
BRANCH  11  17
ATOM     13  C   LIG    1       -2.561   3.860   0.047  0.00  0.00    +0.100 C 
ATOM     14  C   LIG    1       -1.240   3.135   0.030  0.00  0.00    -0.030 A 
ATOM     15  C   LIG    1       -1.215   1.750   0.017  0.00  0.00    -0.010 A 
ATOM     16  C   LIG    1       -0.013   1.076   0.008  0.00  0.00    +0.110 A 
ATOM     17  C   LIG    1        1.187   1.792   0.000  0.00  0.00    -0.170 A 
ATOM     18  C   LIG    1        1.157   3.194   0.008  0.00  0.00    +0.180 A 
ATOM     19  C   LIG    1       -0.061   3.855   0.022  0.00  0.00    -0.020 A 
BRANCH  18  20
ATOM     20  O   LIG    1        2.316   3.900   0.001  0.00  0.00    -0.480 OA
ATOM     21  H   LIG    1        2.643   4.109  -0.884  0.00  0.00    +0.400 HD
ENDBRANCH  18  20
ENDBRANCH  11  17
ENDBRANCH  10  11
ENDBRANCH   9  10
ENDBRANCH   1   9
BRANCH   5  22
ATOM     22  C   LIG    1        7.660  -5.376   2.123  0.00  0.00    +0.070 C 
BRANCH  22  23
ATOM     23  C   LIG    1        9.108  -5.000   1.946  0.00  0.00    -0.080 A 
ATOM     24  C   LIG    1        9.950  -5.815   1.213  0.00  0.00    +0.000 A 
ATOM     25  C   LIG    1       11.277  -5.468   1.048  0.00  0.00    +0.000 A 
ATOM     26  C   LIG    1       11.766  -4.310   1.624  0.00  0.00    +0.000 A 
ATOM     27  C   LIG    1       10.926  -3.497   2.361  0.00  0.00    +0.000 A 
ATOM     28  C   LIG    1        9.597  -3.842   2.523  0.00  0.00    +0.000 A 
ENDBRANCH  22  23
ENDBRANCH   5  22
TORSDOF 7
