REMARK  Name = ZINCrH000004k4EL.0
REMARK                            x       y       z     vdW  Elec       q    Type
REMARK                         _______ _______ _______ _____ _____    ______ ____
ROOT
ATOM      1  S   LIG    1        0.084  -3.014  -0.002  0.00  0.00    +2.700 S 
ATOM      2  O   LIG    1        0.752  -4.260  -0.141  0.00  0.00    -0.950 OA
ATOM      3  O   LIG    1       -0.886  -2.545  -0.929  0.00  0.00    -0.950 OA
ENDROOT
BRANCH   1  12
ATOM      4  C   LIG    1        5.589   1.444   0.207  0.00  0.00    +0.330 C 
ATOM      5  N   LIG    1        4.129   1.339   0.273  0.00  0.00    -0.550 N 
ATOM      6  C   LIG    1        3.282   2.390   0.437  0.00  0.00    +0.580 A 
ATOM      7  C   LIG    1        1.910   1.868   0.451  0.00  0.00    -0.150 A 
ATOM      8  C   LIG    1        0.615   2.338   0.573  0.00  0.00    +0.130 A 
ATOM      9  C   LIG    1       -0.453   1.442   0.529  0.00  0.00    +0.040 A 
ATOM     10  C   LIG    1       -0.290   0.091   0.368  0.00  0.00    +0.050 A 
ATOM     11  C   LIG    1        1.010  -0.427   0.240  0.00  0.00    +0.060 A 
ATOM     12  C   LIG    1        1.341  -1.781   0.069  0.00  0.00    -0.690 A 
ATOM     13  C   LIG    1        2.662  -2.121  -0.041  0.00  0.00    +0.190 A 
ATOM     14  C   LIG    1        3.698  -1.190   0.009  0.00  0.00    -0.010 A 
ATOM     15  C   LIG    1        2.066   0.483   0.286  0.00  0.00    -0.130 A 
ATOM     16  O   LIG    1        3.605   3.557   0.552  0.00  0.00    -0.470 OA
ATOM     17  C   LIG    1        3.413   0.153   0.177  0.00  0.00    +0.220 A 
ENDBRANCH   1  12
BRANCH   1  18
ATOM     18  N   LIG    1       -0.658  -3.043   1.478  0.00  0.00    -1.050 N 
ATOM     19  H   LIG    1       -1.603  -2.836   1.550  0.00  0.00    +0.430 HD
BRANCH  18  20
ATOM     20  C   LIG    1        0.077  -3.365   2.624  0.00  0.00    +0.110 A 
ATOM     21  C   LIG    1        0.938  -4.461   2.611  0.00  0.00    +0.030 A 
ATOM     22  C   LIG    1        1.673  -4.789   3.728  0.00  0.00    +0.020 A 
ATOM     23  C   LIG    1        1.552  -4.030   4.887  0.00  0.00    +0.090 A 
ATOM     24  N   LIG    1        2.136  -4.108   6.135  0.00  0.00    -0.600 N 
ATOM     25  H   LIG    1        2.783  -4.777   6.407  0.00  0.00    +0.420 HD
ATOM     26  C   LIG    1        1.665  -3.100   6.931  0.00  0.00    +0.230 A 
ATOM     27  C   LIG    1        0.784  -2.351   6.250  0.00  0.00    -0.060 A 
ATOM     28  C   LIG    1        0.680  -2.926   4.907  0.00  0.00    -0.090 A 
ATOM     29  C   LIG    1       -0.057  -2.599   3.767  0.00  0.00    +0.050 A 
ENDBRANCH  18  20
ENDBRANCH   1  18
TORSDOF 3
