REMARK  Name = ZINCvU0000000HX0.0
REMARK                            x       y       z     vdW  Elec       q    Type
REMARK                         _______ _______ _______ _____ _____    ______ ____
ROOT
ATOM      1  C   LIG    1        4.236   4.915   0.536  0.00  0.00    +0.130 C 
ATOM      2  C   LIG    1        3.905   3.606  -0.132  0.00  0.00    +0.060 A 
ATOM      3  C   LIG    1        2.620   3.371  -0.623  0.00  0.00    -0.040 A 
ATOM      4  C   LIG    1        2.335   2.084  -1.266  0.00  0.00    +0.330 A 
ATOM      5  N   LIG    1        1.233   1.602  -1.809  0.00  0.00    -0.490 NA
ATOM      6  C   LIG    1        1.465   0.353  -2.280  0.00  0.00    +0.100 A 
ATOM      7  C   LIG    1        0.663  -0.590  -2.931  0.00  0.00    +0.060 A 
ATOM      8  C   LIG    1        1.196  -1.805  -3.296  0.00  0.00    +0.040 A 
ATOM      9  C   LIG    1        2.523  -2.103  -3.023  0.00  0.00    +0.020 A 
ATOM     10  C   LIG    1        3.328  -1.185  -2.381  0.00  0.00    +0.050 A 
ATOM     11  C   LIG    1        2.810   0.045  -2.005  0.00  0.00    +0.020 A 
ATOM     12  N   LIG    1        3.340   1.152  -1.365  0.00  0.00    -0.400 N 
ATOM     13  C   LIG    1        4.586   1.421  -0.871  0.00  0.00    +0.400 A 
ATOM     14  C   LIG    1        4.875   2.622  -0.263  0.00  0.00    -0.140 A 
ENDROOT
BRANCH  13  15
ATOM     15  N   LIG    1        5.572   0.470  -0.983  0.00  0.00    -0.690 N 
ATOM     16  H   LIG    1        6.356   0.646  -1.526  0.00  0.00    +0.420 HD
BRANCH  15  17
ATOM     17  C   LIG    1        5.445  -0.753  -0.314  0.00  0.00    +0.170 A 
ATOM     18  C   LIG    1        4.408  -0.945   0.591  0.00  0.00    -0.020 A 
ATOM     19  C   LIG    1        4.280  -2.154   1.246  0.00  0.00    +0.030 A 
ATOM     20  C   LIG    1        5.193  -3.171   1.011  0.00  0.00    +0.080 A 
ATOM     21  C   LIG    1        6.232  -2.978   0.112  0.00  0.00    +0.040 A 
ATOM     22  C   LIG    1        6.358  -1.772  -0.549  0.00  0.00    -0.020 A 
BRANCH  20  23
ATOM     23  O   LIG    1        5.070  -4.359   1.661  0.00  0.00    -0.500 OA
ATOM     24  H   LIG    1        5.544  -4.397   2.504  0.00  0.00    +0.390 HD
ENDBRANCH  20  23
ENDBRANCH  15  17
ENDBRANCH  13  15
BRANCH   3  25
ATOM     25  C   LIG    1        1.599   4.368  -0.501  0.00  0.00    +0.270 C 
ATOM     26  N   LIG    1        0.789   5.159  -0.404  0.00  0.00    -0.400 NA
ENDBRANCH   3  25
BRANCH  14  27
ATOM     27  C   LIG    1        6.264   2.873   0.266  0.00  0.00    +0.170 C 
BRANCH  27  28
ATOM     28  C   LIG    1        6.309   2.539   1.735  0.00  0.00    -0.080 A 
ATOM     29  C   LIG    1        6.182   3.544   2.676  0.00  0.00    +0.010 A 
ATOM     30  C   LIG    1        6.219   3.237   4.023  0.00  0.00    +0.000 A 
ATOM     31  C   LIG    1        6.393   1.928   4.430  0.00  0.00    +0.000 A 
ATOM     32  C   LIG    1        6.527   0.924   3.489  0.00  0.00    +0.000 A 
ATOM     33  C   LIG    1        6.484   1.230   2.141  0.00  0.00    +0.010 A 
ENDBRANCH  27  28
ENDBRANCH  14  27
TORSDOF 6
