REMARK  Name = ZINCvU0000000ESY.0
REMARK                            x       y       z     vdW  Elec       q    Type
REMARK                         _______ _______ _______ _____ _____    ______ ____
ROOT
ATOM      1  N   LIG    1        1.296  -7.622  -4.103  0.00  0.00    -0.570 N 
ATOM      2  C   LIG    1        1.807  -7.233  -2.919  0.00  0.00    +0.520 C 
ATOM      3  O   LIG    1        2.719  -7.856  -2.417  0.00  0.00    -0.510 OA
ENDROOT
BRANCH   1   8
ATOM      4  C   LIG    1        3.679 -11.912  -6.951  0.00  0.00    +0.090 C 
ATOM      5  C   LIG    1        3.046 -10.772  -6.195  0.00  0.00    -0.080 A 
ATOM      6  C   LIG    1        1.778 -10.918  -5.662  0.00  0.00    +0.020 A 
ATOM      7  C   LIG    1        1.195  -9.876  -4.968  0.00  0.00    +0.020 A 
ATOM      8  C   LIG    1        1.884  -8.681  -4.805  0.00  0.00    +0.130 A 
ATOM      9  C   LIG    1        3.155  -8.536  -5.346  0.00  0.00    +0.020 A 
ATOM     10  C   LIG    1        3.734  -9.584  -6.035  0.00  0.00    +0.020 A 
ENDBRANCH   1   8
BRANCH   2  11
ATOM     11  C   LIG    1        1.245  -6.024  -2.217  0.00  0.00    +0.080 C 
BRANCH  11  12
ATOM     12  C   LIG    1        1.997  -5.802  -0.903  0.00  0.00    +0.210 C 
BRANCH  12  13
ATOM     13  C   LIG    1        1.436  -4.592  -0.201  0.00  0.00    +0.200 A 
ATOM     14  N   LIG    1        0.454  -4.603   0.656  0.00  0.00    -0.470 NA
ATOM     15  C   LIG    1        0.231  -3.349   1.077  0.00  0.00    +0.190 A 
ATOM     16  C   LIG    1        1.114  -2.540   0.438  0.00  0.00    -0.020 A 
ATOM     17  O   LIG    1        1.866  -3.332  -0.357  0.00  0.00    -0.190 OA
BRANCH  16  18
ATOM     18  C   LIG    1        1.235  -1.074   0.588  0.00  0.00    -0.060 A 
ATOM     19  C   LIG    1        0.104  -0.264   0.479  0.00  0.00    +0.120 A 
ATOM     20  C   LIG    1        0.222   1.104   0.619  0.00  0.00    -0.010 A 
ATOM     21  C   LIG    1        1.460   1.674   0.868  0.00  0.00    +0.150 A 
ATOM     22  C   LIG    1        2.588   0.875   0.977  0.00  0.00    -0.030 A 
ATOM     23  F   LIG    1        1.569   3.014   1.004  0.00  0.00    -0.120 F 
ATOM     24  C   LIG    1        2.482  -0.495   0.839  0.00  0.00    +0.160 A 
ATOM     25  F   LIG    1        3.581  -1.273   0.946  0.00  0.00    -0.120 F 
ENDBRANCH  16  18
ENDBRANCH  12  13
ENDBRANCH  11  12
ENDBRANCH   2  11
BRANCH   1  26
ATOM     26  C   LIG    1        0.125  -6.938  -4.656  0.00  0.00    +0.410 C 
BRANCH  26  27
ATOM     27  C   LIG    1        0.576  -5.785  -5.516  0.00  0.00    -0.050 A 
ATOM     28  C   LIG    1        0.843  -5.843  -6.833  0.00  0.00    -0.030 A 
ATOM     29  C   LIG    1        1.227  -4.541  -7.230  0.00  0.00    -0.070 A 
ATOM     30  C   LIG    1        1.181  -3.768  -6.130  0.00  0.00    +0.170 A 
ATOM     31  O   LIG    1        0.786  -4.527  -5.095  0.00  0.00    -0.170 OA
ENDBRANCH  26  27
ENDBRANCH   1  26
TORSDOF 7
