REMARK  Name = ZINCtV00000L6ksi.0
REMARK                            x       y       z     vdW  Elec       q    Type
REMARK                         _______ _______ _______ _____ _____    ______ ____
ROOT
ATOM      1  C   LIG    1       -0.018   1.503   0.010  0.00  0.00    +0.190 A 
ATOM      2  N   LIG    1        1.021   2.289   0.005  0.00  0.00    -0.270 NA
ATOM      3  N   LIG    1        0.644   3.518   0.014  0.00  0.00    -0.290 NA
ATOM      4  C   LIG    1       -0.667   3.582   0.026  0.00  0.00    +0.160 A 
ATOM      5  N   LIG    1       -1.131   2.298   0.019  0.00  0.00    -0.450 N 
ENDROOT
BRANCH   5   6
ATOM      6  C   LIG    1       -2.530   1.863   0.023  0.00  0.00    +0.240 C 
ATOM      7  C   LIG    1       -3.236   2.406  -1.220  0.00  0.00    +0.010 C 
ATOM      8  C   LIG    1       -4.697   1.951  -1.216  0.00  0.00    +0.030 C 
ATOM      9  C   LIG    1       -5.393   2.482   0.039  0.00  0.00    +0.010 C 
ATOM     10  C   LIG    1       -4.686   1.938   1.282  0.00  0.00    +0.030 C 
ATOM     11  C   LIG    1       -3.225   2.393   1.278  0.00  0.00    +0.010 C 
ENDBRANCH   5   6
BRANCH   1  12
ATOM     12  C   LIG    1        0.002  -0.004   0.002  0.00  0.00    +0.250 C 
BRANCH  12  16
ATOM     13  C   LIG    1       -0.793  -1.246   3.433  0.00  0.00    +0.000 A 
ATOM     14  C   LIG    1        0.502  -1.342   3.739  0.00  0.00    -0.040 A 
ATOM     15  S   LIG    1        1.472  -0.837   2.361  0.00  0.00    +0.130 S 
ATOM     16  C   LIG    1        0.022  -0.514   1.420  0.00  0.00    -0.190 A 
ATOM     17  C   LIG    1       -1.058  -0.784   2.155  0.00  0.00    +0.010 A 
ENDBRANCH  12  16
ENDBRANCH   1  12
BRANCH   4  18
ATOM     18  S   LIG    1       -1.644   5.049   0.043  0.00  0.00    +0.030 S 
BRANCH  18  19
ATOM     19  C   LIG    1       -0.335   6.299   0.037  0.00  0.00    +0.210 C 
BRANCH  19  20
ATOM     20  C   LIG    1       -0.952   7.673   0.050  0.00  0.00    -0.000 A 
ATOM     21  C   LIG    1       -1.281   8.403  -1.031  0.00  0.00    +0.190 A 
ATOM     22  O   LIG    1       -1.806   9.564  -0.587  0.00  0.00    -0.190 OA
ATOM     23  C   LIG    1       -1.784   9.535   0.758  0.00  0.00    +0.270 A 
ATOM     24  N   LIG    1       -1.266   8.388   1.141  0.00  0.00    -0.460 NA
BRANCH  23  25
ATOM     25  C   LIG    1       -2.259  10.604   1.648  0.00  0.00    -0.150 A 
ATOM     26  C   LIG    1       -2.794  11.788   1.241  0.00  0.00    +0.060 A 
ATOM     27  C   LIG    1       -3.166  12.628   2.267  0.00  0.00    +0.010 A 
ATOM     28  C   LIG    1       -2.945  12.155   3.498  0.00  0.00    -0.040 A 
ATOM     29  S   LIG    1       -2.232  10.551   3.406  0.00  0.00    +0.220 S 
ENDBRANCH  23  25
ENDBRANCH  19  20
ENDBRANCH  18  19
ENDBRANCH   4  18
TORSDOF 7
