REMARK  Name = ZINCrH000004p07x.0
REMARK                            x       y       z     vdW  Elec       q    Type
REMARK                         _______ _______ _______ _____ _____    ______ ____
ROOT
ATOM      1  C   LIG    1        7.733  -1.991  -1.314  0.00  0.00    +0.520 C 
ATOM      2  N   LIG    1        8.957  -2.323  -1.771  0.00  0.00    -0.510 N 
ATOM      3  O   LIG    1        6.758  -2.159  -2.016  0.00  0.00    -0.490 OA
ENDROOT
BRANCH   2   4
ATOM      4  C   LIG    1       10.144  -2.027  -0.966  0.00  0.00    +0.240 C 
ATOM      5  C   LIG    1       11.097  -1.138  -1.768  0.00  0.00    +0.020 C 
ATOM      6  C   LIG    1       12.337  -0.829  -0.927  0.00  0.00    +0.020 C 
ATOM      7  C   LIG    1       13.044  -2.136  -0.562  0.00  0.00    +0.010 C 
ATOM      8  C   LIG    1       12.092  -3.025   0.240  0.00  0.00    +0.020 C 
ATOM      9  C   LIG    1       10.852  -3.334  -0.601  0.00  0.00    +0.020 C 
ENDBRANCH   2   4
BRANCH   2  10
ATOM     10  C   LIG    1        9.092  -2.945  -3.006  0.00  0.00    +0.250 A 
ATOM     11  N   LIG    1       10.205  -3.403  -3.489  0.00  0.00    -0.510 NA
ATOM     12  C   LIG    1       10.151  -3.971  -4.679  0.00  0.00    +0.240 A 
ATOM     13  C   LIG    1        8.937  -3.984  -5.233  0.00  0.00    -0.150 A 
ATOM     14  S   LIG    1        7.817  -3.212  -4.114  0.00  0.00    +0.230 S 
ENDBRANCH   2  10
BRANCH   1  16
ATOM     15  C   LIG    1        7.957   0.069   0.047  0.00  0.00    +0.040 C 
ATOM     16  C   LIG    1        7.576  -1.412   0.068  0.00  0.00    +0.190 C 
BRANCH  16  17
ATOM     17  N   LIG    1        6.180  -1.553   0.503  0.00  0.00    -0.520 NA
ATOM     18  C   LIG    1        6.052  -1.321   1.947  0.00  0.00    +0.190 C 
ATOM     19  C   LIG    1        4.617  -1.618   2.388  0.00  0.00    +0.040 C 
ATOM     20  C   LIG    1        3.654  -0.709   1.619  0.00  0.00    +0.230 C 
ATOM     21  C   LIG    1        3.841  -0.934   0.116  0.00  0.00    +0.040 C 
ATOM     22  C   LIG    1        5.299  -0.658  -0.259  0.00  0.00    +0.200 C 
BRANCH  20  23
ATOM     23  N   LIG    1        2.274  -1.028   1.994  0.00  0.00    -0.450 N 
ATOM     24  C   LIG    1        1.369  -0.174   2.562  0.00  0.00    +0.110 A 
ATOM     25  C   LIG    1        0.231  -0.873   2.738  0.00  0.00    +0.140 A 
ATOM     26  N   LIG    1        0.436  -2.119   2.289  0.00  0.00    -0.500 NA
ATOM     27  C   LIG    1        1.658  -2.220   1.841  0.00  0.00    +0.390 A 
ENDBRANCH  20  23
ENDBRANCH  16  17
ENDBRANCH   1  16
TORSDOF 5
