REMARK  Name = ZINCtV00001bB3vg.0
REMARK                            x       y       z     vdW  Elec       q    Type
REMARK                         _______ _______ _______ _____ _____    ______ ____
ROOT
ATOM      1  C   LIG    1        2.429   1.048  -0.015  0.00  0.00    -0.210 A 
ATOM      2  C   LIG    1        2.611  -0.320  -0.018  0.00  0.00    +0.280 A 
ATOM      3  N   LIG    1        3.937  -0.559  -0.038  0.00  0.00    -0.310 N 
ATOM      4  N   LIG    1        4.633   0.653  -0.038  0.00  0.00    -0.270 NA
ATOM      5  C   LIG    1        3.769   1.645  -0.025  0.00  0.00    +0.150 A 
ENDROOT
BRANCH   3   6
ATOM      6  C   LIG    1        4.528  -1.829  -0.050  0.00  0.00    +0.150 A 
ATOM      7  C   LIG    1        3.732  -2.967  -0.043  0.00  0.00    -0.010 A 
ATOM      8  C   LIG    1        4.318  -4.218  -0.061  0.00  0.00    +0.050 A 
ATOM      9  C   LIG    1        5.696  -4.338  -0.073  0.00  0.00    +0.010 A 
ATOM     10  C   LIG    1        6.491  -3.206  -0.075  0.00  0.00    +0.040 A 
ATOM     11  C   LIG    1        5.911  -1.953  -0.063  0.00  0.00    +0.030 A 
ENDBRANCH   3   6
BRANCH   5  12
ATOM     12  C   LIG    1        4.090   3.092  -0.021  0.00  0.00    -0.020 A 
ATOM     13  C   LIG    1        3.273   3.991  -0.706  0.00  0.00    +0.040 A 
ATOM     14  C   LIG    1        3.574   5.338  -0.694  0.00  0.00    +0.010 A 
ATOM     15  C   LIG    1        4.688   5.795  -0.014  0.00  0.00    +0.020 A 
ATOM     16  C   LIG    1        5.505   4.907   0.662  0.00  0.00    +0.010 A 
ATOM     17  C   LIG    1        5.212   3.558   0.662  0.00  0.00    +0.040 A 
ENDBRANCH   5  12
BRANCH   1  19
ATOM     18  C   LIG    1       -0.013   1.076   0.008  0.00  0.00    +0.040 C 
ATOM     19  C   LIG    1        1.146   1.766   0.001  0.00  0.00    +0.150 C 
BRANCH  18  26
ATOM     20 CL   LIG    1       -7.258   3.329   0.056  0.00  0.00    -0.050 Cl
ATOM     21  C   LIG    1       -5.522   3.353   0.047  0.00  0.00    -0.030 A 
ATOM     22  C   LIG    1       -4.849   4.566   0.051  0.00  0.00    +0.060 A 
ATOM     23  C   LIG    1       -3.469   4.602   0.044  0.00  0.00    +0.080 A 
ATOM     24  C   LIG    1       -2.748   3.419   0.034  0.00  0.00    +0.010 A 
ATOM     25  O   LIG    1       -1.426   3.131   0.032  0.00  0.00    -0.210 OA
ATOM     26  C   LIG    1       -1.290   1.790   0.018  0.00  0.00    +0.300 A 
ATOM     27  N   LIG    1       -2.473   1.219   0.020  0.00  0.00    -0.470 NA
ATOM     28  C   LIG    1       -3.424   2.188   0.030  0.00  0.00    +0.040 A 
ATOM     29  C   LIG    1       -4.821   2.166   0.037  0.00  0.00    +0.090 A 
ENDBRANCH  18  26
ENDBRANCH   1  19
TORSDOF 4
