REMARK  Name = ZINCrH000004vHKV.0
REMARK                            x       y       z     vdW  Elec       q    Type
REMARK                         _______ _______ _______ _____ _____    ______ ____
ROOT
ATOM      1  C   LIG    1       -5.420   2.542   0.185  0.00  0.00    +0.560 C 
ATOM      2  N   LIG    1       -6.372   1.590   0.236  0.00  0.00    -0.710 N 
ATOM      3  H   LIG    1       -6.121   0.653   0.264  0.00  0.00    +0.410 HD
ATOM      4  O   LIG    1       -5.736   3.716   0.150  0.00  0.00    -0.540 OA
ENDROOT
BRANCH   1  12
ATOM      5  O   LIG    1        2.103   0.676   0.280  0.00  0.00    -0.540 OA
ATOM      6  C   LIG    1        1.195   1.473   0.172  0.00  0.00    +0.530 C 
ATOM      7  C   LIG    1        1.578   2.909   0.130  0.00  0.00    +0.070 C 
ATOM      8  C   LIG    1        0.565   3.782   0.830  0.00  0.00    +0.040 C 
ATOM      9  C   LIG    1       -0.708   3.954   0.061  0.00  0.00    +0.090 C 
ATOM     10  C   LIG    1       -1.655   2.799   0.106  0.00  0.00    -0.120 A 
ATOM     11  C   LIG    1       -3.005   3.136   0.121  0.00  0.00    +0.120 A 
ATOM     12  C   LIG    1       -3.994   2.160   0.173  0.00  0.00    -0.160 A 
ATOM     13  C   LIG    1       -3.622   0.814   0.212  0.00  0.00    +0.080 A 
ATOM     14  C   LIG    1       -2.293   0.484   0.193  0.00  0.00    -0.040 A 
ATOM     15  C   LIG    1       -1.288   1.468   0.130  0.00  0.00    +0.210 A 
ATOM     16  N   LIG    1       -0.007   0.977   0.106  0.00  0.00    -0.650 N 
ATOM     17  H   LIG    1        0.006   0.012   0.013  0.00  0.00    +0.400 HD
ENDBRANCH   1  12
BRANCH   2  18
ATOM     18  C   LIG    1       -7.787   1.969   0.248  0.00  0.00    +0.290 C 
ATOM     19  C   LIG    1       -8.279   2.162  -1.186  0.00  0.00    +0.020 C 
ATOM     20  C   LIG    1       -7.626   1.157  -2.123  0.00  0.00    +0.010 C 
ATOM     21  C   LIG    1       -8.061  -0.271  -1.872  0.00  0.00    +0.230 C 
ATOM     22  O   LIG    1       -7.625  -0.718  -0.584  0.00  0.00    -0.330 OA
ATOM     23  C   LIG    1       -8.459  -0.432   0.451  0.00  0.00    +0.130 A 
ATOM     24  C   LIG    1       -9.177  -1.453   1.060  0.00  0.00    -0.020 A 
ATOM     25  C   LIG    1      -10.045  -1.158   2.096  0.00  0.00    +0.120 A 
ATOM     26  C   LIG    1      -10.198   0.150   2.526  0.00  0.00    -0.020 A 
ATOM     27  C   LIG    1       -9.475   1.165   1.925  0.00  0.00    +0.080 A 
ATOM     28  F   LIG    1      -10.745  -2.148   2.692  0.00  0.00    -0.130 F 
ATOM     29  C   LIG    1       -8.603   0.868   0.901  0.00  0.00    -0.140 A 
ENDBRANCH   2  18
TORSDOF 2
