REMARK  Name = ZINCah0000006leN.0
REMARK                            x       y       z     vdW  Elec       q    Type
REMARK                         _______ _______ _______ _____ _____    ______ ____
ROOT
ATOM      1  C   LIG    1       -0.879   3.432   1.498  0.00  0.00    +0.050 C 
ENDROOT
BRANCH   1   2
ATOM      2  C   LIG    1       -0.723   1.954   1.250  0.00  0.00    +0.360 C 
ATOM      3  O   LIG    1       -1.164   1.159   2.045  0.00  0.00    -0.440 OA
BRANCH   2   4
ATOM      4  C   LIG    1       -0.018   1.468   0.010  0.00  0.00    +0.200 C 
BRANCH   4   5
ATOM      5  C   LIG    1        0.002  -0.004   0.002  0.00  0.00    +0.200 C 
ATOM      6  N   LIG    1        0.018  -1.140  -0.004  0.00  0.00    -0.410 NA
ENDBRANCH   4   5
ENDBRANCH   2   4
ENDBRANCH   1   2
BRANCH   1   7
ATOM      7  C   LIG    1       -1.625   3.653   2.815  0.00  0.00    +0.030 C 
BRANCH   7   9
ATOM      8  C   LIG    1       -2.636   5.374   4.318  0.00  0.00    +0.020 C 
ATOM      9  C   LIG    1       -1.783   5.154   3.067  0.00  0.00    -0.030 C 
ATOM     10  C   LIG    1       -0.404   5.784   3.272  0.00  0.00    +0.030 C 
ENDBRANCH   7   9
ENDBRANCH   1   7
TORSDOF 5
