REMARK  Name = ZINCpk00000e9R7B.0
REMARK                            x       y       z     vdW  Elec       q    Type
REMARK                         _______ _______ _______ _____ _____    ______ ____
ROOT
ATOM      1  S   LIG    1       -0.022   1.758   0.012  0.00  0.00    +2.690 S 
ATOM      2  O   LIG    1       -0.560   2.145   1.269  0.00  0.00    -0.950 OA
ATOM      3  O   LIG    1       -0.584   2.158  -1.231  0.00  0.00    -0.950 OA
ENDROOT
BRANCH   1  11
ATOM      4  C   LIG    1       -1.332  -3.065  -2.887  0.00  0.00    +0.220 C 
ATOM      5  N   LIG    1        0.009  -2.965  -2.297  0.00  0.00    -0.500 N 
ATOM      6  C   LIG    1        0.473  -4.282  -1.809  0.00  0.00    +0.230 C 
ATOM      7  C   LIG    1        0.070  -4.251  -0.317  0.00  0.00    +0.070 C 
ATOM      8  C   LIG    1        0.043  -2.767  -0.007  0.00  0.00    -0.080 A 
ATOM      9  C   LIG    1        0.044  -2.082   1.190  0.00  0.00    +0.020 A 
ATOM     10  C   LIG    1        0.023  -0.699   1.197  0.00  0.00    +0.110 A 
ATOM     11  C   LIG    1        0.002  -0.004   0.002  0.00  0.00    -0.660 A 
ATOM     12  C   LIG    1       -0.006  -0.685  -1.198  0.00  0.00    +0.130 A 
ATOM     13  C   LIG    1        0.017  -2.078  -1.214  0.00  0.00    +0.070 A 
ENDBRANCH   1  11
BRANCH   1  14
ATOM     14  N   LIG    1        1.553   2.269  -0.001  0.00  0.00    -1.000 NA
ATOM     15  C   LIG    1        2.261   2.510  -1.268  0.00  0.00    +0.270 C 
ATOM     16  C   LIG    1        3.600   1.764  -1.223  0.00  0.00    +0.220 C 
ATOM     17  O   LIG    1        4.298   2.121  -0.027  0.00  0.00    -0.360 OA
ATOM     18  C   LIG    1        3.623   1.752   1.177  0.00  0.00    +0.150 C 
ATOM     19  C   LIG    1        2.284   2.503   1.255  0.00  0.00    +0.280 C 
BRANCH  18  20
ATOM     20  C   LIG    1        4.487   2.125   2.383  0.00  0.00    +0.200 C 
BRANCH  20  21
ATOM     21  O   LIG    1        5.686   1.348   2.369  0.00  0.00    -0.380 OA
BRANCH  21  22
ATOM     22  C   LIG    1        6.569   1.621   3.459  0.00  0.00    +0.200 C 
BRANCH  22  23
ATOM     23  C   LIG    1        7.812   0.737   3.342  0.00  0.00    -0.040 C 
ATOM     24  C   LIG    1        8.058  -0.286   4.453  0.00  0.00    +0.010 C 
ATOM     25  C   LIG    1        8.937   0.963   4.354  0.00  0.00    +0.030 C 
ENDBRANCH  22  23
ENDBRANCH  21  22
ENDBRANCH  20  21
ENDBRANCH  18  20
ENDBRANCH   1  14
TORSDOF 6
