REMARK  Name = ZINCqH0000067Wqj.0
REMARK                            x       y       z     vdW  Elec       q    Type
REMARK                         _______ _______ _______ _____ _____    ______ ____
ROOT
ATOM      1  C   LIG    1       -0.712   2.183  -2.433  0.00  0.00    +0.220 A 
ATOM      2  C   LIG    1       -1.514   2.582  -3.493  0.00  0.00    -0.080 A 
ATOM      3  C   LIG    1       -2.863   2.796  -3.288  0.00  0.00    +0.050 A 
ATOM      4  C   LIG    1       -3.407   2.614  -2.033  0.00  0.00    -0.050 A 
ATOM      5  C   LIG    1       -2.609   2.216  -0.969  0.00  0.00    -0.070 A 
ATOM      6  C   LIG    1       -3.252   2.041   0.382  0.00  0.00    +0.280 C 
ATOM      7  N   LIG    1       -2.390   1.244   1.261  0.00  0.00    -0.520 NA
ATOM      8  C   LIG    1       -1.037   1.818   1.301  0.00  0.00    +0.230 C 
ATOM      9  C   LIG    1       -0.359   1.561  -0.045  0.00  0.00    +0.040 C 
ATOM     10  C   LIG    1       -1.264   1.999  -1.167  0.00  0.00    -0.150 A 
ENDROOT
BRANCH   1  11
ATOM     11  N   LIG    1        0.653   1.964  -2.637  0.00  0.00    -0.740 N 
ATOM     12  H   LIG    1        1.214   1.685  -1.897  0.00  0.00    +0.400 HD
BRANCH  11  13
ATOM     13  C   LIG    1        1.235   2.157  -3.967  0.00  0.00    +0.380 C 
BRANCH  13  17
ATOM     14  C   LIG    1        5.165   1.761  -3.749  0.00  0.00    -0.210 A 
ATOM     15  C   LIG    1        4.551   0.612  -4.044  0.00  0.00    +0.210 A 
ATOM     16  N   LIG    1        3.238   0.699  -4.126  0.00  0.00    -0.450 NA
ATOM     17  C   LIG    1        2.712   1.859  -3.917  0.00  0.00    +0.010 A 
ATOM     18  S   LIG    1        3.932   3.009  -3.582  0.00  0.00    +0.180 S 
BRANCH  14  19
ATOM     19  C   LIG    1        6.651   1.957  -3.593  0.00  0.00    +0.280 C 
BRANCH  19  21
ATOM     20  C   LIG    1        8.634   2.741  -4.739  0.00  0.00    +0.190 C 
ATOM     21  N   LIG    1        7.238   2.312  -4.892  0.00  0.00    -0.540 NA
ATOM     22  C   LIG    1        7.131   1.195  -5.840  0.00  0.00    +0.190 C 
ENDBRANCH  19  21
ENDBRANCH  14  19
ENDBRANCH  13  17
ENDBRANCH  11  13
ENDBRANCH   1  11
BRANCH   7  23
ATOM     23  C   LIG    1       -2.354  -0.160   0.831  0.00  0.00    +0.210 C 
BRANCH  23  24
ATOM     24  C   LIG    1       -1.792  -1.025   1.961  0.00  0.00    +0.460 C 
ATOM     25  F   LIG    1       -0.453  -0.687   2.185  0.00  0.00    -0.180 F 
ATOM     26  F   LIG    1       -1.879  -2.374   1.603  0.00  0.00    -0.180 F 
ATOM     27  F   LIG    1       -2.530  -0.804   3.129  0.00  0.00    -0.170 F 
ENDBRANCH  23  24
ENDBRANCH   7  23
TORSDOF 7
