REMARK  Name = ZINCtV00000L6kZO.0
REMARK                            x       y       z     vdW  Elec       q    Type
REMARK                         _______ _______ _______ _____ _____    ______ ____
ROOT
ATOM      1  C   LIG    1       -1.237   3.953   0.341  0.00  0.00    -0.060 A 
ATOM      2  C   LIG    1        0.053   4.435   0.238  0.00  0.00    +0.250 A 
ATOM      3  C   LIG    1        1.118   3.555   0.159  0.00  0.00    -0.700 A 
ATOM      4  C   LIG    1        0.895   2.191   0.182  0.00  0.00    +0.210 A 
ATOM      5  C   LIG    1       -0.393   1.702   0.284  0.00  0.00    +0.000 A 
ATOM      6  C   LIG    1       -1.465   2.582   0.358  0.00  0.00    -0.000 A 
ENDROOT
BRANCH   1   8
ATOM      7  O   LIG    1       -2.174   6.096   0.405  0.00  0.00    -0.150 OA
ATOM      8  N   LIG    1       -2.375   4.895   0.426  0.00  0.00    +0.030 N 
ATOM      9  O   LIG    1       -3.513   4.469   0.517  0.00  0.00    -0.140 OA
ENDBRANCH   1   8
BRANCH   3  10
ATOM     10  S   LIG    1        2.762   4.175   0.028  0.00  0.00    +2.700 S 
ATOM     11  O   LIG    1        3.607   3.201   0.625  0.00  0.00    -0.940 OA
ATOM     12  O   LIG    1        2.715   5.530   0.453  0.00  0.00    -0.930 OA
BRANCH  10  13
ATOM     13  N   LIG    1        3.148   4.204  -1.583  0.00  0.00    -1.060 N 
ATOM     14  H   LIG    1        3.869   3.649  -1.918  0.00  0.00    +0.430 HD
BRANCH  13  15
ATOM     15  C   LIG    1        2.435   5.027  -2.457  0.00  0.00    +0.130 A 
ATOM     16  C   LIG    1        1.518   4.474  -3.342  0.00  0.00    +0.030 A 
ATOM     17  C   LIG    1        0.810   5.291  -4.202  0.00  0.00    +0.050 A 
ATOM     18  C   LIG    1        1.022   6.658  -4.190  0.00  0.00    -0.080 A 
ATOM     19  C   LIG    1        1.939   7.212  -3.314  0.00  0.00    +0.060 A 
ATOM     20 BR   LIG    1        0.057   7.773  -5.374  0.00  0.00    -0.040 Br
ATOM     21  C   LIG    1        2.645   6.400  -2.448  0.00  0.00    +0.050 A 
ENDBRANCH  13  15
ENDBRANCH  10  13
ENDBRANCH   3  10
BRANCH   6  22
ATOM     22  S   LIG    1       -3.110   1.962   0.482  0.00  0.00    +0.070 S 
BRANCH  22  23
ATOM     23  C   LIG    1       -2.870   0.164   0.473  0.00  0.00    +0.090 C 
BRANCH  23  24
ATOM     24  C   LIG    1       -4.208  -0.521   0.575  0.00  0.00    -0.070 A 
ATOM     25  C   LIG    1       -4.910  -0.841  -0.572  0.00  0.00    +0.050 A 
ATOM     26  C   LIG    1       -6.137  -1.470  -0.479  0.00  0.00    +0.030 A 
ATOM     27  C   LIG    1       -6.664  -1.779   0.761  0.00  0.00    +0.040 A 
ATOM     28  C   LIG    1       -5.964  -1.459   1.909  0.00  0.00    +0.030 A 
ATOM     29  C   LIG    1       -4.732  -0.835   1.816  0.00  0.00    -0.020 A 
ATOM     30 CL   LIG    1       -3.849  -0.440   3.257  0.00  0.00    -0.060 Cl
ENDBRANCH  23  24
ENDBRANCH  22  23
ENDBRANCH   6  22
TORSDOF 7
