REMARK  Name = ZINCpe000000Yanh.0
REMARK                            x       y       z     vdW  Elec       q    Type
REMARK                         _______ _______ _______ _____ _____    ______ ____
ROOT
ATOM      1  C   LIG    1       -2.742   0.518  -2.153  0.00  0.00    +0.520 C 
ATOM      2  N   LIG    1       -2.154   1.194  -1.146  0.00  0.00    -0.620 N 
ATOM      3  C   LIG    1       -0.743   1.591  -1.235  0.00  0.00    +0.280 C 
ATOM      4  C   LIG    1       -0.007   1.080   0.008  0.00  0.00    +0.040 C 
ATOM      5  C   LIG    1       -0.724   1.583   1.263  0.00  0.00    -0.010 C 
ATOM      6  C   LIG    1       -2.154   1.039   1.289  0.00  0.00    +0.040 C 
ATOM      7  C   LIG    1       -2.913   1.550   0.061  0.00  0.00    +0.280 C 
ATOM      8  O   LIG    1       -2.105   0.231  -3.144  0.00  0.00    -0.520 OA
ENDROOT
BRANCH   5   9
ATOM      9  C   LIG    1        0.017   1.111   2.488  0.00  0.00    +0.520 C 
ATOM     10  N   LIG    1        0.076   1.893   3.584  0.00  0.00    -0.620 N 
ATOM     11  C   LIG    1       -0.667   3.161   3.647  0.00  0.00    +0.280 C 
ATOM     12  C   LIG    1       -1.484   3.176   4.948  0.00  0.00    +0.170 C 
ATOM     13  N   LIG    1       -0.589   2.923   6.086  0.00  0.00    -0.540 NA
ATOM     14  C   LIG    1        0.015   1.587   6.002  0.00  0.00    +0.170 C 
ATOM     15  C   LIG    1       -1.296   3.102   7.361  0.00  0.00    +0.190 C 
ATOM     16  C   LIG    1        0.889   1.504   4.746  0.00  0.00    +0.290 C 
ATOM     17  O   LIG    1        0.560   0.026   2.487  0.00  0.00    -0.530 OA
ENDBRANCH   5   9
BRANCH   1  18
ATOM     18  C   LIG    1       -4.191   0.118  -2.047  0.00  0.00    +0.160 C 
BRANCH  18  25
ATOM     19  C   LIG    1       -5.436   1.365  -4.771  0.00  0.00    +0.160 C 
ATOM     20  C   LIG    1       -5.144  -0.086  -4.485  0.00  0.00    +0.030 A 
ATOM     21  N   LIG    1       -5.339  -1.094  -5.286  0.00  0.00    -0.360 NA
ATOM     22  O   LIG    1       -5.012  -2.139  -4.773  0.00  0.00    +0.100 OA
ATOM     23  C   LIG    1       -4.540  -1.954  -3.533  0.00  0.00    -0.010 A 
ATOM     24  C   LIG    1       -4.039  -3.017  -2.589  0.00  0.00    +0.190 C 
ATOM     25  C   LIG    1       -4.601  -0.622  -3.294  0.00  0.00    -0.190 A 
ENDBRANCH  18  25
ENDBRANCH   1  18
TORSDOF 3
