REMARK  Name = ZINCAx0000000foC.0
REMARK                            x       y       z     vdW  Elec       q    Type
REMARK                         _______ _______ _______ _____ _____    ______ ____
ROOT
ATOM      1  C   LIG    1       -5.714   5.375  -7.864  0.00  0.00    +0.530 C 
ATOM      2  N   LIG    1       -5.907   4.055  -8.055  0.00  0.00    -0.660 N 
ATOM      3  H   LIG    1       -5.464   3.412  -7.480  0.00  0.00    +0.420 HD
ATOM      4  O   LIG    1       -6.200   6.177  -8.633  0.00  0.00    -0.500 OA
ENDROOT
BRANCH   2   5
ATOM      5  C   LIG    1       -6.747   3.613  -9.083  0.00  0.00    +0.110 A 
ATOM      6  C   LIG    1       -7.520   2.473  -8.908  0.00  0.00    +0.050 A 
ATOM      7  C   LIG    1       -8.353   2.042  -9.923  0.00  0.00    +0.010 A 
ATOM      8  C   LIG    1       -8.408   2.738 -11.116  0.00  0.00    +0.160 A 
ATOM      9  C   LIG    1       -7.634   3.870 -11.296  0.00  0.00    -0.650 A 
ATOM     10  C   LIG    1       -6.804   4.309 -10.284  0.00  0.00    +0.130 A 
BRANCH   9  11
ATOM     11  S   LIG    1       -7.707   4.753 -12.819  0.00  0.00    +2.690 S 
ATOM     12  O   LIG    1       -7.291   6.082 -12.533  0.00  0.00    -0.950 OA
ATOM     13  O   LIG    1       -8.965   4.442 -13.403  0.00  0.00    -0.920 OA
BRANCH  11  14
ATOM     14  N   LIG    1       -6.555   4.106 -13.817  0.00  0.00    -1.030 N 
ATOM     15  H   LIG    1       -5.800   4.645 -14.099  0.00  0.00    +0.430 HD
BRANCH  14  16
ATOM     16  C   LIG    1       -6.668   2.809 -14.244  0.00  0.00    +0.400 C 
ATOM     17  N   LIG    1       -7.663   2.101 -13.865  0.00  0.00    -0.580 NA
ATOM     18  C   LIG    1       -7.803   0.707 -14.315  0.00  0.00    +0.220 C 
ATOM     19  C   LIG    1       -8.198   0.699 -15.792  0.00  0.00    +0.000 C 
ATOM     20  C   LIG    1       -6.965   0.762 -16.679  0.00  0.00    +0.010 C 
ATOM     21  C   LIG    1       -6.206   2.073 -16.558  0.00  0.00    +0.030 C 
ATOM     22  C   LIG    1       -5.612   2.223 -15.155  0.00  0.00    +0.070 C 
ENDBRANCH  14  16
ENDBRANCH  11  14
ENDBRANCH   9  11
ENDBRANCH   2   5
BRANCH   1  23
ATOM     23  C   LIG    1       -4.894   5.855  -6.694  0.00  0.00    +0.120 C 
BRANCH  23  24
ATOM     24  S   LIG    1       -4.820   7.663  -6.710  0.00  0.00    +0.080 S 
BRANCH  24  29
ATOM     25  N   LIG    1       -3.438   9.153  -4.787  0.00  0.00    -0.300 N 
ATOM     26  C   LIG    1       -2.693   8.877  -3.674  0.00  0.00    +0.220 A 
ATOM     27  N   LIG    1       -2.659   7.581  -3.542  0.00  0.00    -0.270 NA
ATOM     28  N   LIG    1       -3.333   7.024  -4.483  0.00  0.00    -0.280 NA
ATOM     29  C   LIG    1       -3.831   7.942  -5.279  0.00  0.00    +0.100 A 
BRANCH  25  30
ATOM     30  N   LIG    1       -3.729  10.385  -5.300  0.00  0.00    -0.580 N 
ATOM     31  H   LIG    1       -4.648  10.396  -5.715  0.00  0.00    +0.380 HD
ATOM     32  H   LIG    1       -3.027  10.674  -5.965  0.00  0.00    +0.370 HD
ENDBRANCH  25  30
BRANCH  26  33
ATOM     33  C   LIG    1       -2.030   9.884  -2.770  0.00  0.00    +0.220 C 
BRANCH  33  34
ATOM     34  C   LIG    1       -2.983  10.276  -1.670  0.00  0.00    -0.130 A 
ATOM     35  C   LIG    1       -2.861   9.709  -0.416  0.00  0.00    +0.070 A 
ATOM     36  C   LIG    1       -3.734  10.069   0.594  0.00  0.00    +0.000 A 
ATOM     37  C   LIG    1       -4.730  10.996   0.350  0.00  0.00    +0.040 A 
ATOM     38  C   LIG    1       -4.854  11.564  -0.904  0.00  0.00    -0.020 A 
ATOM     39  C   LIG    1       -3.984  11.200  -1.917  0.00  0.00    +0.110 A 
ATOM     40  F   LIG    1       -4.108  11.751  -3.144  0.00  0.00    -0.120 F 
ENDBRANCH  33  34
ENDBRANCH  26  33
ENDBRANCH  24  29
ENDBRANCH  23  24
ENDBRANCH   1  23
TORSDOF 10
