REMARK  Name = ZINCrg00001Jdv8l.0
REMARK                            x       y       z     vdW  Elec       q    Type
REMARK                         _______ _______ _______ _____ _____    ______ ____
ROOT
ATOM      1  C   LIG    1        3.099   0.976  -1.269  0.00  0.00    +0.190 C 
ENDROOT
BRANCH   1   2
ATOM      2  N   LIG    1        4.204   1.081  -0.307  0.00  0.00    -0.510 NA
ATOM      3  C   LIG    1        5.378   0.345  -0.774  0.00  0.00    +0.160 C 
ATOM      4  C   LIG    1        6.668   0.924  -0.352  0.00  0.00    +0.030 C 
ATOM      5  C   LIG    1        6.769   0.903   1.194  0.00  0.00    +0.270 C 
ATOM      6  N   LIG    1        5.832   1.853   1.753  0.00  0.00    -0.590 N 
ATOM      7  C   LIG    1        4.436   1.502   2.089  0.00  0.00    +0.280 C 
ATOM      8  C   LIG    1        6.250   3.115   1.976  0.00  0.00    +0.530 C 
ATOM      9  O   LIG    1        5.463   3.956   2.357  0.00  0.00    -0.530 OA
ATOM     10  C   LIG    1        3.799   0.616   1.003  0.00  0.00    +0.170 C 
BRANCH   8  11
ATOM     11  C   LIG    1        7.694   3.481   1.750  0.00  0.00    -0.040 C 
ATOM     12  C   LIG    1        7.851   5.013   1.548  0.00  0.00    +0.050 C 
ATOM     13  C   LIG    1        9.298   5.231   2.058  0.00  0.00    +0.200 C 
ATOM     14  O   LIG    1        9.447   4.323   3.161  0.00  0.00    -0.380 OA
ATOM     15  C   LIG    1        8.529   3.232   3.025  0.00  0.00    +0.210 C 
ENDBRANCH   8  11
ENDBRANCH   1   2
BRANCH   1  18
ATOM     16  C   LIG    1       -0.486   1.716  -0.334  0.00  0.00    +0.130 A 
ATOM     17  C   LIG    1        0.617   1.078  -0.870  0.00  0.00    -0.040 A 
ATOM     18  C   LIG    1        1.872   1.640  -0.699  0.00  0.00    -0.040 A 
ATOM     19  C   LIG    1        1.972   2.829   0.008  0.00  0.00    +0.000 A 
ATOM     20  C   LIG    1        0.825   3.409   0.515  0.00  0.00    +0.270 A 
ATOM     21  N   LIG    1       -0.353   2.845   0.333  0.00  0.00    -0.470 NA
BRANCH  16  23
ATOM     22  C   LIG    1       -2.514   0.928   0.856  0.00  0.00    +0.040 C 
ATOM     23  C   LIG    1       -1.855   1.113  -0.513  0.00  0.00    +0.090 C 
ENDBRANCH  16  23
ENDBRANCH   1  18
BRANCH   1  24
ATOM     24  C   LIG    1        3.487   1.657  -2.556  0.00  0.00    +0.520 C 
ATOM     25  N   LIG    1        2.623   1.686  -3.590  0.00  0.00    -0.730 N 
ATOM     26  H   LIG    1        1.752   1.269  -3.505  0.00  0.00    +0.400 HD
ATOM     27  C   LIG    1        3.001   2.348  -4.841  0.00  0.00    +0.290 C 
ATOM     28  O   LIG    1        4.577   2.179  -2.661  0.00  0.00    -0.510 OA
ENDBRANCH   1  24
TORSDOF 5
