REMARK  Name = ZINCqH0000000hEX.0
REMARK                            x       y       z     vdW  Elec       q    Type
REMARK                         _______ _______ _______ _____ _____    ______ ____
ROOT
ATOM      1  N   LIG    1        6.379  -2.080   6.744  0.00  0.00    -0.670 N 
ATOM      2  H   LIG    1        5.961  -2.752   7.304  0.00  0.00    +0.410 HD
ATOM      3  C   LIG    1        5.952  -1.896   5.479  0.00  0.00    +0.520 C 
ATOM      4  O   LIG    1        6.405  -0.990   4.811  0.00  0.00    -0.500 OA
ENDROOT
BRANCH   1  10
ATOM      5  C   LIG    1        7.540  -1.085   8.625  0.00  0.00    -0.120 A 
ATOM      6  C   LIG    1        8.583  -0.316   9.119  0.00  0.00    +0.020 A 
ATOM      7  C   LIG    1        9.500   0.246   8.250  0.00  0.00    +0.010 A 
ATOM      8  C   LIG    1        9.384   0.039   6.888  0.00  0.00    +0.030 A 
ATOM      9  C   LIG    1        8.351  -0.732   6.387  0.00  0.00    +0.040 A 
ATOM     10  C   LIG    1        7.427  -1.299   7.250  0.00  0.00    +0.170 A 
BRANCH   5  11
ATOM     11  S   LIG    1        6.365  -1.796   9.729  0.00  0.00    -0.120 S 
BRANCH  11  12
ATOM     12  C   LIG    1        6.941  -1.234  11.355  0.00  0.00    +0.120 C 
BRANCH  12  14
ATOM     13  C   LIG    1        6.477  -2.623  13.308  0.00  0.00    +0.050 C 
ATOM     14  C   LIG    1        6.024  -1.768  12.425  0.00  0.00    -0.030 C 
ENDBRANCH  12  14
ENDBRANCH  11  12
ENDBRANCH   5  11
ENDBRANCH   1  10
BRANCH   3  15
ATOM     15  C   LIG    1        4.913  -2.817   4.893  0.00  0.00    +0.220 C 
BRANCH  15  16
ATOM     16  N   LIG    1        4.620  -2.410   3.513  0.00  0.00    -0.520 NA
ATOM     17  C   LIG    1        3.794  -3.416   2.831  0.00  0.00    +0.190 C 
ATOM     18  C   LIG    1        3.579  -2.994   1.375  0.00  0.00    +0.190 C 
ATOM     19  N   LIG    1        2.932  -1.675   1.341  0.00  0.00    -0.540 NA
ATOM     20  C   LIG    1        3.758  -0.669   2.022  0.00  0.00    +0.190 C 
ATOM     21  C   LIG    1        3.974  -1.091   3.478  0.00  0.00    +0.190 C 
BRANCH  19  22
ATOM     22  C   LIG    1        2.640  -1.268  -0.040  0.00  0.00    +0.280 C 
BRANCH  22  23
ATOM     23  C   LIG    1        1.766  -0.041  -0.028  0.00  0.00    -0.170 A 
ATOM     24  C   LIG    1        2.208   1.218  -0.023  0.00  0.00    +0.000 A 
ATOM     25  C   LIG    1        1.217   2.184  -0.011  0.00  0.00    +0.000 A 
ATOM     26  C   LIG    1       -0.030   1.710  -0.005  0.00  0.00    -0.060 A 
ATOM     27  S   LIG    1        0.007  -0.048  -0.016  0.00  0.00    +0.120 S 
ENDBRANCH  22  23
ENDBRANCH  19  22
ENDBRANCH  15  16
ENDBRANCH   3  15
TORSDOF 8
