REMARK  Name = ZINCvU0000000BUi.0
REMARK                            x       y       z     vdW  Elec       q    Type
REMARK                         _______ _______ _______ _____ _____    ______ ____
ROOT
ATOM      1  C   LIG    1        0.171   1.359   0.723  0.00  0.00    -0.180 A 
ATOM      2  C   LIG    1       -0.151   0.348  -0.175  0.00  0.00    +0.410 A 
ATOM      3  N   LIG    1        0.971  -0.128  -0.778  0.00  0.00    -0.460 N 
ATOM      4  C   LIG    1        2.091   0.534  -0.319  0.00  0.00    +0.300 A 
ATOM      5  N   LIG    1        3.376   0.439  -0.590  0.00  0.00    -0.430 NA
ATOM      6  C   LIG    1        4.250   1.240   0.034  0.00  0.00    +0.120 A 
ATOM      7  C   LIG    1        5.625   1.145  -0.249  0.00  0.00    +0.050 A 
ATOM      8  C   LIG    1        6.505   1.962   0.389  0.00  0.00    +0.050 A 
ATOM      9  C   LIG    1        6.067   2.897   1.324  0.00  0.00    +0.040 A 
ATOM     10  C   LIG    1        4.746   3.019   1.625  0.00  0.00    +0.060 A 
ATOM     11  C   LIG    1        3.804   2.191   0.985  0.00  0.00    +0.080 A 
ATOM     12  N   LIG    1        2.502   2.301   1.273  0.00  0.00    -0.390 NA
ATOM     13  C   LIG    1        1.633   1.519   0.665  0.00  0.00    +0.140 A 
ENDROOT
BRANCH   2  14
ATOM     14  N   LIG    1       -1.425  -0.108  -0.419  0.00  0.00    -0.660 N 
ATOM     15  H   LIG    1       -1.698  -0.981  -0.096  0.00  0.00    +0.430 HD
ATOM     16  C   LIG    1       -2.295   0.659  -1.106  0.00  0.00    +0.610 C 
ATOM     17  O   LIG    1       -1.974   1.780  -1.455  0.00  0.00    -0.460 OA
BRANCH  16  18
ATOM     18  C   LIG    1       -3.626   0.143  -1.433  0.00  0.00    -0.070 A 
ATOM     19  C   LIG    1       -4.600   0.812  -2.121  0.00  0.00    +0.080 A 
ATOM     20  C   LIG    1       -5.701  -0.052  -2.203  0.00  0.00    +0.010 A 
ATOM     21  C   LIG    1       -5.357  -1.198  -1.570  0.00  0.00    +0.010 A 
ATOM     22 BR   LIG    1       -6.461  -2.721  -1.372  0.00  0.00    +0.070 Br
ATOM     23  O   LIG    1       -4.104  -1.077  -1.112  0.00  0.00    -0.150 OA
ENDBRANCH  16  18
ENDBRANCH   2  14
BRANCH   1  24
ATOM     24  C   LIG    1       -0.732   2.095   1.531  0.00  0.00    +0.560 C 
ATOM     25  O   LIG    1       -0.994   1.712   2.656  0.00  0.00    -0.490 OA
BRANCH  24  26
ATOM     26  O   LIG    1       -1.300   3.222   1.053  0.00  0.00    -0.330 OA
BRANCH  26  28
ATOM     27  C   LIG    1       -2.740   5.157   1.212  0.00  0.00    +0.070 C 
ATOM     28  C   LIG    1       -2.200   3.914   1.922  0.00  0.00    +0.200 C 
ENDBRANCH  26  28
ENDBRANCH  24  26
ENDBRANCH   1  24
BRANCH   3  29
ATOM     29  C   LIG    1        0.989  -1.198  -1.778  0.00  0.00    +0.230 C 
ATOM     30  C   LIG    1        1.497  -0.643  -3.110  0.00  0.00    +0.050 C 
BRANCH  29  31
ATOM     31  C   LIG    1        1.914  -2.321  -1.307  0.00  0.00    +0.040 C 
ATOM     32  C   LIG    1        1.339  -2.959  -0.041  0.00  0.00    +0.020 C 
ENDBRANCH  29  31
ENDBRANCH   3  29
TORSDOF 7
