REMARK  Name = ZINCrD00000l8mX2.0
REMARK                            x       y       z     vdW  Elec       q    Type
REMARK                         _______ _______ _______ _____ _____    ______ ____
ROOT
ATOM      1  O   LIG    1        5.744   2.017   1.869  0.00  0.00    -0.330 OA
ENDROOT
BRANCH   1   2
ATOM      2  C   LIG    1        6.704   1.795   2.781  0.00  0.00    +0.470 C 
ATOM      3  O   LIG    1        6.473   1.107   3.747  0.00  0.00    -0.500 OA
BRANCH   2   4
ATOM      4  C   LIG    1        8.070   2.406   2.600  0.00  0.00    +0.120 C 
BRANCH   4   5
ATOM      5  C   LIG    1        8.969   2.001   3.770  0.00  0.00    +0.060 C 
BRANCH   5   6
ATOM      6  C   LIG    1       10.355   2.621   3.587  0.00  0.00    +0.150 C 
BRANCH   6   7
ATOM      7  C   LIG    1       11.241   2.221   4.739  0.00  0.00    +0.090 A 
ATOM      8  N   LIG    1       11.971   1.171   4.755  0.00  0.00    -0.460 NA
ATOM      9  C   LIG    1       12.717   0.940   5.853  0.00  0.00    +0.080 A 
ATOM     10  C   LIG    1       13.602  -0.120   6.133  0.00  0.00    +0.080 A 
ATOM     11  C   LIG    1       14.263  -0.170   7.322  0.00  0.00    +0.030 A 
ATOM     12  C   LIG    1       14.081   0.818   8.279  0.00  0.00    +0.040 A 
ATOM     13  C   LIG    1       13.223   1.867   8.032  0.00  0.00    +0.060 A 
ATOM     14  C   LIG    1       12.537   1.935   6.821  0.00  0.00    -0.180 A 
ATOM     15  S   LIG    1       11.389   3.109   6.189  0.00  0.00    +0.100 S 
ENDBRANCH   6   7
ENDBRANCH   5   6
ENDBRANCH   4   5
ENDBRANCH   2   4
ENDBRANCH   1   2
BRANCH   1  16
ATOM     16  C   LIG    1        4.453   1.397   2.108  0.00  0.00    +0.270 C 
BRANCH  16  18
ATOM     17  O   LIG    1        3.888   2.461   0.080  0.00  0.00    -0.440 OA
ATOM     18  C   LIG    1        3.509   1.754   0.989  0.00  0.00    +0.510 C 
ATOM     19  N   LIG    1        2.245   1.288   0.998  0.00  0.00    -0.690 N 
ATOM     20  H   LIG    1        1.942   0.722   1.726  0.00  0.00    +0.420 HD
ATOM     21  C   LIG    1        1.401   1.607  -0.003  0.00  0.00    +0.510 C 
ATOM     22  O   LIG    1        1.779   2.315  -0.912  0.00  0.00    -0.460 OA
BRANCH  21  23
ATOM     23  C   LIG    1       -0.013   1.086   0.008  0.00  0.00    +0.010 C 
ATOM     24  C   LIG    1       -0.729   1.579   1.267  0.00  0.00    +0.030 C 
ATOM     25  C   LIG    1       -2.164   1.050   1.278  0.00  0.00    +0.020 C 
ATOM     26  C   LIG    1       -2.904   1.556   0.038  0.00  0.00    +0.010 C 
ATOM     27  C   LIG    1       -2.188   1.063  -1.221  0.00  0.00    +0.010 C 
ATOM     28  C   LIG    1       -0.753   1.593  -1.232  0.00  0.00    +0.040 C 
ENDBRANCH  21  23
ENDBRANCH  16  18
ENDBRANCH   1  16
TORSDOF 8
