REMARK  Name = ZINCvU00000004CF.0
REMARK                            x       y       z     vdW  Elec       q    Type
REMARK                         _______ _______ _______ _____ _____    ______ ____
ROOT
ATOM      1  C   LIG    1       -6.019  -0.037   1.862  0.00  0.00    +0.250 C 
ATOM      2  N   LIG    1       -6.249  -1.133   2.488  0.00  0.00    -0.460 NA
ATOM      3  C   LIG    1       -7.450  -1.715   2.725  0.00  0.00    +0.110 A 
ATOM      4  C   LIG    1       -7.571  -2.660   3.751  0.00  0.00    +0.060 A 
ATOM      5  C   LIG    1       -8.790  -3.252   4.006  0.00  0.00    +0.020 A 
ATOM      6  C   LIG    1       -9.905  -2.921   3.256  0.00  0.00    +0.030 A 
ATOM      7  C   LIG    1       -9.805  -1.992   2.236  0.00  0.00    +0.050 A 
ATOM      8  C   LIG    1       -8.587  -1.393   1.967  0.00  0.00    -0.110 A 
ATOM      9  S   LIG    1       -8.438  -0.212   0.663  0.00  0.00    -0.050 S 
ATOM     10  C   LIG    1       -7.099   0.846   1.293  0.00  0.00    +0.140 C 
ENDROOT
BRANCH  10  11
ATOM     11  C   LIG    1       -7.634   1.752   2.373  0.00  0.00    +0.280 A 
ATOM     12  N   LIG    1       -8.115   1.348   3.512  0.00  0.00    -0.460 NA
ATOM     13  C   LIG    1       -8.504   2.421   4.249  0.00  0.00    +0.050 A 
ATOM     14  C   LIG    1       -9.072   2.564   5.517  0.00  0.00    +0.070 A 
ATOM     15  C   LIG    1       -9.365   3.810   5.995  0.00  0.00    +0.000 A 
ATOM     16  C   LIG    1       -9.103   4.940   5.233  0.00  0.00    +0.040 A 
ATOM     17  C   LIG    1       -8.543   4.823   3.979  0.00  0.00    +0.020 A 
ATOM     18  C   LIG    1       -8.239   3.565   3.477  0.00  0.00    +0.060 A 
ATOM     19  N   LIG    1       -7.689   3.109   2.296  0.00  0.00    -0.590 N 
ATOM     20  H   LIG    1       -7.396   3.654   1.549  0.00  0.00    +0.420 HD
ENDBRANCH  10  11
BRANCH   1  23
ATOM     21  C   LIG    1       -3.004   1.953   0.843  0.00  0.00    +0.150 A 
ATOM     22  C   LIG    1       -4.320   1.563   1.003  0.00  0.00    -0.080 A 
ATOM     23  C   LIG    1       -4.619   0.379   1.685  0.00  0.00    +0.010 A 
ATOM     24  C   LIG    1       -3.583  -0.410   2.196  0.00  0.00    -0.030 A 
ATOM     25  C   LIG    1       -2.269  -0.017   2.027  0.00  0.00    +0.150 A 
ATOM     26  C   LIG    1       -1.975   1.163   1.348  0.00  0.00    +0.050 A 
BRANCH  21  28
ATOM     27  C   LIG    1       -3.817   3.870  -0.307  0.00  0.00    +0.240 C 
ATOM     28  O   LIG    1       -2.713   3.108   0.185  0.00  0.00    -0.300 OA
ENDBRANCH  21  28
BRANCH  25  29
ATOM     29  O   LIG    1       -1.261  -0.783   2.524  0.00  0.00    -0.300 OA
ATOM     30  C   LIG    1       -1.634  -1.980   3.210  0.00  0.00    +0.250 C 
ENDBRANCH  25  29
BRANCH  26  31
ATOM     31  O   LIG    1       -0.682   1.547   1.184  0.00  0.00    -0.310 OA
ATOM     32  C   LIG    1       -0.013   1.086   0.008  0.00  0.00    +0.230 C 
ENDBRANCH  26  31
ENDBRANCH   1  23
TORSDOF 5
