REMARK  Name = ZINCrg00000fS7Xa.0
REMARK                            x       y       z     vdW  Elec       q    Type
REMARK                         _______ _______ _______ _____ _____    ______ ____
ROOT
ATOM      1  C   LIG    1        8.039   3.489   0.571  0.00  0.00    +0.520 C 
ATOM      2  N   LIG    1        7.588   2.913   1.703  0.00  0.00    -0.670 N 
ATOM      3  H   LIG    1        6.646   2.961   1.930  0.00  0.00    +0.410 HD
ATOM      4  O   LIG    1        9.197   3.349   0.239  0.00  0.00    -0.490 OA
ENDROOT
BRANCH   2   5
ATOM      5  C   LIG    1        8.481   2.245   2.552  0.00  0.00    +0.120 A 
ATOM      6  C   LIG    1        8.051   1.147   3.285  0.00  0.00    +0.010 A 
ATOM      7  C   LIG    1        8.931   0.485   4.117  0.00  0.00    -0.020 A 
ATOM      8  C   LIG    1       10.244   0.925   4.231  0.00  0.00    +0.100 A 
ATOM      9  C   LIG    1       10.672   2.027   3.502  0.00  0.00    +0.010 A 
ATOM     10  C   LIG    1        9.793   2.685   2.666  0.00  0.00    +0.050 A 
BRANCH   8  11
ATOM     11  N   LIG    1       11.135   0.258   5.078  0.00  0.00    -0.490 N 
ATOM     12  C   LIG    1       12.325  -0.194   4.342  0.00  0.00    +0.160 C 
ATOM     13  C   LIG    1       13.297  -0.864   5.316  0.00  0.00    +0.220 C 
ATOM     14  O   LIG    1       12.631  -1.941   5.981  0.00  0.00    -0.380 OA
ATOM     15  C   LIG    1       11.468  -1.537   6.709  0.00  0.00    +0.220 C 
ATOM     16  C   LIG    1       10.477  -0.874   5.749  0.00  0.00    +0.160 C 
ENDBRANCH   8  11
ENDBRANCH   2   5
BRANCH   1  18
ATOM     17  C   LIG    1        6.656   5.546   0.495  0.00  0.00    +0.070 C 
ATOM     18  C   LIG    1        7.104   4.307  -0.282  0.00  0.00    +0.190 C 
BRANCH  18  19
ATOM     19  O   LIG    1        7.789   4.717  -1.495  0.00  0.00    -0.300 OA
BRANCH  19  20
ATOM     20  C   LIG    1        7.033   4.885  -2.598  0.00  0.00    +0.540 C 
ATOM     21  O   LIG    1        5.835   4.693  -2.548  0.00  0.00    -0.510 OA
BRANCH  20  22
ATOM     22  C   LIG    1        7.662   5.301  -3.867  0.00  0.00    -0.040 A 
ATOM     23  N   LIG    1        8.985   5.399  -3.957  0.00  0.00    -0.350 NA
ATOM     24  C   LIG    1        9.543   5.770  -5.091  0.00  0.00    +0.170 A 
ATOM     25  C   LIG    1        8.756   6.061  -6.197  0.00  0.00    +0.330 A 
ATOM     26  N   LIG    1        7.441   5.969  -6.123  0.00  0.00    -0.500 NA
ATOM     27  C   LIG    1        6.865   5.595  -4.986  0.00  0.00    +0.420 A 
BRANCH  27  28
ATOM     28  N   LIG    1        5.489   5.497  -4.904  0.00  0.00    -0.820 N 
ATOM     29  H   LIG    1        5.050   5.536  -4.040  0.00  0.00    +0.420 HD
ATOM     30  H   LIG    1        4.961   5.390  -5.711  0.00  0.00    +0.410 HD
ENDBRANCH  27  28
ENDBRANCH  20  22
ENDBRANCH  19  20
ENDBRANCH  18  19
ENDBRANCH   1  18
TORSDOF 7
