REMARK  Name = ZINCqH0000050uwx.0
REMARK                            x       y       z     vdW  Elec       q    Type
REMARK                         _______ _______ _______ _____ _____    ______ ____
ROOT
ATOM      1  C   LIG    1        2.071   3.851  -0.160  0.00  0.00    +0.360 C 
ATOM      2  C   LIG    1        2.743   4.796  -1.160  0.00  0.00    +0.040 C 
ATOM      3  C   LIG    1        1.663   5.559  -1.936  0.00  0.00    -0.010 C 
ATOM      4  C   LIG    1        0.826   6.395  -0.965  0.00  0.00    +0.020 C 
ATOM      5  C   LIG    1        0.135   5.465   0.038  0.00  0.00    +0.260 C 
ATOM      6  C   LIG    1        2.328   6.481  -2.960  0.00  0.00    +0.030 C 
ATOM      7  N   LIG    1        1.153   4.627   0.685  0.00  0.00    -0.600 N 
ATOM      8  C   LIG    1        1.244   4.571   2.029  0.00  0.00    +0.600 C 
ATOM      9  O   LIG    1        2.046   3.823   2.553  0.00  0.00    -0.530 OA
ENDROOT
BRANCH   1  14
ATOM     10  C   LIG    1       -1.597   1.565  -2.761  0.00  0.00    +0.170 C 
ATOM     11  C   LIG    1       -0.296   1.799  -2.036  0.00  0.00    -0.020 A 
ATOM     12  C   LIG    1        0.682   0.892  -1.863  0.00  0.00    -0.060 A 
ATOM     13  C   LIG    1        1.710   1.533  -1.134  0.00  0.00    -0.040 A 
ATOM     14  C   LIG    1        1.298   2.793  -0.905  0.00  0.00    -0.020 A 
ATOM     15  O   LIG    1        0.083   2.948  -1.454  0.00  0.00    -0.170 OA
ENDBRANCH   1  14
BRANCH   8  16
ATOM     16  C   LIG    1        0.370   5.417   2.862  0.00  0.00    -0.270 A 
ATOM     17  C   LIG    1        0.746   6.126   3.986  0.00  0.00    +0.310 A 
ATOM     18  N   LIG    1       -0.347   6.764   4.442  0.00  0.00    -0.310 N 
ATOM     19  N   LIG    1       -1.425   6.450   3.607  0.00  0.00    -0.280 NA
ATOM     20  C   LIG    1       -1.010   5.650   2.664  0.00  0.00    +0.290 A 
BRANCH  18  21
ATOM     21  C   LIG    1       -0.398   7.599   5.567  0.00  0.00    +0.100 A 
ATOM     22  C   LIG    1       -1.612   8.123   6.003  0.00  0.00    +0.080 A 
ATOM     23  C   LIG    1       -1.613   8.938   7.123  0.00  0.00    +0.000 A 
ATOM     24  C   LIG    1       -0.417   9.211   7.760  0.00  0.00    +0.260 A 
ATOM     25  N   LIG    1        0.717   8.703   7.319  0.00  0.00    -0.460 NA
ATOM     26  C   LIG    1        0.761   7.919   6.261  0.00  0.00    +0.250 A 
ENDBRANCH  18  21
ENDBRANCH   8  16
TORSDOF 3
