REMARK  Name = ZINCpe000000Yqml.1
REMARK                            x       y       z     vdW  Elec       q    Type
REMARK                         _______ _______ _______ _____ _____    ______ ____
ROOT
ATOM      1  N   LIG    1       -0.012   1.005   0.008  0.00  0.00    -0.640 NA
ATOM      2  H   LIG    1        0.002  -0.004   0.002  0.00  0.00    +0.360 HD
ENDROOT
BRANCH   1   3
ATOM      3  C   LIG    1        1.353   1.550  -0.003  0.00  0.00    +0.120 C 
ATOM      4  C   LIG    1        2.049   1.158  -1.307  0.00  0.00    +0.010 C 
BRANCH   3   5
ATOM      5  C   LIG    1        2.136   0.985   1.184  0.00  0.00    +0.110 C 
BRANCH   5   6
ATOM      6  C   LIG    1        3.536   1.544   1.173  0.00  0.00    -0.090 A 
ATOM      7  C   LIG    1        4.540   0.878   0.496  0.00  0.00    +0.040 A 
ATOM      8  C   LIG    1        5.823   1.393   0.481  0.00  0.00    -0.020 A 
ATOM      9  C   LIG    1        6.104   2.570   1.155  0.00  0.00    +0.090 A 
ATOM     10  C   LIG    1        5.098   3.232   1.837  0.00  0.00    -0.020 A 
ATOM     11  F   LIG    1        7.359   3.070   1.146  0.00  0.00    -0.140 F 
ATOM     12  C   LIG    1        3.815   2.719   1.846  0.00  0.00    +0.060 A 
ENDBRANCH   5   6
ENDBRANCH   3   5
BRANCH   3  13
ATOM     13  C   LIG    1        1.293   3.075   0.106  0.00  0.00    +0.170 C 
BRANCH  13  14
ATOM     14  O   LIG    1        0.643   3.441   1.324  0.00  0.00    -0.550 OA
ATOM     15  H   LIG    1        0.570   4.396   1.460  0.00  0.00    +0.380 HD
ENDBRANCH  13  14
ENDBRANCH   3  13
ENDBRANCH   1   3
BRANCH   1  16
ATOM     16  C   LIG    1       -0.795   1.527  -1.120  0.00  0.00    +0.280 C 
BRANCH  16  26
ATOM     17  C   LIG    1       -3.620  -1.906   2.026  0.00  0.00    +0.370 C 
ATOM     18  N   LIG    1       -4.273  -1.304   0.861  0.00  0.00    -0.350 N 
ATOM     19  N   LIG    1       -5.596  -1.527   0.456  0.00  0.00    -0.270 NA
ATOM     20  C   LIG    1       -5.845  -0.832  -0.619  0.00  0.00    +0.330 A 
ATOM     21  C   LIG    1       -4.682  -0.118  -0.964  0.00  0.00    -0.350 A 
ATOM     22  C   LIG    1       -4.327   0.812  -2.036  0.00  0.00    +0.580 A 
ATOM     23  O   LIG    1       -5.135   1.127  -2.892  0.00  0.00    -0.520 OA
ATOM     24  N   LIG    1       -3.070   1.314  -2.038  0.00  0.00    -0.650 N 
ATOM     25  H   LIG    1       -2.800   1.937  -2.731  0.00  0.00    +0.420 HD
ATOM     26  C   LIG    1       -2.186   0.947  -1.076  0.00  0.00    +0.430 A 
ATOM     27  N   LIG    1       -2.484   0.122  -0.116  0.00  0.00    -0.500 NA
ATOM     28  C   LIG    1       -3.701  -0.435  -0.011  0.00  0.00    +0.340 A 
ENDBRANCH  16  26
ENDBRANCH   1  16
TORSDOF 7
