REMARK  Name = ZINCtV00000KT5zZ.0
REMARK                            x       y       z     vdW  Elec       q    Type
REMARK                         _______ _______ _______ _____ _____    ______ ____
ROOT
ATOM      1  C   LIG    1       -3.130   2.848  -2.754  0.00  0.00    +0.160 A 
ATOM      2  N   LIG    1       -3.793   2.831  -3.887  0.00  0.00    -0.290 NA
ATOM      3  N   LIG    1       -3.991   1.616  -4.259  0.00  0.00    -0.270 NA
ATOM      4  C   LIG    1       -3.467   0.793  -3.395  0.00  0.00    +0.190 A 
ATOM      5  N   LIG    1       -2.897   1.548  -2.408  0.00  0.00    -0.450 N 
ENDROOT
BRANCH   5   6
ATOM      6  C   LIG    1       -2.188   1.063  -1.221  0.00  0.00    +0.240 C 
ATOM      7  C   LIG    1       -0.753   1.593  -1.232  0.00  0.00    +0.010 C 
ATOM      8  C   LIG    1       -0.013   1.086   0.008  0.00  0.00    +0.030 C 
ATOM      9  C   LIG    1       -0.729   1.579   1.267  0.00  0.00    +0.010 C 
ATOM     10  C   LIG    1       -2.164   1.050   1.278  0.00  0.00    +0.030 C 
ATOM     11  C   LIG    1       -2.904   1.556   0.038  0.00  0.00    +0.010 C 
ENDBRANCH   5   6
BRANCH   1  12
ATOM     12  S   LIG    1       -2.633   4.278  -1.853  0.00  0.00    +0.010 S 
BRANCH  12  13
ATOM     13  C   LIG    1       -3.295   5.574  -2.930  0.00  0.00    +0.090 C 
BRANCH  13  14
ATOM     14  C   LIG    1       -2.975   6.946  -2.333  0.00  0.00    +0.060 C 
BRANCH  14  15
ATOM     15  C   LIG    1       -3.535   8.041  -3.243  0.00  0.00    +0.060 C 
BRANCH  15  17
ATOM     16  O   LIG    1       -2.608   9.472  -1.611  0.00  0.00    -0.450 OA
ATOM     17  C   LIG    1       -3.220   9.393  -2.655  0.00  0.00    +0.400 C 
BRANCH  17  18
ATOM     18  C   LIG    1       -3.655  10.616  -3.347  0.00  0.00    -0.170 A 
ATOM     19  C   LIG    1       -4.356  10.529  -4.554  0.00  0.00    +0.060 A 
ATOM     20  C   LIG    1       -4.764  11.680  -5.195  0.00  0.00    +0.000 A 
ATOM     21  C   LIG    1       -4.473  12.919  -4.651  0.00  0.00    +0.040 A 
ATOM     22  C   LIG    1       -3.776  13.014  -3.460  0.00  0.00    +0.000 A 
ATOM     23  C   LIG    1       -3.365  11.872  -2.805  0.00  0.00    +0.070 A 
ENDBRANCH  17  18
ENDBRANCH  15  17
ENDBRANCH  14  15
ENDBRANCH  13  14
ENDBRANCH  12  13
ENDBRANCH   1  12
BRANCH   4  24
ATOM     24  C   LIG    1       -3.486  -0.712  -3.470  0.00  0.00    +0.250 C 
BRANCH  24  25
ATOM     25  C   LIG    1       -4.715  -1.234  -2.773  0.00  0.00    -0.190 A 
ATOM     26  C   LIG    1       -5.898  -1.442  -3.354  0.00  0.00    +0.040 A 
ATOM     27  C   LIG    1       -6.883  -1.930  -2.512  0.00  0.00    +0.010 A 
ATOM     28  C   LIG    1       -6.502  -2.111  -1.246  0.00  0.00    -0.030 A 
ATOM     29  S   LIG    1       -4.812  -1.656  -1.069  0.00  0.00    +0.090 S 
ENDBRANCH  24  25
ENDBRANCH   4  24
TORSDOF 9
