REMARK  Name = ZINCqH0000007nex.0
REMARK                            x       y       z     vdW  Elec       q    Type
REMARK                         _______ _______ _______ _____ _____    ______ ____
ROOT
ATOM      1  N   LIG    1        3.123   0.686  -1.606  0.00  0.00    -1.110 NA
ATOM      2  H   LIG    1        3.167  -0.213  -1.969  0.00  0.00    +0.420 HD
ENDROOT
BRANCH   1   3
ATOM      3  S   LIG    1        2.711   0.917  -0.019  0.00  0.00    +2.700 S 
ATOM      4  O   LIG    1        2.453  -0.371   0.521  0.00  0.00    -0.950 OA
ATOM      5  O   LIG    1        3.679   1.807   0.521  0.00  0.00    -0.950 OA
BRANCH   3   9
ATOM      6  C   LIG    1       -1.241   3.134   0.031  0.00  0.00    +0.160 A 
ATOM      7  C   LIG    1       -1.220   1.749   0.017  0.00  0.00    -0.050 A 
ATOM      8  C   LIG    1       -0.013   1.076   0.008  0.00  0.00    +0.140 A 
ATOM      9  C   LIG    1        1.176   1.782   0.000  0.00  0.00    -0.680 A 
ATOM     10  C   LIG    1        1.162   3.164   0.007  0.00  0.00    +0.070 A 
ATOM     11  C   LIG    1       -0.044   3.845   0.023  0.00  0.00    +0.080 A 
BRANCH   6  13
ATOM     12  C   LIG    1       -3.615   3.004   0.053  0.00  0.00    +0.250 C 
ATOM     13  O   LIG    1       -2.428   3.798   0.046  0.00  0.00    -0.300 OA
ENDBRANCH   6  13
BRANCH  11  14
ATOM     14  O   LIG    1       -0.059   5.205   0.030  0.00  0.00    -0.300 OA
ATOM     15  C   LIG    1        1.207   5.868   0.022  0.00  0.00    +0.250 C 
ENDBRANCH  11  14
ENDBRANCH   3   9
ENDBRANCH   1   3
BRANCH   1  16
ATOM     16  C   LIG    1        3.422   1.837  -2.461  0.00  0.00    +0.290 C 
ATOM     17  C   LIG    1        4.932   2.078  -2.484  0.00  0.00    +0.050 C 
BRANCH  16  18
ATOM     18  C   LIG    1        2.936   1.563  -3.861  0.00  0.00    -0.060 A 
ATOM     19  C   LIG    1        3.098   0.307  -4.415  0.00  0.00    +0.030 A 
ATOM     20  C   LIG    1        2.648   0.053  -5.697  0.00  0.00    +0.080 A 
ATOM     21  C   LIG    1        2.045   1.059  -6.429  0.00  0.00    -0.180 A 
ATOM     22  C   LIG    1        1.887   2.317  -5.877  0.00  0.00    +0.080 A 
ATOM     23  C   LIG    1        2.333   2.568  -4.593  0.00  0.00    +0.030 A 
BRANCH  21  24
ATOM     24  C   LIG    1        1.560   0.785  -7.830  0.00  0.00    +0.510 C 
ATOM     25  F   LIG    1        0.459   1.601  -8.110  0.00  0.00    -0.180 F 
ATOM     26  F   LIG    1        1.184  -0.558  -7.938  0.00  0.00    -0.180 F 
ATOM     27  F   LIG    1        2.586   1.057  -8.740  0.00  0.00    -0.180 F 
ENDBRANCH  21  24
ENDBRANCH  16  18
ENDBRANCH   1  16
TORSDOF 7
