REMARK  Name = ZINCue00000004Oe.0
REMARK                            x       y       z     vdW  Elec       q    Type
REMARK                         _______ _______ _______ _____ _____    ______ ____
ROOT
ATOM      1  N   LIG    1        1.068  -4.900  -1.612  0.00  0.00    -1.060 N 
ATOM      2  H   LIG    1        0.322  -5.431  -1.934  0.00  0.00    +0.430 HD
ENDROOT
BRANCH   1   3
ATOM      3  C   LIG    1        2.042  -4.460  -2.500  0.00  0.00    +0.140 A 
ATOM      4  C   LIG    1        1.759  -3.422  -3.383  0.00  0.00    +0.010 A 
ATOM      5  C   LIG    1        2.724  -2.979  -4.260  0.00  0.00    +0.050 A 
ATOM      6  C   LIG    1        3.985  -3.582  -4.271  0.00  0.00    -0.110 A 
ATOM      7  C   LIG    1        4.264  -4.628  -3.387  0.00  0.00    +0.100 A 
ATOM      8  C   LIG    1        3.298  -5.062  -2.509  0.00  0.00    +0.030 A 
BRANCH   6   9
ATOM      9  C   LIG    1        5.019  -3.115  -5.214  0.00  0.00    +0.550 C 
ATOM     10  N   LIG    1        4.748  -2.107  -6.066  0.00  0.00    -0.720 N 
ATOM     11  H   LIG    1        3.873  -1.688  -6.059  0.00  0.00    +0.390 HD
ATOM     12  O   LIG    1        6.115  -3.641  -5.223  0.00  0.00    -0.530 OA
BRANCH  10  13
ATOM     13  C   LIG    1        5.774  -1.643  -7.003  0.00  0.00    +0.280 C 
BRANCH  13  14
ATOM     14  C   LIG    1        5.213  -0.499  -7.849  0.00  0.00    -0.080 C 
BRANCH  14  15
ATOM     15  C   LIG    1        6.269  -0.022  -8.812  0.00  0.00    +0.500 C 
ATOM     16  O   LIG    1        6.024   0.891  -9.583  0.00  0.00    -0.700 OA
ATOM     17  O   LIG    1        7.369  -0.549  -8.821  0.00  0.00    -0.690 OA
ENDBRANCH  14  15
ENDBRANCH  13  14
ENDBRANCH  10  13
ENDBRANCH   6   9
ENDBRANCH   1   3
BRANCH   1  18
ATOM     18  S   LIG    1        1.179  -4.519  -0.004  0.00  0.00    +2.700 S 
ATOM     19  O   LIG    1        0.013  -5.044   0.615  0.00  0.00    -0.950 OA
ATOM     20  O   LIG    1        2.497  -4.865   0.400  0.00  0.00    -0.940 OA
BRANCH  18  27
ATOM     21  C   LIG    1        0.061   2.396   0.498  0.00  0.00    +0.350 C 
ATOM     22  N   LIG    1        1.095   1.361   0.429  0.00  0.00    -0.540 N 
ATOM     23  C   LIG    1        2.424   1.572   0.446  0.00  0.00    +0.680 A 
ATOM     24  N   LIG    1        3.071   0.394   0.361  0.00  0.00    -0.540 N 
ATOM     25  C   LIG    1        2.123  -0.623   0.285  0.00  0.00    +0.070 A 
ATOM     26  C   LIG    1        2.214  -2.003   0.183  0.00  0.00    +0.160 A 
ATOM     27  C   LIG    1        1.064  -2.765   0.125  0.00  0.00    -0.670 A 
ATOM     28  C   LIG    1       -0.179  -2.158   0.167  0.00  0.00    +0.140 A 
ATOM     29  C   LIG    1       -0.280  -0.784   0.269  0.00  0.00    +0.010 A 
ATOM     30  C   LIG    1        4.525   0.214   0.351  0.00  0.00    +0.350 C 
ATOM     31  O   LIG    1        2.959   2.661   0.527  0.00  0.00    -0.540 OA
ATOM     32  C   LIG    1        0.869  -0.010   0.328  0.00  0.00    +0.150 A 
ENDBRANCH  18  27
ENDBRANCH   1  18
TORSDOF 7
