REMARK  Name = ZINCrD00000758M9.0
REMARK                            x       y       z     vdW  Elec       q    Type
REMARK                         _______ _______ _______ _____ _____    ______ ____
ROOT
ATOM      1  C   LIG    1        3.143  -2.667  -1.089  0.00  0.00    +0.510 C 
ATOM      2  O   LIG    1        4.013  -1.820  -1.112  0.00  0.00    -0.480 OA
ENDROOT
BRANCH   1  11
ATOM      3  C   LIG    1        3.332   0.046   0.600  0.00  0.00    +0.190 C 
ATOM      4  C   LIG    1        1.879  -0.030   0.204  0.00  0.00    +0.150 A 
ATOM      5  N   LIG    1        0.955   0.831   0.503  0.00  0.00    -0.270 NA
ATOM      6  O   LIG    1       -0.279   0.415  -0.047  0.00  0.00    -0.070 OA
ATOM      7  C   LIG    1       -0.107  -0.746  -0.709  0.00  0.00    +0.300 A 
ATOM      8  N   LIG    1       -0.930  -1.533  -1.385  0.00  0.00    -0.450 NA
ATOM      9  C   LIG    1       -0.520  -2.644  -1.959  0.00  0.00    +0.240 A 
ATOM     10  C   LIG    1        0.802  -3.054  -1.888  0.00  0.00    +0.020 A 
ATOM     11  C   LIG    1        1.722  -2.270  -1.191  0.00  0.00    +0.020 A 
ATOM     12  C   LIG    1        1.252  -1.087  -0.588  0.00  0.00    -0.210 A 
BRANCH   9  13
ATOM     13  C   LIG    1       -1.512  -3.492  -2.712  0.00  0.00    +0.020 C 
ATOM     14  C   LIG    1       -0.957  -4.546  -3.671  0.00  0.00    +0.040 C 
ATOM     15  C   LIG    1       -1.617  -3.281  -4.224  0.00  0.00    +0.060 C 
ENDBRANCH   9  13
ENDBRANCH   1  11
BRANCH   1  16
ATOM     16  O   LIG    1        3.471  -3.968  -0.971  0.00  0.00    -0.330 OA
BRANCH  16  17
ATOM     17  C   LIG    1        4.885  -4.284  -0.876  0.00  0.00    +0.270 C 
BRANCH  17  18
ATOM     18  C   LIG    1        5.059  -5.776  -0.751  0.00  0.00    +0.520 C 
ATOM     19  N   LIG    1        6.254  -6.288  -0.397  0.00  0.00    -0.600 N 
ATOM     20  C   LIG    1        6.490  -7.738  -0.441  0.00  0.00    +0.230 C 
ATOM     21  C   LIG    1        7.741  -8.009  -1.283  0.00  0.00    +0.020 C 
ATOM     22  C   LIG    1        8.912  -7.198  -0.725  0.00  0.00    +0.020 C 
ATOM     23  C   LIG    1        8.588  -5.705  -0.809  0.00  0.00    +0.020 C 
ATOM     24  C   LIG    1        5.283  -8.435  -1.070  0.00  0.00    +0.050 C 
ATOM     25  C   LIG    1        7.348  -5.407   0.033  0.00  0.00    +0.210 C 
ATOM     26  C   LIG    1        6.937  -3.946  -0.162  0.00  0.00    +0.050 C 
ATOM     27  O   LIG    1        4.123  -6.516  -0.969  0.00  0.00    -0.510 OA
ENDBRANCH  17  18
ENDBRANCH  16  17
ENDBRANCH   1  16
TORSDOF 5
