REMARK  Name = ZINCpk000004FD6b.0
REMARK                            x       y       z     vdW  Elec       q    Type
REMARK                         _______ _______ _______ _____ _____    ______ ____
ROOT
ATOM      1  C   LIG    1       -0.783   3.115  -1.239  0.00  0.00    +0.230 C 
ATOM      2  C   LIG    1       -0.754   1.582  -1.262  0.00  0.00    +0.000 C 
ATOM      3  C   LIG    1       -0.025   1.101  -0.008  0.00  0.00    +0.040 C 
ATOM      4  C   LIG    1       -0.708   1.579   1.249  0.00  0.00    -0.010 C 
ATOM      5  C   LIG    1       -2.135   1.020   1.401  0.00  0.00    +0.270 C 
ATOM      6  N   LIG    1       -2.760   1.916   2.398  0.00  0.00    -0.610 N 
ATOM      7  C   LIG    1       -2.056   3.211   2.369  0.00  0.00    +0.270 C 
ATOM      8  C   LIG    1       -3.798   1.602   3.198  0.00  0.00    +0.580 C 
ATOM      9  O   LIG    1       -4.163   2.383   4.055  0.00  0.00    -0.520 OA
ATOM     10  C   LIG    1       -0.959   3.100   1.274  0.00  0.00    +0.020 C 
ATOM     11  C   LIG    1       -1.605   3.564  -0.034  0.00  0.00    +0.020 C 
ENDROOT
BRANCH   8  12
ATOM     12  C   LIG    1       -4.492   0.309   3.033  0.00  0.00    -0.110 A 
ATOM     13  C   LIG    1       -5.186  -0.255   4.107  0.00  0.00    +0.110 A 
ATOM     14  C   LIG    1       -5.835  -1.461   3.956  0.00  0.00    +0.070 A 
ATOM     15  C   LIG    1       -5.801  -2.121   2.735  0.00  0.00    +0.060 A 
ATOM     16  O   LIG    1       -6.334  -3.290   2.306  0.00  0.00    -0.230 OA
ATOM     17  C   LIG    1       -6.005  -3.481   1.018  0.00  0.00    +0.640 A 
ATOM     18  N   LIG    1       -5.256  -2.446   0.588  0.00  0.00    -0.650 N 
ATOM     19  H   LIG    1       -4.888  -2.335  -0.302  0.00  0.00    +0.450 HD
ATOM     20  O   LIG    1       -6.332  -4.438   0.345  0.00  0.00    -0.480 OA
ATOM     21  C   LIG    1       -5.109  -1.562   1.658  0.00  0.00    +0.060 A 
ATOM     22  C   LIG    1       -4.460  -0.350   1.802  0.00  0.00    +0.070 A 
ENDBRANCH   8  12
BRANCH   1  25
ATOM     23  C   LIG    1       -1.292   4.290  -4.847  0.00  0.00    +0.090 C 
ATOM     24  C   LIG    1       -0.656   3.776  -3.581  0.00  0.00    +0.510 C 
ATOM     25  N   LIG    1       -1.402   3.614  -2.470  0.00  0.00    -0.730 N 
ATOM     26  H   LIG    1       -2.348   3.828  -2.485  0.00  0.00    +0.400 HD
ATOM     27  O   LIG    1        0.526   3.509  -3.562  0.00  0.00    -0.540 OA
ENDBRANCH   1  25
TORSDOF 2
