REMARK  Name = ZINCrg000000qTwC.0
REMARK                            x       y       z     vdW  Elec       q    Type
REMARK                         _______ _______ _______ _____ _____    ______ ____
ROOT
ATOM      1  C   LIG    1       -2.553   3.867   0.048  0.00  0.00    +0.190 C 
ATOM      2  N   LIG    1       -2.426   5.143   0.773  0.00  0.00    -0.710 N 
ATOM      3  H   LIG    1       -1.849   5.887   0.540  0.00  0.00    +0.440 HD
ATOM      4  C   LIG    1       -3.265   5.075   1.823  0.00  0.00    +0.710 C 
ATOM      5  N   LIG    1       -3.926   3.912   1.874  0.00  0.00    -0.370 N 
ATOM      6  O   LIG    1       -3.408   5.969   2.633  0.00  0.00    -0.520 OA
ATOM      7  C   LIG    1       -3.053   4.106  -1.378  0.00  0.00    +0.110 C 
ATOM      8  C   LIG    1       -3.582   3.099   0.856  0.00  0.00    +0.540 C 
ATOM      9  O   LIG    1       -4.006   1.986   0.631  0.00  0.00    -0.440 OA
ENDROOT
BRANCH   1  13
ATOM     10  C   LIG    1        1.179   1.786   0.000  0.00  0.00    +0.140 A 
ATOM     11  C   LIG    1       -0.013   1.076   0.008  0.00  0.00    -0.010 A 
ATOM     12  C   LIG    1       -1.218   1.751   0.017  0.00  0.00    +0.080 A 
ATOM     13  C   LIG    1       -1.237   3.133   0.031  0.00  0.00    -0.140 A 
ATOM     14  C   LIG    1       -0.051   3.844   0.023  0.00  0.00    +0.080 A 
ATOM     15  C   LIG    1        1.157   3.174   0.008  0.00  0.00    -0.080 A 
BRANCH  10  17
ATOM     16  C   LIG    1        3.553   1.921  -0.022  0.00  0.00    +0.240 C 
ATOM     17  O   LIG    1        2.366   1.125  -0.015  0.00  0.00    -0.310 OA
ENDBRANCH  10  17
ENDBRANCH   1  13
BRANCH   5  18
ATOM     18  N   LIG    1       -4.861   3.581   2.863  0.00  0.00    -0.500 N 
ATOM     19  H   LIG    1       -4.623   2.956   3.566  0.00  0.00    +0.430 HD
ATOM     20  C   LIG    1       -6.091   4.132   2.839  0.00  0.00    +0.540 C 
ATOM     21  O   LIG    1       -6.388   4.913   1.961  0.00  0.00    -0.490 OA
BRANCH  20  22
ATOM     22  C   LIG    1       -7.097   3.776   3.903  0.00  0.00    +0.130 C 
BRANCH  22  23
ATOM     23  S   LIG    1       -8.640   4.670   3.599  0.00  0.00    +0.100 S 
BRANCH  23  24
ATOM     24  C   LIG    1       -9.606   4.084   4.950  0.00  0.00    +0.280 A 
ATOM     25  N   LIG    1       -9.073   3.215   5.798  0.00  0.00    -0.530 NA
ATOM     26  C   LIG    1       -9.770   2.759   6.825  0.00  0.00    +0.330 A 
ATOM     27  C   LIG    1      -11.075   3.191   7.003  0.00  0.00    -0.090 A 
ATOM     28  C   LIG    1      -11.603   4.096   6.095  0.00  0.00    +0.350 A 
ATOM     29  N   LIG    1      -10.851   4.517   5.092  0.00  0.00    -0.500 NA
ENDBRANCH  23  24
ENDBRANCH  22  23
ENDBRANCH  20  22
ENDBRANCH   5  18
TORSDOF 6
