REMARK  Name = ZINCqH0000005vpj.0
REMARK                            x       y       z     vdW  Elec       q    Type
REMARK                         _______ _______ _______ _____ _____    ______ ____
ROOT
ATOM      1  C   LIG    1        1.178   2.203  -0.115  0.00  0.00    -0.310 A 
ATOM      2  C   LIG    1        1.232   3.546   0.142  0.00  0.00    +0.150 A 
ATOM      3  N   LIG    1        2.433   4.055   0.061  0.00  0.00    -0.460 NA
ATOM      4  C   LIG    1        3.406   3.245  -0.247  0.00  0.00    +0.100 A 
ATOM      5  C   LIG    1        0.016   4.365   0.490  0.00  0.00    +0.160 C 
ATOM      6  S   LIG    1        2.816   1.656  -0.464  0.00  0.00    +0.200 S 
ENDROOT
BRANCH   1  12
ATOM      7  C   LIG    1       -0.389  -1.431   2.889  0.00  0.00    +0.030 C 
ATOM      8  C   LIG    1       -1.602  -0.816   2.187  0.00  0.00    +0.050 C 
ATOM      9  C   LIG    1       -1.268  -0.582   0.710  0.00  0.00    +0.290 C 
ATOM     10  N   LIG    1       -0.046   0.229   0.625  0.00  0.00    -0.610 N 
ATOM     11  C   LIG    1        1.156  -0.228   1.335  0.00  0.00    +0.270 C 
ATOM     12  C   LIG    1       -0.027   1.367  -0.096  0.00  0.00    +0.610 C 
ATOM     13  O   LIG    1       -1.008   1.700  -0.735  0.00  0.00    -0.520 OA
ATOM     14  C   LIG    1        0.794  -0.464   2.809  0.00  0.00    +0.040 C 
BRANCH   7  15
ATOM     15  C   LIG    1       -0.726  -1.694   4.334  0.00  0.00    +0.460 C 
ATOM     16  O   LIG    1       -1.822  -1.418   4.759  0.00  0.00    -0.500 OA
BRANCH  15  18
ATOM     17  C   LIG    1       -0.200  -2.460   6.529  0.00  0.00    +0.250 C 
ATOM     18  O   LIG    1        0.194  -2.235   5.149  0.00  0.00    -0.360 OA
ENDBRANCH  15  18
ENDBRANCH   7  15
ENDBRANCH   1  12
BRANCH   4  19
ATOM     19  C   LIG    1        4.823   3.643  -0.382  0.00  0.00    -0.050 A 
ATOM     20  C   LIG    1        5.824   2.895   0.238  0.00  0.00    +0.050 A 
ATOM     21  C   LIG    1        7.145   3.272   0.107  0.00  0.00    +0.000 A 
ATOM     22  C   LIG    1        7.477   4.390  -0.636  0.00  0.00    -0.060 A 
ATOM     23  C   LIG    1        6.490   5.137  -1.254  0.00  0.00    +0.010 A 
ATOM     24  C   LIG    1        8.922   4.797  -0.773  0.00  0.00    +0.100 C 
ATOM     25  C   LIG    1        5.166   4.767  -1.136  0.00  0.00    -0.030 A 
ATOM     26  C   LIG    1        4.092   5.578  -1.815  0.00  0.00    +0.100 C 
ENDBRANCH   4  19
TORSDOF 4
