REMARK  Name = ZINCtV00000L6kvq.0
REMARK                            x       y       z     vdW  Elec       q    Type
REMARK                         _______ _______ _______ _____ _____    ______ ____
ROOT
ATOM      1  O   LIG    1       -2.133   1.909  -1.159  0.00  0.00    -0.730 OA
ENDROOT
BRANCH   1   3
ATOM      2  O   LIG    1       -3.157   3.929  -0.045  0.00  0.00    -1.000 OA
ATOM      3  P   LIG    1       -3.352   2.961  -1.148  0.00  0.00    +2.560 P 
BRANCH   3   4
ATOM      4  C   LIG    1       -4.915   2.074  -0.906  0.00  0.00    -0.730 A 
ATOM      5  C   LIG    1       -5.054   0.779  -1.370  0.00  0.00    +0.070 A 
ATOM      6  C   LIG    1       -6.244   0.101  -1.181  0.00  0.00    -0.010 A 
ATOM      7  C   LIG    1       -7.298   0.722  -0.537  0.00  0.00    +0.050 A 
ATOM      8  C   LIG    1       -7.161   2.018  -0.078  0.00  0.00    -0.010 A 
ATOM      9  C   LIG    1       -5.969   2.694  -0.262  0.00  0.00    +0.100 A 
ENDBRANCH   3   4
BRANCH   3  10
ATOM     10  C   LIG    1       -3.399   3.848  -2.730  0.00  0.00    -0.760 A 
ATOM     11  C   LIG    1       -3.880   5.143  -2.782  0.00  0.00    +0.100 A 
ATOM     12  C   LIG    1       -3.912   5.821  -3.986  0.00  0.00    -0.010 A 
ATOM     13  C   LIG    1       -3.471   5.200  -5.140  0.00  0.00    +0.050 A 
ATOM     14  C   LIG    1       -2.994   3.904  -5.089  0.00  0.00    +0.000 A 
ATOM     15  C   LIG    1       -2.958   3.228  -3.884  0.00  0.00    +0.070 A 
ENDBRANCH   3  10
ENDBRANCH   1   3
BRANCH   1  16
ATOM     16  C   LIG    1       -0.762   2.306  -1.228  0.00  0.00    +0.320 C 
BRANCH  16  17
ATOM     17  C   LIG    1       -0.131   1.720  -2.464  0.00  0.00    -0.130 A 
ATOM     18  C   LIG    1       -0.510   0.467  -2.907  0.00  0.00    +0.070 A 
ATOM     19  C   LIG    1        0.066  -0.069  -4.043  0.00  0.00    +0.000 A 
ATOM     20  C   LIG    1        1.028   0.645  -4.733  0.00  0.00    +0.030 A 
ATOM     21  C   LIG    1        1.411   1.897  -4.287  0.00  0.00    +0.010 A 
ATOM     22  C   LIG    1        0.832   2.434  -3.153  0.00  0.00    +0.040 A 
ENDBRANCH  16  17
BRANCH  16  23
ATOM     23  C   LIG    1       -0.022   1.799   0.012  0.00  0.00    +0.010 C 
ATOM     24 CL   LIG    1        1.669   2.423  -0.001  0.00  0.00    -0.050 Cl
ATOM     25 CL   LIG    1        0.002  -0.004   0.002  0.00  0.00    -0.050 Cl
BRANCH  23  26
ATOM     26  C   LIG    1       -0.739   2.292   1.271  0.00  0.00    +0.460 C 
ATOM     27  F   LIG    1       -2.051   1.808   1.281  0.00  0.00    -0.150 F 
ATOM     28  F   LIG    1       -0.757   3.691   1.278  0.00  0.00    -0.140 F 
ATOM     29  F   LIG    1       -0.062   1.829   2.404  0.00  0.00    -0.160 F 
ENDBRANCH  23  26
ENDBRANCH  16  23
ENDBRANCH   1  16
TORSDOF 7
