REMARK  Name = ZINCqH0000004Lzu.0
REMARK                            x       y       z     vdW  Elec       q    Type
REMARK                         _______ _______ _______ _____ _____    ______ ____
ROOT
ATOM      1  C   LIG    1        8.101   2.183   0.333  0.00  0.00    +0.250 A 
ATOM      2  N   LIG    1        7.439   1.060   0.216  0.00  0.00    -0.440 NA
ATOM      3  C   LIG    1        6.214   1.365  -0.252  0.00  0.00    +0.160 A 
ATOM      4  N   LIG    1        6.150   2.670  -0.401  0.00  0.00    -0.260 NA
ATOM      5  N   LIG    1        7.281   3.182  -0.053  0.00  0.00    -0.260 N 
ENDROOT
BRANCH   5   6
ATOM      6  C   LIG    1        7.603   4.546  -0.072  0.00  0.00    +0.130 A 
ATOM      7  C   LIG    1        6.873   5.445   0.696  0.00  0.00    -0.010 A 
ATOM      8  C   LIG    1        7.197   6.788   0.678  0.00  0.00    +0.070 A 
ATOM      9  C   LIG    1        8.240   7.240  -0.110  0.00  0.00    +0.090 A 
ATOM     10  C   LIG    1        8.965   6.349  -0.879  0.00  0.00    +0.070 A 
ATOM     11 CL   LIG    1        5.560   4.880   1.680  0.00  0.00    -0.020 Cl
ATOM     12  C   LIG    1        8.650   5.003  -0.863  0.00  0.00    -0.020 A 
ATOM     13 CL   LIG    1        9.562   3.885  -1.828  0.00  0.00    -0.030 Cl
ENDBRANCH   5   6
BRANCH   3  14
ATOM     14  C   LIG    1        5.130   0.403  -0.540  0.00  0.00    +0.610 C 
ATOM     15  N   LIG    1        3.943   0.844  -1.001  0.00  0.00    -0.640 N 
ATOM     16  H   LIG    1        3.800   1.793  -1.144  0.00  0.00    +0.430 HD
ATOM     17  O   LIG    1        5.308  -0.786  -0.360  0.00  0.00    -0.440 OA
BRANCH  15  18
ATOM     18  C   LIG    1        2.919  -0.064  -1.273  0.00  0.00    +0.350 A 
ATOM     19  N   LIG    1        3.119  -1.356  -1.076  0.00  0.00    -0.440 NA
ATOM     20  C   LIG    1        2.178  -2.249  -1.321  0.00  0.00    +0.270 A 
ATOM     21  C   LIG    1        0.940  -1.864  -1.795  0.00  0.00    -0.020 A 
ATOM     22  C   LIG    1        0.685  -0.517  -2.016  0.00  0.00    +0.000 A 
ATOM     23  C   LIG    1        1.693   0.399  -1.751  0.00  0.00    +0.050 A 
BRANCH  23  24
ATOM     24  O   LIG    1        1.488   1.728  -1.954  0.00  0.00    -0.320 OA
ATOM     25  C   LIG    1        0.204   2.119  -2.445  0.00  0.00    +0.250 C 
ENDBRANCH  23  24
ENDBRANCH  15  18
ENDBRANCH   3  14
BRANCH   1  27
ATOM     26  C   LIG    1        9.534   2.381   2.347  0.00  0.00    +0.050 C 
ATOM     27  C   LIG    1        9.520   2.333   0.818  0.00  0.00    +0.150 C 
ENDBRANCH   1  27
TORSDOF 5
