REMARK  Name = ZINCrH000004so5c.0
REMARK                            x       y       z     vdW  Elec       q    Type
REMARK                         _______ _______ _______ _____ _____    ______ ____
ROOT
ATOM      1  C   LIG    1        1.573  -1.226   0.174  0.00  0.00    +0.480 C 
ENDROOT
BRANCH   1   7
ATOM      2  C   LIG    1        2.387   1.125  -0.228  0.00  0.00    +0.340 A 
ATOM      3  N   LIG    1        3.565   1.709  -0.322  0.00  0.00    -0.530 NA
ATOM      4  C   LIG    1        4.528   0.805  -0.167  0.00  0.00    +0.220 A 
ATOM      5  N   LIG    1        3.988  -0.370   0.027  0.00  0.00    -0.310 NA
ATOM      6  C   LIG    1        6.007   1.091  -0.208  0.00  0.00    +0.190 C 
ATOM      7  N   LIG    1        2.596  -0.192  -0.002  0.00  0.00    -0.370 N 
BRANCH   2  14
ATOM      8  C   LIG    1        1.875   3.549   1.267  0.00  0.00    +0.100 C 
ATOM      9  C   LIG    1        0.814   2.962   0.372  0.00  0.00    -0.040 A 
ATOM     10  C   LIG    1       -0.415   3.579   0.261  0.00  0.00    +0.000 A 
ATOM     11  C   LIG    1       -1.391   3.041  -0.560  0.00  0.00    +0.040 A 
ATOM     12  C   LIG    1       -1.139   1.885  -1.277  0.00  0.00    +0.000 A 
ATOM     13  C   LIG    1        0.084   1.255  -1.169  0.00  0.00    +0.060 A 
ATOM     14  C   LIG    1        1.072   1.793  -0.344  0.00  0.00    -0.040 A 
ENDBRANCH   2  14
ENDBRANCH   1   7
BRANCH   1  15
ATOM     15  N   LIG    1        1.310  -1.879  -1.115  0.00  0.00    -0.550 NA
ATOM     16  C   LIG    1        2.487  -2.626  -1.577  0.00  0.00    +0.220 C 
BRANCH  15  17
ATOM     17  C   LIG    1        0.131  -2.752  -1.033  0.00  0.00    +0.220 C 
BRANCH  17  18
ATOM     18  C   LIG    1       -0.364  -3.075  -2.444  0.00  0.00    +0.220 C 
ATOM     19  O   LIG    1        0.613  -3.867  -3.118  0.00  0.00    -0.370 OA
ATOM     20  C   LIG    1        0.157  -4.369  -4.380  0.00  0.00    +0.220 C 
ATOM     21  C   LIG    1       -0.900  -5.443  -4.120  0.00  0.00    +0.060 C 
ATOM     22  C   LIG    1       -1.923  -4.927  -3.140  0.00  0.00    -0.070 A 
ATOM     23  C   LIG    1       -3.137  -5.585  -3.035  0.00  0.00    +0.000 A 
ATOM     24  C   LIG    1       -4.096  -5.141  -2.145  0.00  0.00    +0.010 A 
ATOM     25  C   LIG    1       -3.842  -4.034  -1.356  0.00  0.00    +0.000 A 
ATOM     26  C   LIG    1       -2.632  -3.377  -1.462  0.00  0.00    +0.010 A 
ATOM     27  C   LIG    1       -1.670  -3.821  -2.355  0.00  0.00    -0.120 A 
ENDBRANCH  17  18
ENDBRANCH  15  17
ENDBRANCH   1  15
TORSDOF 5
