REMARK  Name = ZINCpe000027pH8e.0
REMARK                            x       y       z     vdW  Elec       q    Type
REMARK                         _______ _______ _______ _____ _____    ______ ____
ROOT
ATOM      1  N   LIG    1        3.524   5.535   1.420  0.00  0.00    -0.640 N 
ATOM      2  C   LIG    1        2.497   4.519   1.688  0.00  0.00    +0.290 C 
ATOM      3  C   LIG    1        1.223   4.893   0.924  0.00  0.00    -0.000 C 
ATOM      4  C   LIG    1        1.557   5.073  -0.559  0.00  0.00    +0.130 C 
ATOM      5  C   LIG    1        0.280   5.416  -1.330  0.00  0.00    +0.040 C 
ATOM      6  C   LIG    1       -0.707   4.250  -1.216  0.00  0.00    +0.180 C 
ATOM      7  C   LIG    1       -0.036   2.975  -1.739  0.00  0.00    +0.100 C 
ATOM      8  C   LIG    1        1.252   2.726  -0.951  0.00  0.00    +0.190 C 
ATOM      9  C   LIG    1        2.570   6.208  -0.722  0.00  0.00    +0.060 C 
ATOM     10  O   LIG    1        2.112   3.861  -1.074  0.00  0.00    -0.360 OA
ATOM     11  C   LIG    1        3.858   5.849   0.024  0.00  0.00    +0.310 C 
ENDROOT
BRANCH   1  13
ATOM     12  C   LIG    1        5.277   5.623   3.057  0.00  0.00    +0.050 A 
ATOM     13  C   LIG    1        4.164   6.181   2.461  0.00  0.00    +0.350 A 
ATOM     14  N   LIG    1        3.709   7.391   2.915  0.00  0.00    -0.300 N 
ATOM     15  N   LIG    1        2.637   8.204   2.528  0.00  0.00    -0.300 NA
ATOM     16  C   LIG    1        2.624   9.278   3.284  0.00  0.00    +0.280 A 
ATOM     17  C   LIG    1        3.669   9.201   4.194  0.00  0.00    -0.080 A 
ATOM     18  C   LIG    1        4.352   8.015   3.951  0.00  0.00    +0.250 A 
ATOM     19  N   LIG    1        5.431   7.462   4.521  0.00  0.00    -0.430 NA
ATOM     20  C   LIG    1        5.901   6.303   4.108  0.00  0.00    +0.240 A 
ATOM     21 CL   LIG    1        7.302   5.617   4.870  0.00  0.00    +0.020 Cl
BRANCH  12  23
ATOM     22  C   LIG    1        4.975   3.712   1.669  0.00  0.00    +0.250 C 
ATOM     23  O   LIG    1        5.761   4.424   2.627  0.00  0.00    -0.280 OA
ENDBRANCH  12  23
ENDBRANCH   1  13
BRANCH   7  24
ATOM     24  O   LIG    1        0.275   3.132  -3.125  0.00  0.00    -0.540 OA
ATOM     25  H   LIG    1        0.704   2.362  -3.521  0.00  0.00    +0.380 HD
ENDBRANCH   7  24
BRANCH   6  26
ATOM     26  O   LIG    1       -1.872   4.531  -1.993  0.00  0.00    -0.550 OA
ATOM     27  H   LIG    1       -2.538   3.829  -1.972  0.00  0.00    +0.380 HD
ENDBRANCH   6  26
TORSDOF 4
