REMARK  Name = ZINCpk00000eb0CD.0
REMARK                            x       y       z     vdW  Elec       q    Type
REMARK                         _______ _______ _______ _____ _____    ______ ____
ROOT
ATOM      1  C   LIG    1       -0.119  -3.898   1.383  0.00  0.00    +0.530 C 
ATOM      2  O   LIG    1       -0.423  -4.685   0.508  0.00  0.00    -0.510 OA
ENDROOT
BRANCH   1   3
ATOM      3  C   LIG    1        0.543  -4.378   2.606  0.00  0.00    -0.210 A 
ATOM      4  C   LIG    1        0.822  -5.713   2.772  0.00  0.00    +0.390 A 
ATOM      5  N   LIG    1        1.431  -6.181   3.893  0.00  0.00    -0.510 N 
ATOM      6  C   LIG    1        1.611  -7.635   3.958  0.00  0.00    +0.340 C 
ATOM      7  C   LIG    1        2.943  -7.981   4.630  0.00  0.00    -0.380 C 
ATOM      8  S   LIG    1        2.918  -7.223   6.285  0.00  0.00    +2.550 S 
ATOM      9  N   LIG    1        2.481  -5.660   5.965  0.00  0.00    -0.960 NA
ATOM     10  O   LIG    1        1.847  -7.741   7.062  0.00  0.00    -0.960 OA
ATOM     11  O   LIG    1        4.233  -7.124   6.814  0.00  0.00    -0.930 OA
ATOM     12  C   LIG    1        1.826  -5.319   4.880  0.00  0.00    +0.520 A 
ATOM     13  C   LIG    1        1.538  -3.924   4.763  0.00  0.00    +0.020 A 
ATOM     14  C   LIG    1        0.921  -3.440   3.666  0.00  0.00    +0.170 A 
ENDBRANCH   1   3
BRANCH   1  15
ATOM     15  O   LIG    1       -0.387  -2.586   1.233  0.00  0.00    -0.340 OA
BRANCH  15  16
ATOM     16  C   LIG    1       -1.041  -2.184   0.000  0.00  0.00    +0.260 C 
BRANCH  16  17
ATOM     17  C   LIG    1       -1.262  -0.670   0.011  0.00  0.00    +0.230 C 
BRANCH  17  18
ATOM     18  O   LIG    1        0.002  -0.004   0.002  0.00  0.00    -0.310 OA
BRANCH  18  23
ATOM     19  C   LIG    1       -0.074   5.628   0.032  0.00  0.00    +0.100 C 
ATOM     20  C   LIG    1       -0.054   4.121   0.024  0.00  0.00    -0.120 A 
ATOM     21  C   LIG    1        1.153   3.447   0.009  0.00  0.00    +0.050 A 
ATOM     22  C   LIG    1        1.175   2.066   0.002  0.00  0.00    -0.020 A 
ATOM     23  C   LIG    1       -0.016   1.355   0.009  0.00  0.00    +0.120 A 
ATOM     24  C   LIG    1       -1.226   2.033   0.019  0.00  0.00    -0.080 A 
ATOM     25  C   LIG    1       -1.242   3.414   0.031  0.00  0.00    +0.050 A 
ENDBRANCH  18  23
ENDBRANCH  17  18
ENDBRANCH  16  17
ENDBRANCH  15  16
ENDBRANCH   1  15
TORSDOF 6
