REMARK  Name = ZINCpe000000UwA7.0
REMARK                            x       y       z     vdW  Elec       q    Type
REMARK                         _______ _______ _______ _____ _____    ______ ____
ROOT
ATOM      1  C   LIG    1        1.408  -2.373  -0.172  0.00  0.00    +0.560 C 
ATOM      2  N   LIG    1        0.217  -3.000  -0.099  0.00  0.00    -0.710 N 
ATOM      3  H   LIG    1       -0.602  -2.482  -0.061  0.00  0.00    +0.400 HD
ATOM      4  O   LIG    1        2.434  -3.022  -0.219  0.00  0.00    -0.500 OA
ENDROOT
BRANCH   2   5
ATOM      5  C   LIG    1        0.160  -4.464  -0.076  0.00  0.00    +0.270 C 
ATOM      6  C   LIG    1       -1.194  -4.928  -0.617  0.00  0.00    +0.050 C 
ATOM      7  C   LIG    1       -2.272  -4.589   0.420  0.00  0.00    +0.030 C 
ATOM      8  C   LIG    1       -2.051  -5.457   1.659  0.00  0.00    +0.270 C 
ATOM      9  N   LIG    1       -0.665  -5.370   2.102  0.00  0.00    -0.540 N 
ATOM     10  C   LIG    1        0.340  -4.948   1.334  0.00  0.00    +0.500 C 
ATOM     11  O   LIG    1        1.460  -4.956   1.800  0.00  0.00    -0.500 OA
BRANCH   9  12
ATOM     12  C   LIG    1       -0.373  -5.751   3.412  0.00  0.00    +0.290 A 
ATOM     13  C   LIG    1       -0.030  -7.000   3.828  0.00  0.00    -0.100 A 
ATOM     14  C   LIG    1        0.178  -6.949   5.209  0.00  0.00    +0.240 A 
ATOM     15  N   LIG    1       -0.030  -5.721   5.611  0.00  0.00    -0.280 NA
ATOM     16  N   LIG    1       -0.373  -4.944   4.497  0.00  0.00    -0.370 N 
ATOM     17  C   LIG    1       -0.681  -3.512   4.507  0.00  0.00    +0.350 C 
ENDBRANCH   9  12
ENDBRANCH   2   5
BRANCH   1  20
ATOM     18  C   LIG    1        2.696   1.165  -0.291  0.00  0.00    +0.400 A 
ATOM     19  C   LIG    1        2.689  -0.225  -0.271  0.00  0.00    -0.030 A 
ATOM     20  C   LIG    1        1.466  -0.893  -0.195  0.00  0.00    -0.040 A 
ATOM     21  C   LIG    1        0.295  -0.128  -0.142  0.00  0.00    -0.080 A 
ATOM     22  C   LIG    1        0.390   1.249  -0.167  0.00  0.00    +0.310 A 
ATOM     23  N   LIG    1        1.563   1.848  -0.239  0.00  0.00    -0.530 NA
BRANCH  18  25
ATOM     24  C   LIG    1        5.156   1.101  -0.535  0.00  0.00    +0.300 C 
ATOM     25  N   LIG    1        3.906   1.846  -0.366  0.00  0.00    -0.610 N 
ATOM     26  C   LIG    1        3.931   3.308  -0.277  0.00  0.00    +0.300 C 
ENDBRANCH  18  25
ENDBRANCH   1  20
TORSDOF 4
