REMARK  Name = ZINCpe00000gMNuD.0
REMARK                            x       y       z     vdW  Elec       q    Type
REMARK                         _______ _______ _______ _____ _____    ______ ____
ROOT
ATOM      1  C   LIG    1       -6.331   1.175  -3.004  0.00  0.00    +0.510 C 
ATOM      2  N   LIG    1       -7.534   1.528  -3.500  0.00  0.00    -0.610 N 
ATOM      3  C   LIG    1       -8.237   2.711  -2.987  0.00  0.00    +0.270 C 
ATOM      4  C   LIG    1       -8.593   3.621  -4.173  0.00  0.00    +0.020 C 
ATOM      5  C   LIG    1       -9.387   2.817  -5.205  0.00  0.00    +0.090 C 
ATOM      6  C   LIG    1       -8.527   1.662  -5.725  0.00  0.00    +0.030 C 
ATOM      7  C   LIG    1       -8.168   0.734  -4.561  0.00  0.00    +0.270 C 
ATOM      8  O   LIG    1       -5.763   0.194  -3.433  0.00  0.00    -0.530 OA
ENDROOT
BRANCH   5   9
ATOM      9  C   LIG    1       -9.770   3.714  -6.353  0.00  0.00    +0.010 A 
ATOM     10  C   LIG    1       -9.031   4.725  -6.849  0.00  0.00    +0.120 A 
ATOM     11  N   LIG    1       -9.747   5.269  -7.881  0.00  0.00    -0.570 N 
ATOM     12  H   LIG    1       -9.476   6.016  -8.438  0.00  0.00    +0.420 HD
ATOM     13  C   LIG    1      -10.903   4.578  -7.974  0.00  0.00    +0.400 A 
ATOM     14  N   LIG    1      -10.910   3.649  -7.057  0.00  0.00    -0.490 NA
ENDBRANCH   5   9
BRANCH   1  15
ATOM     15  C   LIG    1       -5.693   2.001  -1.916  0.00  0.00    +0.360 C 
BRANCH  15  21
ATOM     16  C   LIG    1       -1.492  -0.036  -2.448  0.00  0.00    +0.090 C 
ATOM     17  C   LIG    1       -2.179   0.893  -1.445  0.00  0.00    +0.160 C 
ATOM     18  N   LIG    1       -2.952   0.117  -0.460  0.00  0.00    -0.720 N 
ATOM     19  H   LIG    1       -2.603  -0.536   0.166  0.00  0.00    +0.440 HD
ATOM     20  C   LIG    1       -4.237   0.490  -0.599  0.00  0.00    +0.710 C 
ATOM     21  N   LIG    1       -4.401   1.414  -1.552  0.00  0.00    -0.560 N 
ATOM     22  O   LIG    1       -5.148   0.038   0.068  0.00  0.00    -0.540 OA
ATOM     23  C   LIG    1       -3.231   1.739  -2.136  0.00  0.00    +0.540 C 
ATOM     24  O   LIG    1       -3.055   2.541  -3.028  0.00  0.00    -0.460 OA
BRANCH  17  25
ATOM     25  C   LIG    1       -1.150   1.781  -0.743  0.00  0.00    -0.030 C 
ATOM     26  C   LIG    1       -0.013   1.086   0.008  0.00  0.00    +0.040 C 
ATOM     27  C   LIG    1       -1.136   1.773   0.788  0.00  0.00    +0.030 C 
ENDBRANCH  17  25
ENDBRANCH  15  21
ENDBRANCH   1  15
TORSDOF 4
