REMARK  Name = ZINCpk00000l3LcC.0
REMARK                            x       y       z     vdW  Elec       q    Type
REMARK                         _______ _______ _______ _____ _____    ______ ____
ROOT
ATOM      1  O   LIG    1        1.063  -0.598  -0.011  0.00  0.00    -0.590 OA
ATOM      2  C   LIG    1        0.002  -0.004   0.002  0.00  0.00    +0.710 C 
ATOM      3  N   LIG    1       -0.016   1.344   0.009  0.00  0.00    -0.740 N 
ATOM      4  H   LIG    1       -0.863   1.817   0.016  0.00  0.00    +0.400 HD
ATOM      5  N   LIG    1       -1.156  -0.694   0.009  0.00  0.00    -0.750 N 
ATOM      6  H   LIG    1       -2.002  -0.220   0.020  0.00  0.00    +0.400 HD
ENDROOT
BRANCH   3   7
ATOM      7  C   LIG    1        1.242   2.093   0.001  0.00  0.00    +0.330 C 
BRANCH   7   8
ATOM      8  C   LIG    1        0.947   3.571   0.012  0.00  0.00    -0.050 A 
ATOM      9  C   LIG    1        0.806   4.256  -1.180  0.00  0.00    +0.020 A 
ATOM     10  C   LIG    1        0.530   5.611  -1.170  0.00  0.00    +0.130 A 
ATOM     11  C   LIG    1        0.406   6.282   0.032  0.00  0.00    -0.650 A 
ATOM     12  C   LIG    1        0.552   5.598   1.224  0.00  0.00    +0.130 A 
ATOM     13  C   LIG    1        0.823   4.242   1.214  0.00  0.00    +0.020 A 
BRANCH  11  14
ATOM     14  S   LIG    1        0.061   8.010   0.044  0.00  0.00    +2.510 S 
ATOM     15  O   LIG    1       -0.589   8.229   1.289  0.00  0.00    -0.930 OA
ATOM     16  O   LIG    1       -0.612   8.242  -1.185  0.00  0.00    -0.930 OA
BRANCH  14  17
ATOM     17  C   LIG    1        1.696   8.797   0.033  0.00  0.00    -0.340 C 
BRANCH  17  18
ATOM     18  C   LIG    1        1.529  10.318   0.043  0.00  0.00    +0.230 C 
BRANCH  18  19
ATOM     19  O   LIG    1        2.817  10.938   0.034  0.00  0.00    -0.560 OA
ATOM     20  H   LIG    1        2.788  11.905   0.039  0.00  0.00    +0.390 HD
ENDBRANCH  18  19
ENDBRANCH  17  18
ENDBRANCH  14  17
ENDBRANCH  11  14
ENDBRANCH   7   8
ENDBRANCH   3   7
BRANCH   5  21
ATOM     21  C   LIG    1       -1.136  -2.159   0.001  0.00  0.00    +0.280 C 
BRANCH  21  22
ATOM     22  C   LIG    1       -2.571  -2.688   0.012  0.00  0.00    +0.070 C 
BRANCH  22  23
ATOM     23  C   LIG    1       -2.551  -4.195   0.004  0.00  0.00    -0.080 A 
ATOM     24  C   LIG    1       -2.559  -4.880  -1.197  0.00  0.00    +0.010 A 
ATOM     25  C   LIG    1       -2.535  -6.262  -1.205  0.00  0.00    +0.000 A 
ATOM     26  C   LIG    1       -2.514  -6.959  -0.011  0.00  0.00    +0.000 A 
ATOM     27  C   LIG    1       -2.512  -6.275   1.190  0.00  0.00    +0.000 A 
ATOM     28  C   LIG    1       -2.530  -4.893   1.197  0.00  0.00    +0.010 A 
ENDBRANCH  22  23
ENDBRANCH  21  22
ENDBRANCH   5  21
TORSDOF 9
