REMARK  Name = ZINCrg00000AJlNZ.1
REMARK                            x       y       z     vdW  Elec       q    Type
REMARK                         _______ _______ _______ _____ _____    ______ ____
ROOT
ATOM      1  C   LIG    1       -0.625  -5.138  -0.043  0.00  0.00    +0.220 C 
ATOM      2  C   LIG    1       -0.294  -6.588  -0.455  0.00  0.00    +0.060 C 
ATOM      3  C   LIG    1        1.247  -6.558  -0.635  0.00  0.00    +0.040 C 
ATOM      4  C   LIG    1        1.671  -5.568   0.479  0.00  0.00    +0.250 C 
ATOM      5  N   LIG    1        0.606  -4.548   0.502  0.00  0.00    -0.610 N 
ATOM      6  C   LIG    1        0.739  -3.284   0.952  0.00  0.00    +0.580 C 
ATOM      7  O   LIG    1       -0.230  -2.552   1.002  0.00  0.00    -0.510 OA
ENDROOT
BRANCH   6   8
ATOM      8  C   LIG    1        2.064  -2.789   1.387  0.00  0.00    -0.050 A 
ATOM      9  C   LIG    1        2.929  -3.596   2.114  0.00  0.00    +0.000 A 
ATOM     10  C   LIG    1        4.168  -3.094   2.505  0.00  0.00    +0.340 A 
ATOM     11  N   LIG    1        4.549  -1.877   2.207  0.00  0.00    -0.450 NA
ATOM     12  C   LIG    1        3.769  -1.044   1.511  0.00  0.00    +0.310 A 
ATOM     13  N   LIG    1        4.181   0.195   1.219  0.00  0.00    -0.460 NA
ATOM     14  C   LIG    1        3.428   1.023   0.536  0.00  0.00    +0.330 A 
ATOM     15  C   LIG    1        2.163   0.658   0.080  0.00  0.00    -0.020 A 
ATOM     16  C   LIG    1        1.681  -0.594   0.343  0.00  0.00    +0.120 A 
ATOM     17  C   LIG    1        2.493  -1.475   1.075  0.00  0.00    -0.120 A 
ENDBRANCH   6   8
BRANCH   1  18
ATOM     18  C   LIG    1       -1.720  -5.135   1.025  0.00  0.00    +0.280 C 
BRANCH  18  20
ATOM     19  C   LIG    1       -3.136  -3.504   2.154  0.00  0.00    +0.610 C 
ATOM     20  N   LIG    1       -2.257  -3.780   1.169  0.00  0.00    -0.690 N 
ATOM     21  H   LIG    1       -1.981  -3.081   0.556  0.00  0.00    +0.420 HD
ATOM     22  O   LIG    1       -3.482  -4.381   2.922  0.00  0.00    -0.550 OA
BRANCH  19  27
ATOM     23  C   LIG    1       -5.687   0.514   3.774  0.00  0.00    +0.200 C 
ATOM     24  C   LIG    1       -4.778  -0.405   2.999  0.00  0.00    +0.200 A 
ATOM     25  N   LIG    1       -4.046  -0.076   1.963  0.00  0.00    -0.290 NA
ATOM     26  N   LIG    1       -3.387  -1.099   1.548  0.00  0.00    -0.230 NA
ATOM     27  C   LIG    1       -3.676  -2.140   2.299  0.00  0.00    +0.130 A 
ATOM     28  N   LIG    1       -4.571  -1.714   3.246  0.00  0.00    -0.550 N 
ATOM     29  H   LIG    1       -4.974  -2.245   3.951  0.00  0.00    +0.440 HD
ENDBRANCH  19  27
ENDBRANCH  18  20
ENDBRANCH   1  18
TORSDOF 4
