REMARK  Name = ZINCrg00000AJlNZ.0
REMARK                            x       y       z     vdW  Elec       q    Type
REMARK                         _______ _______ _______ _____ _____    ______ ____
ROOT
ATOM      1  C   LIG    1        5.785   3.158  -0.235  0.00  0.00    +0.220 C 
ATOM      2  C   LIG    1        7.293   2.831  -0.286  0.00  0.00    +0.060 C 
ATOM      3  C   LIG    1        7.931   4.013   0.490  0.00  0.00    +0.040 C 
ATOM      4  C   LIG    1        6.865   4.280   1.581  0.00  0.00    +0.250 C 
ATOM      5  N   LIG    1        5.572   4.056   0.909  0.00  0.00    -0.610 N 
ATOM      6  C   LIG    1        4.391   4.587   1.282  0.00  0.00    +0.580 C 
ATOM      7  O   LIG    1        3.371   4.265   0.704  0.00  0.00    -0.510 OA
ENDROOT
BRANCH   6   8
ATOM      8  C   LIG    1        4.335   5.561   2.394  0.00  0.00    -0.050 A 
ATOM      9  C   LIG    1        5.106   5.390   3.537  0.00  0.00    +0.000 A 
ATOM     10  C   LIG    1        5.029   6.330   4.562  0.00  0.00    +0.340 A 
ATOM     11  N   LIG    1        4.241   7.374   4.488  0.00  0.00    -0.450 NA
ATOM     12  C   LIG    1        3.467   7.600   3.422  0.00  0.00    +0.310 A 
ATOM     13  N   LIG    1        2.670   8.673   3.372  0.00  0.00    -0.460 NA
ATOM     14  C   LIG    1        1.904   8.908   2.334  0.00  0.00    +0.330 A 
ATOM     15  C   LIG    1        1.880   8.056   1.232  0.00  0.00    -0.020 A 
ATOM     16  C   LIG    1        2.671   6.940   1.219  0.00  0.00    +0.120 A 
ATOM     17  C   LIG    1        3.488   6.695   2.333  0.00  0.00    -0.120 A 
ENDBRANCH   6   8
BRANCH   1  18
ATOM     18  C   LIG    1        4.980   1.871  -0.044  0.00  0.00    +0.280 C 
BRANCH  18  20
ATOM     19  C   LIG    1        2.643   1.182  -0.082  0.00  0.00    +0.610 C 
ATOM     20  N   LIG    1        3.566   2.134  -0.324  0.00  0.00    -0.680 N 
ATOM     21  H   LIG    1        3.294   2.993  -0.683  0.00  0.00    +0.420 HD
ATOM     22  O   LIG    1        2.984   0.105   0.367  0.00  0.00    -0.540 OA
BRANCH  19  28
ATOM     23  C   LIG    1       -1.593   3.407  -1.465  0.00  0.00    +0.190 C 
ATOM     24  C   LIG    1       -0.606   2.389  -0.954  0.00  0.00    +0.190 A 
ATOM     25  N   LIG    1       -0.897   1.181  -0.541  0.00  0.00    -0.300 NA
ATOM     26  N   LIG    1        0.188   0.591  -0.174  0.00  0.00    -0.360 N 
ATOM     27  H   LIG    1        0.255  -0.312   0.175  0.00  0.00    +0.460 HD
ATOM     28  C   LIG    1        1.217   1.446  -0.365  0.00  0.00    +0.170 A 
ATOM     29  N   LIG    1        0.708   2.564  -0.852  0.00  0.00    -0.460 NA
ENDBRANCH  19  28
ENDBRANCH  18  20
ENDBRANCH   1  18
TORSDOF 4
