REMARK  Name = ZINCtV00000tRPkx.0
REMARK                            x       y       z     vdW  Elec       q    Type
REMARK                         _______ _______ _______ _____ _____    ______ ____
ROOT
ATOM      1  O   LIG    1       -7.897  -3.185   0.059  0.00  0.00    -0.450 OA
ATOM      2  C   LIG    1       -6.784  -3.679   0.046  0.00  0.00    +0.510 A 
ATOM      3  C   LIG    1       -6.658  -5.079   0.037  0.00  0.00    -0.070 A 
ATOM      4  C   LIG    1       -5.399  -5.649   0.022  0.00  0.00    +0.090 A 
ATOM      5  C   LIG    1       -4.235  -4.748   0.017  0.00  0.00    -0.170 A 
ATOM      6  C   LIG    1       -4.452  -3.360   0.026  0.00  0.00    +0.200 A 
ATOM      7  C   LIG    1       -3.362  -2.501   0.021  0.00  0.00    -0.060 A 
ATOM      8  C   LIG    1       -2.078  -3.018   0.006  0.00  0.00    +0.200 A 
ATOM      9  C   LIG    1       -1.871  -4.397  -0.009  0.00  0.00    -0.090 A 
ATOM     10 CL   LIG    1       -0.253  -5.026  -0.036  0.00  0.00    -0.030 Cl
ATOM     11  C   LIG    1       -2.933  -5.255   0.002  0.00  0.00    +0.160 A 
ATOM     12  O   LIG    1       -5.711  -2.873   0.041  0.00  0.00    -0.270 OA
ENDROOT
BRANCH   4  13
ATOM     13  C   LIG    1       -5.227  -7.119   0.013  0.00  0.00    -0.080 A 
ATOM     14  C   LIG    1       -4.624  -7.761   1.095  0.00  0.00    +0.030 A 
ATOM     15  C   LIG    1       -4.472  -9.132   1.083  0.00  0.00    +0.010 A 
ATOM     16  C   LIG    1       -4.905  -9.869  -0.005  0.00  0.00    +0.030 A 
ATOM     17  C   LIG    1       -5.499  -9.238  -1.084  0.00  0.00    +0.010 A 
ATOM     18  C   LIG    1       -5.662  -7.868  -1.081  0.00  0.00    +0.040 A 
ENDBRANCH   4  13
BRANCH   8  19
ATOM     19  O   LIG    1       -1.012  -2.176   0.000  0.00  0.00    -0.270 OA
BRANCH  19  20
ATOM     20  C   LIG    1       -1.293  -0.775   0.010  0.00  0.00    +0.220 C 
BRANCH  20  21
ATOM     21  C   LIG    1        0.002  -0.004   0.002  0.00  0.00    +0.400 C 
ATOM     22  O   LIG    1        1.060  -0.596  -0.011  0.00  0.00    -0.410 OA
BRANCH  21  23
ATOM     23  C   LIG    1       -0.018   1.467   0.010  0.00  0.00    -0.160 A 
ATOM     24  C   LIG    1       -1.237   2.153   0.020  0.00  0.00    +0.080 A 
ATOM     25  C   LIG    1       -1.248   3.531   0.033  0.00  0.00    +0.020 A 
ATOM     26  C   LIG    1       -0.055   4.237   0.025  0.00  0.00    -0.000 A 
ATOM     27  C   LIG    1        1.156   3.564   0.010  0.00  0.00    +0.020 A 
ATOM     28 CL   LIG    1       -0.079   5.973   0.033  0.00  0.00    -0.050 Cl
ATOM     29  C   LIG    1        1.182   2.186   0.003  0.00  0.00    +0.110 A 
ENDBRANCH  21  23
ENDBRANCH  20  21
ENDBRANCH  19  20
ENDBRANCH   8  19
TORSDOF 5
