REMARK  Name = ZINCrg00000fRr9K.0
REMARK                            x       y       z     vdW  Elec       q    Type
REMARK                         _______ _______ _______ _____ _____    ______ ____
ROOT
ATOM      1  N   LIG    1        0.501   0.232   2.733  0.00  0.00    -0.730 N 
ATOM      2  H   LIG    1        0.022  -0.455   2.243  0.00  0.00    +0.400 HD
ATOM      3  C   LIG    1        0.444   1.515   2.325  0.00  0.00    +0.520 C 
ATOM      4  O   LIG    1        1.043   2.373   2.938  0.00  0.00    -0.530 OA
ENDROOT
BRANCH   3   5
ATOM      5  C   LIG    1       -0.363   1.883   1.107  0.00  0.00    -0.020 C 
ATOM      6  C   LIG    1       -0.260   3.390   0.859  0.00  0.00    +0.050 C 
ATOM      7  C   LIG    1       -1.103   3.770  -0.361  0.00  0.00    +0.030 C 
ATOM      8  C   LIG    1       -0.566   3.039  -1.595  0.00  0.00    +0.290 C 
ATOM      9  N   LIG    1       -0.528   1.598  -1.312  0.00  0.00    -0.600 N 
ATOM     10  C   LIG    1       -1.132   0.720  -2.138  0.00  0.00    +0.610 C 
ATOM     11  O   LIG    1       -1.006  -0.476  -1.952  0.00  0.00    -0.520 OA
ATOM     12  C   LIG    1        0.179   1.131  -0.112  0.00  0.00    +0.300 C 
BRANCH  10  13
ATOM     13  C   LIG    1       -1.940   1.206  -3.261  0.00  0.00    -0.090 A 
ATOM     14  C   LIG    1       -2.492   0.437  -4.245  0.00  0.00    +0.050 A 
ATOM     15  C   LIG    1       -3.177   1.310  -5.104  0.00  0.00    -0.060 A 
ATOM     16  C   LIG    1       -3.015   2.559  -4.614  0.00  0.00    +0.200 A 
ATOM     17  O   LIG    1       -2.273   2.491  -3.500  0.00  0.00    -0.160 OA
ENDBRANCH  10  13
ENDBRANCH   3   5
BRANCH   1  21
ATOM     18  N   LIG    1        2.953  -1.833   5.436  0.00  0.00    -1.000 NA
ATOM     19  C   LIG    1        1.528  -1.766   5.786  0.00  0.00    +0.300 C 
ATOM     20  C   LIG    1        0.727  -1.414   4.529  0.00  0.00    +0.010 C 
ATOM     21  C   LIG    1        1.285  -0.127   3.917  0.00  0.00    +0.240 C 
ATOM     22  C   LIG    1        2.746  -0.343   3.515  0.00  0.00    +0.000 C 
ATOM     23  C   LIG    1        3.570  -0.683   4.761  0.00  0.00    +0.300 C 
BRANCH  18  24
ATOM     24  S   LIG    1        3.848  -3.180   5.795  0.00  0.00    +2.610 S 
ATOM     25  O   LIG    1        3.182  -3.756   6.910  0.00  0.00    -0.950 OA
ATOM     26  O   LIG    1        5.180  -2.696   5.907  0.00  0.00    -0.950 OA
BRANCH  24  28
ATOM     27  C   LIG    1        4.468  -5.532   4.545  0.00  0.00    +0.070 C 
ATOM     28  C   LIG    1        3.677  -4.240   4.333  0.00  0.00    -0.370 C 
ENDBRANCH  24  28
ENDBRANCH  18  24
ENDBRANCH   1  21
TORSDOF 5
