REMARK  Name = ZINCrD00000e7GJl.0
REMARK                            x       y       z     vdW  Elec       q    Type
REMARK                         _______ _______ _______ _____ _____    ______ ____
ROOT
ATOM      1  C   LIG    1       -0.131  -2.851   8.852  0.00  0.00    +0.520 C 
ATOM      2  N   LIG    1        0.715  -1.875   8.468  0.00  0.00    -0.600 N 
ATOM      3  C   LIG    1        1.252  -1.912   7.126  0.00  0.00    +0.290 C 
ATOM      4  C   LIG    1        0.303  -1.148   6.169  0.00  0.00    +0.010 C 
ATOM      5  C   LIG    1        0.380   0.299   6.422  0.00  0.00    +0.240 C 
ATOM      6  C   LIG    1       -0.080   0.716   7.816  0.00  0.00    +0.030 C 
ATOM      7  C   LIG    1        1.071   0.582   8.782  0.00  0.00    -0.070 C 
ATOM      8  C   LIG    1        0.948   1.652   9.869  0.00  0.00    +0.040 C 
ATOM      9  C   LIG    1        2.390   0.775   8.031  0.00  0.00    +0.030 C 
ATOM     10  C   LIG    1        1.055  -0.812   9.435  0.00  0.00    +0.270 C 
ATOM     11  O   LIG    1       -0.380  -3.769   8.099  0.00  0.00    -0.530 OA
ENDROOT
BRANCH   5  12
ATOM     12  N   LIG    1       -0.453   0.989   5.433  0.00  0.00    -0.720 N 
ATOM     13  H   LIG    1       -1.357   1.256   5.661  0.00  0.00    +0.400 HD
ATOM     14  C   LIG    1        0.038   1.252   4.205  0.00  0.00    +0.530 C 
ATOM     15  O   LIG    1        1.168   0.917   3.920  0.00  0.00    -0.530 OA
BRANCH  14  16
ATOM     16  C   LIG    1       -0.818   1.961   3.188  0.00  0.00    -0.080 C 
ATOM     17  C   LIG    1       -2.075   1.134   2.914  0.00  0.00    +0.060 C 
ATOM     18  C   LIG    1       -1.219   3.335   3.728  0.00  0.00    +0.060 C 
BRANCH  16  19
ATOM     19  C   LIG    1       -0.028   2.134   1.889  0.00  0.00    +0.090 C 
BRANCH  19  20
ATOM     20  C   LIG    1       -0.840   2.982   0.907  0.00  0.00    +0.450 C 
ATOM     21  F   LIG    1       -2.070   2.362   0.663  0.00  0.00    -0.180 F 
ATOM     22  F   LIG    1       -0.135   3.108  -0.294  0.00  0.00    -0.180 F 
ATOM     23  F   LIG    1       -1.058   4.250   1.456  0.00  0.00    -0.180 F 
ENDBRANCH  19  20
ENDBRANCH  16  19
ENDBRANCH  14  16
ENDBRANCH   5  12
BRANCH   1  24
ATOM     24  C   LIG    1       -0.769  -2.802  10.217  0.00  0.00    -0.010 C 
ATOM     25  C   LIG    1       -1.900  -1.772  10.214  0.00  0.00    +0.060 C 
BRANCH  24  26
ATOM     26  C   LIG    1       -1.334  -4.180  10.565  0.00  0.00    +0.190 C 
BRANCH  26  28
ATOM     27  C   LIG    1       -2.389  -5.411  12.331  0.00  0.00    +0.200 C 
ATOM     28  O   LIG    1       -1.835  -4.165  11.903  0.00  0.00    -0.390 OA
ENDBRANCH  26  28
ENDBRANCH  24  26
ENDBRANCH   1  24
TORSDOF 7
