REMARK  Name = ZINCpk000000pJte.0
REMARK                            x       y       z     vdW  Elec       q    Type
REMARK                         _______ _______ _______ _____ _____    ______ ____
ROOT
ATOM      1  C   LIG    1        3.711  -0.707  -0.037  0.00  0.00    +0.170 C 
ATOM      2  N   LIG    1        3.570  -2.007  -0.716  0.00  0.00    -0.710 N 
ATOM      3  H   LIG    1        3.312  -2.153  -1.639  0.00  0.00    +0.440 HD
ATOM      4  C   LIG    1        3.868  -2.951   0.195  0.00  0.00    +0.710 C 
ATOM      5  N   LIG    1        4.187  -2.431   1.385  0.00  0.00    -0.570 N 
ATOM      6  O   LIG    1        3.850  -4.144  -0.038  0.00  0.00    -0.530 OA
ATOM      7  C   LIG    1        4.128  -1.084   1.371  0.00  0.00    +0.540 C 
ATOM      8  O   LIG    1        4.361  -0.331   2.292  0.00  0.00    -0.450 OA
ENDROOT
BRANCH   1   9
ATOM      9  C   LIG    1        2.396   0.029  -0.021  0.00  0.00    -0.100 A 
ATOM     10  C   LIG    1        1.208  -0.679  -0.013  0.00  0.00    +0.020 A 
ATOM     11  C   LIG    1        0.002  -0.004   0.002  0.00  0.00    +0.010 A 
ATOM     12  C   LIG    1       -0.017   1.378   0.010  0.00  0.00    +0.020 A 
ATOM     13  C   LIG    1        1.171   2.086   0.002  0.00  0.00    +0.010 A 
ATOM     14  C   LIG    1        2.377   1.411  -0.015  0.00  0.00    +0.040 A 
ENDBRANCH   1   9
BRANCH   1  16
ATOM     15  C   LIG    1        6.081  -0.676  -0.828  0.00  0.00    +0.030 C 
ATOM     16  C   LIG    1        4.792   0.139  -0.713  0.00  0.00    +0.060 C 
ENDBRANCH   1  16
BRANCH   5  17
ATOM     17  C   LIG    1        4.554  -3.226   2.559  0.00  0.00    +0.410 C 
BRANCH  17  18
ATOM     18  C   LIG    1        6.046  -3.443   2.572  0.00  0.00    +0.450 C 
ATOM     19  O   LIG    1        6.731  -2.981   1.690  0.00  0.00    -0.490 OA
BRANCH  18  20
ATOM     20  O   LIG    1        6.613  -4.150   3.562  0.00  0.00    -0.350 OA
BRANCH  20  21
ATOM     21  C   LIG    1        8.054  -4.319   3.510  0.00  0.00    +0.240 C 
BRANCH  21  22
ATOM     22  C   LIG    1        8.514  -5.145   4.712  0.00  0.00    -0.130 C 
ATOM     23  C   LIG    1        8.723  -4.316   5.994  0.00  0.00    +0.220 C 
ATOM     24  O   LIG    1        9.928  -5.090   6.162  0.00  0.00    -0.370 OA
ATOM     25  C   LIG    1        7.682  -6.412   4.921  0.00  0.00    +0.070 C 
ATOM     26  C   LIG    1       10.035  -5.386   4.755  0.00  0.00    +0.230 C 
ENDBRANCH  21  22
ENDBRANCH  20  21
ENDBRANCH  18  20
ENDBRANCH  17  18
ENDBRANCH   5  17
TORSDOF 7
