REMARK  Name = ZINCrD0000073o6Y.0
REMARK                            x       y       z     vdW  Elec       q    Type
REMARK                         _______ _______ _______ _____ _____    ______ ____
ROOT
ATOM      1  C   LIG    1        4.030   7.549   0.664  0.00  0.00    +0.520 C 
ATOM      2  N   LIG    1        4.953   8.204  -0.069  0.00  0.00    -0.670 N 
ATOM      3  H   LIG    1        5.642   7.707  -0.537  0.00  0.00    +0.420 HD
ATOM      4  O   LIG    1        3.220   8.173   1.316  0.00  0.00    -0.520 OA
ENDROOT
BRANCH   2   5
ATOM      5  C   LIG    1        4.917   9.595  -0.153  0.00  0.00    +0.170 A 
ATOM      6  C   LIG    1        3.696  10.261  -0.134  0.00  0.00    +0.010 A 
ATOM      7  C   LIG    1        3.657  11.634  -0.213  0.00  0.00    +0.070 A 
ATOM      8  C   LIG    1        4.846  12.360  -0.324  0.00  0.00    -0.160 A 
ATOM      9  C   LIG    1        6.071  11.688  -0.348  0.00  0.00    +0.100 A 
ATOM     10  C   LIG    1        6.103  10.315  -0.263  0.00  0.00    -0.030 A 
BRANCH   8  11
ATOM     11  C   LIG    1        4.809  13.833  -0.415  0.00  0.00    +0.560 C 
ATOM     12  N   LIG    1        3.707  14.451  -0.886  0.00  0.00    -0.620 N 
ATOM     13  C   LIG    1        2.590  13.660  -1.408  0.00  0.00    +0.280 C 
ATOM     14  C   LIG    1        3.627  15.913  -0.875  0.00  0.00    +0.290 C 
ATOM     15  O   LIG    1        5.771  14.488  -0.065  0.00  0.00    -0.540 OA
ENDBRANCH   8  11
ENDBRANCH   2   5
BRANCH   1  16
ATOM     16  C   LIG    1        4.004   6.043   0.672  0.00  0.00    +0.090 C 
BRANCH  16  17
ATOM     17  C   LIG    1        2.869   5.557   1.575  0.00  0.00    +0.070 C 
BRANCH  17  18
ATOM     18  C   LIG    1        2.844   4.050   1.584  0.00  0.00    +0.400 C 
ATOM     19  O   LIG    1        3.654   3.426   0.931  0.00  0.00    -0.440 OA
BRANCH  18  26
ATOM     20  C   LIG    1        1.810   1.933   2.393  0.00  0.00    +0.180 A 
ATOM     21  C   LIG    1        0.856   1.272   3.150  0.00  0.00    -0.080 A 
ATOM     22  C   LIG    1       -0.066   1.991   3.885  0.00  0.00    +0.090 A 
ATOM     23  C   LIG    1       -0.039   3.377   3.881  0.00  0.00    -0.140 A 
ATOM     24  C   LIG    1        0.901   4.053   3.136  0.00  0.00    +0.100 A 
ATOM     25  C   LIG    1       -1.048   4.148   4.693  0.00  0.00    +0.100 C 
ATOM     26  C   LIG    1        1.839   3.337   2.381  0.00  0.00    -0.200 A 
BRANCH  20  28
ATOM     27  C   LIG    1        2.623  -0.197   1.728  0.00  0.00    +0.240 C 
ATOM     28  O   LIG    1        2.713   1.228   1.667  0.00  0.00    -0.290 OA
ENDBRANCH  20  28
ENDBRANCH  18  26
ENDBRANCH  17  18
ENDBRANCH  16  17
ENDBRANCH   1  16
TORSDOF 7
