REMARK  Name = ZINCtV00000L6kxA.1
REMARK                            x       y       z     vdW  Elec       q    Type
REMARK                         _______ _______ _______ _____ _____    ______ ____
ROOT
ATOM      1  P   LIG    1       -3.670   4.481  -1.882  0.00  0.00    +2.420 P 
ATOM      2  O   LIG    1       -3.854   3.358  -2.828  0.00  0.00    -1.010 OA
ENDROOT
BRANCH   1   3
ATOM      3  N   LIG    1       -2.737   5.636  -2.578  0.00  0.00    -1.100 N 
ATOM      4  H   LIG    1       -2.403   5.511  -3.481  0.00  0.00    +0.430 HD
BRANCH   3   5
ATOM      5  C   LIG    1       -2.423   6.802  -1.872  0.00  0.00    +0.130 A 
ATOM      6  C   LIG    1       -2.905   6.984  -0.582  0.00  0.00    -0.040 A 
ATOM      7  C   LIG    1       -2.590   8.133   0.117  0.00  0.00    +0.040 A 
ATOM      8  C   LIG    1       -1.801   9.109  -0.473  0.00  0.00    +0.110 A 
ATOM      9  C   LIG    1       -1.323   8.931  -1.763  0.00  0.00    -0.030 A 
ATOM     10  C   LIG    1       -1.633   7.780  -2.461  0.00  0.00    +0.020 A 
BRANCH   8  11
ATOM     11  O   LIG    1       -1.496  10.243   0.214  0.00  0.00    -0.310 OA
BRANCH  11  12
ATOM     12  C   LIG    1       -0.585  11.152  -0.407  0.00  0.00    +0.150 C 
ATOM     13  C   LIG    1        0.108  11.992   0.668  0.00  0.00    +0.070 C 
ATOM     14  C   LIG    1       -1.351  12.073  -1.359  0.00  0.00    +0.020 C 
ENDBRANCH  11  12
ENDBRANCH   8  11
ENDBRANCH   3   5
ENDBRANCH   1   3
BRANCH   1  15
ATOM     15  O   LIG    1       -2.951   3.944  -0.545  0.00  0.00    -0.640 OA
BRANCH  15  21
ATOM     16  C   LIG    1        1.886   3.752  -1.173  0.00  0.00    +0.090 C 
ATOM     17  C   LIG    1        0.541   3.078  -1.090  0.00  0.00    -0.070 A 
ATOM     18  C   LIG    1        0.444   1.708  -1.251  0.00  0.00    +0.010 A 
ATOM     19  C   LIG    1       -0.789   1.086  -1.175  0.00  0.00    +0.050 A 
ATOM     20  C   LIG    1       -1.928   1.833  -0.945  0.00  0.00    +0.020 A 
ATOM     21  C   LIG    1       -1.833   3.207  -0.778  0.00  0.00    +0.090 A 
ATOM     22  C   LIG    1       -0.595   3.829  -0.854  0.00  0.00    -0.010 A 
ENDBRANCH  15  21
ENDBRANCH   1  15
BRANCH   1  23
ATOM     23  O   LIG    1       -5.105   5.106  -1.504  0.00  0.00    -0.640 OA
BRANCH  23  24
ATOM     24  C   LIG    1       -5.925   5.292  -2.572  0.00  0.00    +0.100 A 
ATOM     25  C   LIG    1       -5.905   6.496  -3.262  0.00  0.00    -0.020 A 
ATOM     26  C   LIG    1       -6.735   6.681  -4.350  0.00  0.00    +0.030 A 
ATOM     27  C   LIG    1       -7.594   5.673  -4.745  0.00  0.00    +0.010 A 
ATOM     28  C   LIG    1       -7.620   4.474  -4.057  0.00  0.00    -0.060 A 
ATOM     29  C   LIG    1       -8.557   3.376  -4.491  0.00  0.00    +0.100 C 
ATOM     30  C   LIG    1       -6.787   4.281  -2.971  0.00  0.00    +0.030 A 
ENDBRANCH  23  24
ENDBRANCH   1  23
TORSDOF 8
