REMARK  Name = ZINCtV00000L6kxA.0
REMARK                            x       y       z     vdW  Elec       q    Type
REMARK                         _______ _______ _______ _____ _____    ______ ____
ROOT
ATOM      1  P   LIG    1       -2.458   3.591  -0.986  0.00  0.00    +2.420 P 
ATOM      2  O   LIG    1       -1.222   3.957  -1.713  0.00  0.00    -1.010 OA
ENDROOT
BRANCH   1   3
ATOM      3  N   LIG    1       -3.090   2.224  -1.636  0.00  0.00    -1.100 N 
ATOM      4  H   LIG    1       -2.647   1.793  -2.383  0.00  0.00    +0.430 HD
BRANCH   3   5
ATOM      5  C   LIG    1       -4.268   1.681  -1.112  0.00  0.00    +0.130 A 
ATOM      6  C   LIG    1       -4.900   2.295  -0.039  0.00  0.00    -0.040 A 
ATOM      7  C   LIG    1       -6.065   1.760   0.474  0.00  0.00    +0.040 A 
ATOM      8  C   LIG    1       -6.599   0.604  -0.076  0.00  0.00    +0.110 A 
ATOM      9  C   LIG    1       -5.967  -0.013  -1.145  0.00  0.00    -0.030 A 
ATOM     10  C   LIG    1       -4.804   0.523  -1.662  0.00  0.00    +0.020 A 
BRANCH   8  11
ATOM     11  O   LIG    1       -7.744   0.075   0.434  0.00  0.00    -0.310 OA
BRANCH  11  12
ATOM     12  C   LIG    1       -8.302  -1.047  -0.253  0.00  0.00    +0.150 C 
ATOM     13  C   LIG    1       -9.804  -1.121   0.028  0.00  0.00    +0.070 C 
ATOM     14  C   LIG    1       -7.628  -2.330   0.236  0.00  0.00    +0.020 C 
ENDBRANCH  11  12
ENDBRANCH   8  11
ENDBRANCH   3   5
ENDBRANCH   1   3
BRANCH   1  15
ATOM     15  O   LIG    1       -2.113   3.338   0.566  0.00  0.00    -0.640 OA
BRANCH  15  21
ATOM     16  C   LIG    1        2.717   3.088   1.219  0.00  0.00    +0.100 C 
ATOM     17  C   LIG    1        1.369   2.426   1.092  0.00  0.00    -0.060 A 
ATOM     18  C   LIG    1        1.264   1.050   1.181  0.00  0.00    +0.010 A 
ATOM     19  C   LIG    1        0.029   0.440   1.065  0.00  0.00    +0.030 A 
ATOM     20  C   LIG    1       -1.102   1.203   0.854  0.00  0.00    -0.020 A 
ATOM     21  C   LIG    1       -1.000   2.584   0.769  0.00  0.00    +0.100 A 
ATOM     22  C   LIG    1        0.240   3.194   0.886  0.00  0.00    +0.030 A 
ENDBRANCH  15  21
ENDBRANCH   1  15
BRANCH   1  23
ATOM     23  O   LIG    1       -3.528   4.788  -1.110  0.00  0.00    -0.640 OA
BRANCH  23  24
ATOM     24  C   LIG    1       -3.724   5.225  -2.382  0.00  0.00    +0.090 A 
ATOM     25  C   LIG    1       -2.946   6.254  -2.891  0.00  0.00    +0.020 A 
ATOM     26  C   LIG    1       -3.145   6.693  -4.186  0.00  0.00    +0.050 A 
ATOM     27  C   LIG    1       -4.126   6.114  -4.970  0.00  0.00    +0.010 A 
ATOM     28  C   LIG    1       -4.906   5.091  -4.463  0.00  0.00    -0.070 A 
ATOM     29  C   LIG    1       -5.974   4.463  -5.321  0.00  0.00    +0.100 C 
ATOM     30  C   LIG    1       -4.707   4.645  -3.171  0.00  0.00    -0.010 A 
ENDBRANCH  23  24
ENDBRANCH   1  23
TORSDOF 8
