REMARK  Name = ZINCrD000000AKs8.0
REMARK                            x       y       z     vdW  Elec       q    Type
REMARK                         _______ _______ _______ _____ _____    ______ ____
ROOT
ATOM      1  O   LIG    1        2.449   0.788  -0.812  0.00  0.00    -0.510 OA
ATOM      2  C   LIG    1        2.438  -0.056   0.059  0.00  0.00    +0.530 C 
ATOM      3  N   LIG    1        1.265  -0.480   0.571  0.00  0.00    -0.720 N 
ATOM      4  H   LIG    1        1.258  -1.099   1.318  0.00  0.00    +0.400 HD
ENDROOT
BRANCH   2   5
ATOM      5  C   LIG    1        3.734  -0.630   0.568  0.00  0.00    -0.010 C 
ATOM      6  C   LIG    1        3.991  -0.205   2.032  0.00  0.00    +0.070 C 
ATOM      7  C   LIG    1        5.487   0.015   2.097  0.00  0.00    +0.520 C 
ATOM      8  N   LIG    1        5.993   0.121   0.857  0.00  0.00    -0.610 N 
ATOM      9  O   LIG    1        6.134   0.085   3.120  0.00  0.00    -0.520 OA
ATOM     10  C   LIG    1        4.942   0.001  -0.160  0.00  0.00    +0.290 C 
BRANCH   8  11
ATOM     11  C   LIG    1        7.412   0.329   0.558  0.00  0.00    +0.240 C 
ATOM     12  C   LIG    1        8.254  -0.809   1.171  0.00  0.00    +0.020 C 
ATOM     13  C   LIG    1        9.548  -0.107   1.654  0.00  0.00    +0.020 C 
ATOM     14  C   LIG    1        9.022   1.247   2.192  0.00  0.00    +0.010 C 
ATOM     15  C   LIG    1        7.901   1.636   1.207  0.00  0.00    +0.010 C 
ENDBRANCH   8  11
ENDBRANCH   2   5
BRANCH   3  16
ATOM     16  C   LIG    1        0.002  -0.006   0.000  0.00  0.00    +0.220 C 
ATOM     17  C   LIG    1       -0.056  -0.368  -1.487  0.00  0.00    +0.020 C 
ATOM     18  C   LIG    1       -0.039  -1.891  -1.635  0.00  0.00    +0.210 C 
ATOM     19  O   LIG    1       -1.137  -2.452  -0.913  0.00  0.00    -0.380 OA
ATOM     20  C   LIG    1       -1.109  -2.187   0.491  0.00  0.00    +0.210 C 
ATOM     21  C   LIG    1       -1.170  -0.675   0.725  0.00  0.00    +0.020 C 
BRANCH  16  22
ATOM     22  C   LIG    1       -0.094   1.489   0.160  0.00  0.00    -0.070 A 
ATOM     23  C   LIG    1        0.631   2.126   1.149  0.00  0.00    +0.030 A 
ATOM     24  C   LIG    1        0.548   3.499   1.293  0.00  0.00    +0.020 A 
ATOM     25  C   LIG    1       -0.269   4.233   0.454  0.00  0.00    +0.040 A 
ATOM     26  C   LIG    1       -0.999   3.595  -0.533  0.00  0.00    -0.090 A 
ATOM     27 BR   LIG    1       -2.118   4.599  -1.680  0.00  0.00    -0.050 Br
ATOM     28  C   LIG    1       -0.911   2.223  -0.680  0.00  0.00    +0.050 A 
ENDBRANCH  16  22
ENDBRANCH   3  16
TORSDOF 4
