REMARK  Name = ZINCrg000000p96y.1
REMARK                            x       y       z     vdW  Elec       q    Type
REMARK                         _______ _______ _______ _____ _____    ______ ____
ROOT
ATOM      1  N   LIG    1        4.839   0.207  -0.043  0.00  0.00    -0.660 N 
ATOM      2  H   LIG    1        4.083  -0.209  -0.488  0.00  0.00    +0.420 HD
ATOM      3  C   LIG    1        4.661   1.331   0.679  0.00  0.00    +0.570 C 
ATOM      4  O   LIG    1        5.586   1.798   1.314  0.00  0.00    -0.490 OA
ENDROOT
BRANCH   1   7
ATOM      5  C   LIG    1        8.494  -0.162  -0.261  0.00  0.00    +0.330 A 
ATOM      6  C   LIG    1        7.247   0.441  -0.157  0.00  0.00    -0.040 A 
ATOM      7  C   LIG    1        6.109  -0.359  -0.151  0.00  0.00    +0.210 A 
ATOM      8  C   LIG    1        6.269  -1.741  -0.262  0.00  0.00    -0.090 A 
ATOM      9  C   LIG    1        7.540  -2.265  -0.366  0.00  0.00    +0.310 A 
ATOM     10  N   LIG    1        8.601  -1.479  -0.364  0.00  0.00    -0.530 NA
BRANCH   5  15
ATOM     11  C   LIG    1       13.245   2.526  -1.376  0.00  0.00    +0.190 C 
ATOM     12  N   LIG    1       12.033   1.695  -1.374  0.00  0.00    -0.550 NA
ATOM     13  C   LIG    1       12.088   0.687  -0.306  0.00  0.00    +0.180 C 
ATOM     14  C   LIG    1       10.847  -0.206  -0.388  0.00  0.00    +0.220 C 
ATOM     15  N   LIG    1        9.640   0.623  -0.263  0.00  0.00    -0.480 N 
ATOM     16  C   LIG    1        9.586   1.632  -1.331  0.00  0.00    +0.210 C 
ATOM     17  C   LIG    1       10.826   2.525  -1.249  0.00  0.00    +0.190 C 
ENDBRANCH   5  15
ENDBRANCH   1   7
BRANCH   3  18
ATOM     18  C   LIG    1        3.341   1.995   0.698  0.00  0.00    -0.170 A 
ATOM     19  C   LIG    1        2.271   1.468  -0.026  0.00  0.00    +0.310 A 
ATOM     20  N   LIG    1        1.093   2.057  -0.011  0.00  0.00    -0.450 NA
ATOM     21  C   LIG    1        0.872   3.158   0.680  0.00  0.00    +0.320 A 
ATOM     22  C   LIG    1        1.883   3.748   1.429  0.00  0.00    +0.070 A 
ATOM     23  C   LIG    1        3.143   3.163   1.444  0.00  0.00    +0.170 A 
BRANCH  22  24
ATOM     24  N   LIG    1        1.635   4.919   2.160  0.00  0.00    -0.250 N 
ATOM     25  C   LIG    1        0.428   5.534   2.297  0.00  0.00    +0.150 A 
ATOM     26  C   LIG    1        0.648   6.617   3.080  0.00  0.00    +0.160 A 
ATOM     27  N   LIG    1        1.953   6.619   3.370  0.00  0.00    -0.250 NA
ATOM     28  N   LIG    1        2.509   5.602   2.812  0.00  0.00    -0.070 NA
ENDBRANCH  22  24
ENDBRANCH   3  18
TORSDOF 4
