REMARK  Name = ZINCrH00000No4Jm.0
REMARK                            x       y       z     vdW  Elec       q    Type
REMARK                         _______ _______ _______ _____ _____    ______ ____
ROOT
ATOM      1  C   LIG    1        1.786  -1.855   0.325  0.00  0.00    +0.380 C 
ENDROOT
BRANCH   1   2
ATOM      2  C   LIG    1        1.014  -0.725   0.957  0.00  0.00    +0.080 A 
ATOM      3  N   LIG    1        1.507   0.429   1.325  0.00  0.00    -0.250 NA
ATOM      4  N   LIG    1        0.468   1.196   1.867  0.00  0.00    -0.370 N 
ATOM      5  C   LIG    1       -0.663   0.463   1.809  0.00  0.00    +0.090 A 
ATOM      6  C   LIG    1       -2.028   0.897   2.277  0.00  0.00    +0.150 C 
ATOM      7  C   LIG    1        0.588   2.555   2.400  0.00  0.00    +0.360 C 
ATOM      8  C   LIG    1       -0.353  -0.730   1.250  0.00  0.00    -0.120 A 
ENDBRANCH   1   2
BRANCH   1   9
ATOM      9  C   LIG    1        1.679  -1.760  -1.175  0.00  0.00    +0.150 A 
ATOM     10  N   LIG    1        2.302  -0.906  -1.951  0.00  0.00    -0.290 NA
ATOM     11  N   LIG    1        1.949  -1.145  -3.168  0.00  0.00    -0.080 NA
ATOM     12  N   LIG    1        1.118  -2.127  -3.187  0.00  0.00    -0.090 NA
ATOM     13  N   LIG    1        0.930  -2.538  -1.979  0.00  0.00    -0.290 N 
BRANCH  13  14
ATOM     14  C   LIG    1        0.062  -3.640  -1.559  0.00  0.00    +0.250 C 
ATOM     15  C   LIG    1        0.531  -4.938  -2.219  0.00  0.00    +0.070 C 
ATOM     16  C   LIG    1       -1.379  -3.345  -1.982  0.00  0.00    +0.070 C 
ENDBRANCH  13  14
ENDBRANCH   1   9
BRANCH   1  17
ATOM     17  N   LIG    1        3.197  -1.766   0.722  0.00  0.00    -0.500 NA
BRANCH  17  18
ATOM     18  C   LIG    1        3.846  -0.603   0.102  0.00  0.00    +0.240 C 
BRANCH  18  20
ATOM     19  C   LIG    1        6.232  -0.103   0.243  0.00  0.00    +0.010 C 
ATOM     20  C   LIG    1        5.093  -0.253   0.873  0.00  0.00    -0.030 C 
ENDBRANCH  18  20
ENDBRANCH  17  18
BRANCH  17  21
ATOM     21  C   LIG    1        3.916  -3.005   0.396  0.00  0.00    +0.260 C 
BRANCH  21  22
ATOM     22  C   LIG    1        5.129  -3.130   1.280  0.00  0.00    -0.170 A 
ATOM     23  C   LIG    1        5.121  -3.574   2.538  0.00  0.00    +0.040 A 
ATOM     24  C   LIG    1        6.360  -3.601   3.155  0.00  0.00    +0.030 A 
ATOM     25  C   LIG    1        7.375  -3.179   2.397  0.00  0.00    -0.160 A 
ATOM     26 CL   LIG    1        9.034  -3.101   2.900  0.00  0.00    -0.020 Cl
ATOM     27  S   LIG    1        6.773  -2.721   0.809  0.00  0.00    +0.180 S 
ENDBRANCH  21  22
ENDBRANCH  17  21
ENDBRANCH   1  17
TORSDOF 8
