REMARK  Name = ZINCpe00000gLOtx.0
REMARK                            x       y       z     vdW  Elec       q    Type
REMARK                         _______ _______ _______ _____ _____    ______ ____
ROOT
ATOM      1  N   LIG    1       -1.448   3.839   2.227  0.00  0.00    -0.730 N 
ATOM      2  H   LIG    1       -1.787   3.063   2.699  0.00  0.00    +0.390 HD
ATOM      3  C   LIG    1       -0.903   3.697   1.002  0.00  0.00    +0.710 C 
ATOM      4  N   LIG    1       -0.738   2.467   0.476  0.00  0.00    -0.740 N 
ATOM      5  H   LIG    1       -1.012   1.684   0.979  0.00  0.00    +0.390 HD
ATOM      6  O   LIG    1       -0.559   4.679   0.372  0.00  0.00    -0.580 OA
ENDROOT
BRANCH   1  12
ATOM      7  C   LIG    1       -1.730   7.203   1.294  0.00  0.00    +0.050 C 
ATOM      8  C   LIG    1       -2.468   6.133   2.102  0.00  0.00    -0.060 C 
ATOM      9  C   LIG    1       -2.933   6.617   3.485  0.00  0.00    +0.160 C 
ATOM     10  C   LIG    1       -2.515   5.238   4.021  0.00  0.00    -0.000 C 
ATOM     11  C   LIG    1       -3.562   5.429   1.296  0.00  0.00    +0.060 C 
ATOM     12  C   LIG    1       -1.530   5.165   2.843  0.00  0.00    +0.190 C 
BRANCH   9  13
ATOM     13  O   LIG    1       -2.153   7.695   4.007  0.00  0.00    -0.540 OA
ATOM     14  H   LIG    1       -2.441   8.004   4.877  0.00  0.00    +0.380 HD
ENDBRANCH   9  13
BRANCH  12  15
ATOM     15  C   LIG    1       -0.155   5.762   3.153  0.00  0.00    +0.220 C 
BRANCH  15  16
ATOM     16  O   LIG    1        0.591   4.846   3.958  0.00  0.00    -0.570 OA
ATOM     17  H   LIG    1        1.475   5.159   4.193  0.00  0.00    +0.380 HD
ENDBRANCH  15  16
ENDBRANCH  12  15
ENDBRANCH   1  12
BRANCH   4  18
ATOM     18  C   LIG    1       -0.145   2.313  -0.854  0.00  0.00    +0.360 C 
BRANCH  18  19
ATOM     19  C   LIG    1       -0.073   0.849  -1.206  0.00  0.00    -0.210 A 
ATOM     20  C   LIG    1       -1.067   0.280  -1.931  0.00  0.00    +0.160 A 
ATOM     21  C   LIG    1       -0.965  -1.143  -2.260  0.00  0.00    -0.140 A 
ATOM     22  C   LIG    1       -1.956  -1.786  -3.010  0.00  0.00    +0.090 A 
ATOM     23  C   LIG    1       -1.834  -3.116  -3.296  0.00  0.00    -0.020 A 
ATOM     24  C   LIG    1       -0.735  -3.836  -2.849  0.00  0.00    +0.070 A 
ATOM     25  C   LIG    1        0.254  -3.224  -2.109  0.00  0.00    -0.030 A 
ATOM     26  C   LIG    1        0.151  -1.871  -1.805  0.00  0.00    +0.190 A 
ATOM     27  N   LIG    1        1.125  -1.233  -1.067  0.00  0.00    -0.630 N 
ATOM     28  H   LIG    1        1.894  -1.735  -0.754  0.00  0.00    +0.420 HD
ATOM     29  C   LIG    1        1.025   0.075  -0.774  0.00  0.00    +0.540 A 
ATOM     30  O   LIG    1        1.905   0.606  -0.118  0.00  0.00    -0.520 OA
ENDBRANCH  18  19
ENDBRANCH   4  18
TORSDOF 6
