REMARK  Name = ZINCrD000000CrLc.0
REMARK                            x       y       z     vdW  Elec       q    Type
REMARK                         _______ _______ _______ _____ _____    ______ ____
ROOT
ATOM      1  C   LIG    1        0.344  -6.253  -0.742  0.00  0.00    -0.060 A 
ATOM      2  C   LIG    1        0.362  -6.302   0.623  0.00  0.00    +0.070 A 
ATOM      3  C   LIG    1        0.210  -4.983   1.075  0.00  0.00    -0.020 A 
ATOM      4  C   LIG    1        0.099  -4.197  -0.019  0.00  0.00    +0.030 A 
ATOM      5  O   LIG    1        0.183  -4.966  -1.112  0.00  0.00    -0.140 OA
ENDROOT
BRANCH   1   7
ATOM      6  O   LIG    1        0.616  -8.518  -1.193  0.00  0.00    -0.480 OA
ATOM      7  C   LIG    1        0.476  -7.399  -1.646  0.00  0.00    +0.560 C 
BRANCH   7   8
ATOM      8  O   LIG    1        0.441  -7.211  -2.982  0.00  0.00    -0.330 OA
BRANCH   8   9
ATOM      9  C   LIG    1        0.577  -8.391  -3.817  0.00  0.00    +0.210 C 
ATOM     10  C   LIG    1        1.249  -8.008  -5.147  0.00  0.00    +0.100 C 
ATOM     11  C   LIG    1        1.062  -9.216  -6.102  0.00  0.00    -0.290 C 
ATOM     12  S   LIG    1       -0.676  -9.706  -5.789  0.00  0.00    +2.400 S 
ATOM     13  O   LIG    1       -0.757 -11.122  -5.697  0.00  0.00    -0.930 OA
ATOM     14  O   LIG    1       -1.532  -9.005  -6.681  0.00  0.00    -0.920 OA
ATOM     15  C   LIG    1       -0.817  -8.977  -4.117  0.00  0.00    -0.330 C 
ENDBRANCH   8   9
ENDBRANCH   7   8
ENDBRANCH   1   7
BRANCH   4  16
ATOM     16  C   LIG    1       -0.083  -2.701  -0.010  0.00  0.00    +0.330 C 
BRANCH  16  17
ATOM     17  O   LIG    1        1.197  -2.065  -0.019  0.00  0.00    -0.310 OA
BRANCH  17  18
ATOM     18  C   LIG    1        1.211  -0.707  -0.013  0.00  0.00    +0.130 A 
ATOM     19  C   LIG    1        2.406  -0.045  -0.021  0.00  0.00    -0.010 A 
ATOM     20  C   LIG    1        2.422   1.359  -0.014  0.00  0.00    -0.010 A 
ATOM     21  C   LIG    1        3.632   2.075  -0.022  0.00  0.00    +0.010 A 
ATOM     22  C   LIG    1        3.610   3.436  -0.015  0.00  0.00    +0.030 A 
ATOM     23  C   LIG    1        2.404   4.133  -0.000  0.00  0.00    -0.010 A 
ATOM     24  C   LIG    1        1.212   3.474   0.009  0.00  0.00    +0.040 A 
ATOM     25  C   LIG    1        1.195   2.069   0.002  0.00  0.00    -0.080 A 
ATOM     26  C   LIG    1       -0.016   1.356   0.009  0.00  0.00    +0.070 A 
ATOM     27  C   LIG    1        0.002  -0.004   0.002  0.00  0.00    -0.060 A 
ENDBRANCH  17  18
ENDBRANCH  16  17
ENDBRANCH   4  16
TORSDOF 6
