REMARK  Name = ZINCpe000000YrzU.0
REMARK                            x       y       z     vdW  Elec       q    Type
REMARK                         _______ _______ _______ _____ _____    ______ ____
ROOT
ATOM      1  C   LIG    1       -5.718   1.491   1.446  0.00  0.00    +0.240 C 
ATOM      2  C   LIG    1       -4.946   0.934   0.244  0.00  0.00    +0.280 C 
ATOM      3  N   LIG    1       -3.674   1.665   0.130  0.00  0.00    -0.610 N 
ATOM      4  C   LIG    1       -3.718   3.136   0.147  0.00  0.00    +0.250 C 
ATOM      5  C   LIG    1       -4.550   3.585   1.348  0.00  0.00    +0.230 C 
ATOM      6  C   LIG    1       -2.503   1.007   0.019  0.00  0.00    +0.570 C 
ATOM      7  O   LIG    1       -2.492  -0.206  -0.057  0.00  0.00    -0.520 OA
ATOM      8  O   LIG    1       -5.811   2.912   1.328  0.00  0.00    -0.370 OA
ENDROOT
BRANCH   1  14
ATOM      9  C   LIG    1       -8.296   2.740   0.263  0.00  0.00    +0.350 C 
ATOM     10  N   LIG    1       -8.217   1.451   0.955  0.00  0.00    -0.350 N 
ATOM     11  N   LIG    1       -9.285   0.577   1.194  0.00  0.00    -0.290 NA
ATOM     12  C   LIG    1       -8.824  -0.466   1.835  0.00  0.00    +0.240 A 
ATOM     13  C   LIG    1       -7.449  -0.292   2.021  0.00  0.00    -0.110 A 
ATOM     14  C   LIG    1       -7.102   0.896   1.474  0.00  0.00    +0.080 A 
ENDBRANCH   1  14
BRANCH   6  15
ATOM     15  C   LIG    1       -1.231   1.761  -0.009  0.00  0.00    -0.120 A 
ATOM     16  C   LIG    1       -1.088   2.861  -0.856  0.00  0.00    +0.040 A 
ATOM     17  C   LIG    1        0.100   3.564  -0.873  0.00  0.00    +0.050 A 
ATOM     18  C   LIG    1        1.149   3.176  -0.059  0.00  0.00    -0.060 A 
ATOM     19  C   LIG    1        1.015   2.082   0.778  0.00  0.00    +0.030 A 
ATOM     20  C   LIG    1       -0.167   1.371   0.805  0.00  0.00    +0.080 A 
BRANCH  18  21
ATOM     21  C   LIG    1        2.443   3.947  -0.083  0.00  0.00    +0.110 C 
ATOM     22  C   LIG    1        3.623   3.164  -0.689  0.00  0.00    +0.210 C 
ATOM     23  O   LIG    1        4.391   3.695   0.413  0.00  0.00    -0.380 OA
ATOM     24  C   LIG    1        3.227   3.890   1.241  0.00  0.00    +0.210 C 
BRANCH  21  25
ATOM     25  O   LIG    1        2.296   5.268  -0.610  0.00  0.00    -0.530 OA
ATOM     26  H   LIG    1        3.118   5.776  -0.633  0.00  0.00    +0.390 HD
ENDBRANCH  21  25
ENDBRANCH  18  21
ENDBRANCH   6  15
TORSDOF 4
