REMARK  Name = ZINCbu0000000GKS.0
REMARK                            x       y       z     vdW  Elec       q    Type
REMARK                         _______ _______ _______ _____ _____    ______ ____
ROOT
ATOM      1  S   LIG    1       -2.772   4.002   0.049  0.00  0.00    -0.050 S 
ENDROOT
BRANCH   1   2
ATOM      2  C   LIG    1       -1.236   3.139   0.031  0.00  0.00    -0.090 A 
ATOM      3  C   LIG    1       -1.218   1.749   0.017  0.00  0.00    +0.000 A 
ATOM      4  C   LIG    1       -0.013   1.076   0.008  0.00  0.00    +0.070 A 
ATOM      5  C   LIG    1        1.177   1.783   0.000  0.00  0.00    -0.090 A 
ATOM      6  C   LIG    1        1.162   3.167   0.008  0.00  0.00    +0.080 A 
ATOM      7 BR   LIG    1        2.825   0.857  -0.021  0.00  0.00    -0.030 Br
ATOM      8  C   LIG    1       -0.040   3.846   0.023  0.00  0.00    +0.050 A 
ENDBRANCH   1   2
BRANCH   1   9
ATOM      9  C   LIG    1       -3.994   2.660   0.054  0.00  0.00    +0.050 C 
BRANCH   9  10
ATOM     10  C   LIG    1       -5.403   3.255   0.070  0.00  0.00    +0.310 C 
BRANCH  10  11
ATOM     11  N   LIG    1       -6.393   2.169   0.074  0.00  0.00    -0.630 N 
ATOM     12  H   LIG    1       -6.275   1.604  -0.754  0.00  0.00    +0.440 HD
ATOM     13  H   LIG    1       -7.322   2.561   0.085  0.00  0.00    +0.440 HD
ATOM     14  H   LIG    1       -6.260   1.596   0.894  0.00  0.00    +0.440 HD
ENDBRANCH  10  11
ENDBRANCH   9  10
ENDBRANCH   1   9
TORSDOF 4
