REMARK  Name = ZINCrD00000hQ7lH.0
REMARK                            x       y       z     vdW  Elec       q    Type
REMARK                         _______ _______ _______ _____ _____    ______ ____
ROOT
ATOM      1  C   LIG    1        2.477  -2.299   0.003  0.00  0.00    +0.620 C 
ATOM      2  N   LIG    1        1.329  -1.676   0.336  0.00  0.00    -0.610 N 
ATOM      3  C   LIG    1        0.482  -1.999   1.498  0.00  0.00    +0.260 C 
ATOM      4  C   LIG    1       -0.301  -0.695   1.793  0.00  0.00    +0.020 C 
ATOM      5  C   LIG    1       -0.567  -0.160   0.361  0.00  0.00    +0.260 C 
ATOM      6  C   LIG    1        0.713  -0.562  -0.401  0.00  0.00    +0.220 C 
ATOM      7  C   LIG    1        0.355  -1.011  -1.819  0.00  0.00    +0.050 C 
ATOM      8  O   LIG    1        3.083  -1.962  -0.996  0.00  0.00    -0.540 OA
ENDROOT
BRANCH   1  10
ATOM      9  C   LIG    1        4.224  -4.008   0.725  0.00  0.00    +0.170 A 
ATOM     10  C   LIG    1        2.997  -3.387   0.849  0.00  0.00    -0.300 A 
ATOM     11  C   LIG    1        2.330  -3.996   1.937  0.00  0.00    +0.260 A 
ATOM     12  N   LIG    1        3.115  -4.915   2.428  0.00  0.00    -0.290 NA
ATOM     13  N   LIG    1        4.304  -4.938   1.690  0.00  0.00    -0.340 N 
BRANCH  13  14
ATOM     14  C   LIG    1        5.441  -5.830   1.927  0.00  0.00    +0.180 C 
ATOM     15  C   LIG    1        6.652  -5.006   2.371  0.00  0.00    +0.050 C 
ATOM     16  C   LIG    1        5.779  -6.578   0.636  0.00  0.00    +0.050 C 
ATOM     17  C   LIG    1        5.081  -6.837   3.021  0.00  0.00    +0.080 C 
ENDBRANCH  13  14
BRANCH   9  19
ATOM     18  C   LIG    1        4.962  -4.437  -1.603  0.00  0.00    +0.050 C 
ATOM     19  C   LIG    1        5.280  -3.696  -0.303  0.00  0.00    +0.110 C 
ENDBRANCH   9  19
ENDBRANCH   1  10
BRANCH   5  20
ATOM     20  N   LIG    1       -0.728   1.296   0.373  0.00  0.00    -0.700 N 
ATOM     21  H   LIG    1        0.048   1.870   0.279  0.00  0.00    +0.410 HD
ATOM     22  C   LIG    1       -1.955   1.837   0.509  0.00  0.00    +0.650 C 
ATOM     23  O   LIG    1       -2.927   1.117   0.621  0.00  0.00    -0.560 OA
BRANCH  22  24
ATOM     24  O   LIG    1       -2.103   3.175   0.519  0.00  0.00    -0.360 OA
BRANCH  24  25
ATOM     25  C   LIG    1       -3.453   3.688   0.669  0.00  0.00    +0.140 C 
ATOM     26  C   LIG    1       -4.319   3.188  -0.489  0.00  0.00    +0.040 C 
ATOM     27  C   LIG    1       -3.421   5.218   0.659  0.00  0.00    +0.080 C 
ATOM     28  C   LIG    1       -4.040   3.199   1.994  0.00  0.00    +0.040 C 
ENDBRANCH  24  25
ENDBRANCH  22  24
ENDBRANCH   5  20
TORSDOF 6
