REMARK  Name = ZINCkj000005g43c.0
REMARK                            x       y       z     vdW  Elec       q    Type
REMARK                         _______ _______ _______ _____ _____    ______ ____
ROOT
ATOM      1  C   LIG    1       -5.150   5.384   0.204  0.00  0.00    +0.360 C 
ENDROOT
BRANCH   1   2
ATOM      2  C   LIG    1       -3.689   5.704   0.023  0.00  0.00    -0.110 A 
ATOM      3  C   LIG    1       -3.253   7.013   0.102  0.00  0.00    +0.040 A 
ATOM      4  C   LIG    1       -1.913   7.311  -0.063  0.00  0.00    +0.060 A 
ATOM      5  C   LIG    1       -1.005   6.299  -0.309  0.00  0.00    +0.030 A 
ATOM      6  C   LIG    1       -1.439   4.983  -0.390  0.00  0.00    +0.160 A 
ATOM      7  C   LIG    1       -2.786   4.688  -0.228  0.00  0.00    +0.050 A 
BRANCH   6   8
ATOM      8  N   LIG    1       -0.520   3.954  -0.640  0.00  0.00    -0.340 N 
ATOM      9  C   LIG    1        0.819   4.071  -0.730  0.00  0.00    +0.500 A 
ATOM     10  N   LIG    1        1.314   2.884  -0.973  0.00  0.00    -0.530 NA
ATOM     11  C   LIG    1        0.329   1.989  -1.044  0.00  0.00    +0.450 A 
ATOM     12  N   LIG    1       -0.813   2.596  -0.851  0.00  0.00    -0.320 NA
ENDBRANCH   6   8
ENDBRANCH   1   2
BRANCH   1  13
ATOM     13  N   LIG    1       -5.824   5.430  -1.096  0.00  0.00    -0.700 NA
ATOM     14  H   LIG    1       -5.341   5.726  -1.883  0.00  0.00    +0.430 HD
BRANCH  13  15
ATOM     15  C   LIG    1       -7.136   5.055  -1.200  0.00  0.00    +0.730 C 
BRANCH  15  16
ATOM     16  N   LIG    1       -7.851   4.821  -0.101  0.00  0.00    -0.680 NA
ATOM     17  H   LIG    1       -8.737   4.434  -0.172  0.00  0.00    +0.430 HD
BRANCH  16  19
ATOM     18  C   LIG    1       -8.368   4.930   2.287  0.00  0.00    +0.060 C 
ATOM     19  C   LIG    1       -7.298   5.149   1.216  0.00  0.00    +0.280 C 
ENDBRANCH  16  19
ENDBRANCH  15  16
BRANCH  15  20
ATOM     20  N   LIG    1       -7.698   4.924  -2.400  0.00  0.00    -0.680 NA
ATOM     21  H   LIG    1       -7.202   5.167  -3.197  0.00  0.00    +0.440 HD
BRANCH  20  22
ATOM     22  C   LIG    1       -9.066   4.412  -2.516  0.00  0.00    +0.270 C 
ATOM     23  C   LIG    1       -9.425   4.249  -3.994  0.00  0.00    +0.080 C 
ENDBRANCH  20  22
ENDBRANCH  15  20
ENDBRANCH  13  15
ENDBRANCH   1  13
TORSDOF 8
