REMARK  Name = ZINCkj00000dDIMj.0
REMARK                            x       y       z     vdW  Elec       q    Type
REMARK                         _______ _______ _______ _____ _____    ______ ____
ROOT
ATOM      1  S   LIG    1        3.149   3.937  -0.006  0.00  0.00    +2.700 S 
ATOM      2  O   LIG    1        2.992   5.349   0.038  0.00  0.00    -0.950 OA
ATOM      3  O   LIG    1        3.859   3.266  -1.038  0.00  0.00    -0.940 OA
ENDROOT
BRANCH   1   4
ATOM      4  C   LIG    1        1.525   3.255   0.005  0.00  0.00    -0.650 A 
ATOM      5  C   LIG    1        0.445   4.073   0.021  0.00  0.00    +0.210 A 
ATOM      6  C   LIG    1       -0.855   3.568   0.030  0.00  0.00    +0.030 A 
ATOM      7  C   LIG    1       -1.098   2.235   0.030  0.00  0.00    +0.160 A 
ATOM      8  C   LIG    1       -0.016   1.319   0.009  0.00  0.00    +0.060 A 
ATOM      9  N   LIG    1        0.002  -0.004   0.002  0.00  0.00    -0.570 NA
ATOM     10  S   LIG    1        1.476  -0.501  -0.015  0.00  0.00    +0.840 S 
ATOM     11  N   LIG    1        2.226   0.861  -0.015  0.00  0.00    -0.620 NA
ATOM     12  C   LIG    1        1.345   1.849  -0.001  0.00  0.00    +0.140 A 
ENDBRANCH   1   4
BRANCH   1  13
ATOM     13  N   LIG    1        3.873   3.503   1.419  0.00  0.00    -1.120 NA
ATOM     14  H   LIG    1        4.116   4.183   2.067  0.00  0.00    +0.420 HD
BRANCH  13  16
ATOM     15  C   LIG    1        3.002   1.504   2.526  0.00  0.00    +0.030 C 
ATOM     16  C   LIG    1        4.148   2.092   1.700  0.00  0.00    +0.270 C 
BRANCH  16  17
ATOM     17  C   LIG    1        5.456   1.973   2.485  0.00  0.00    +0.040 C 
BRANCH  17  18
ATOM     18  C   LIG    1        6.620   2.446   1.611  0.00  0.00    +0.250 C 
BRANCH  18  19
ATOM     19  N   LIG    1        7.875   2.332   2.365  0.00  0.00    -0.390 N 
ATOM     20  C   LIG    1        8.975   2.896   1.572  0.00  0.00    +0.320 C 
ATOM     21  C   LIG    1        8.150   0.917   2.648  0.00  0.00    +0.310 C 
ATOM     22  H   LIG    1        7.793   2.838   3.234  0.00  0.00    +0.430 HD
ENDBRANCH  18  19
ENDBRANCH  17  18
ENDBRANCH  16  17
ENDBRANCH  13  16
ENDBRANCH   1  13
TORSDOF 6
