REMARK  Name = ZINCrD00000lgNcG.0
REMARK                            x       y       z     vdW  Elec       q    Type
REMARK                         _______ _______ _______ _____ _____    ______ ____
ROOT
ATOM      1  C   LIG    1        0.610   1.638  -1.683  0.00  0.00    +0.520 C 
ATOM      2  N   LIG    1        1.704   1.732  -0.902  0.00  0.00    -0.600 N 
ATOM      3  C   LIG    1        2.386   3.036  -0.794  0.00  0.00    +0.260 C 
ATOM      4  C   LIG    1        2.813   3.350   0.652  0.00  0.00    +0.010 C 
ATOM      5  C   LIG    1        1.730   2.930   1.615  0.00  0.00    +0.020 C 
ATOM      6  C   LIG    1        1.993   1.501   2.080  0.00  0.00    +0.010 C 
ATOM      7  C   LIG    1        1.467   0.464   1.179  0.00  0.00    +0.030 C 
ATOM      8  C   LIG    1        2.157   0.552  -0.199  0.00  0.00    +0.360 C 
ATOM      9  O   LIG    1        0.096   0.557  -1.880  0.00  0.00    -0.510 OA
ENDROOT
BRANCH   8  10
ATOM     10  C   LIG    1        1.813  -0.674  -1.004  0.00  0.00    +0.160 A 
ATOM     11  N   LIG    1        0.678  -1.307  -0.996  0.00  0.00    -0.310 NA
ATOM     12  O   LIG    1        0.719  -2.253  -1.753  0.00  0.00    +0.100 OA
ATOM     13  C   LIG    1        1.921  -2.316  -2.335  0.00  0.00    +0.160 A 
ATOM     14  N   LIG    1        2.623  -1.312  -1.868  0.00  0.00    -0.460 NA
BRANCH  13  15
ATOM     15  C   LIG    1        2.379  -3.341  -3.340  0.00  0.00    +0.340 C 
BRANCH  15  16
ATOM     16  O   LIG    1        2.969  -4.448  -2.655  0.00  0.00    -0.380 OA
ATOM     17  C   LIG    1        3.439  -5.483  -3.521  0.00  0.00    +0.220 C 
ENDBRANCH  15  16
ENDBRANCH  13  15
ENDBRANCH   8  10
BRANCH   1  18
ATOM     18  C   LIG    1        0.028   2.876  -2.317  0.00  0.00    +0.000 C 
BRANCH  18  19
ATOM     19  C   LIG    1        0.568   3.020  -3.742  0.00  0.00    +0.150 C 
ATOM     20  C   LIG    1        0.135   1.813  -4.576  0.00  0.00    +0.010 C 
ATOM     21  C   LIG    1        0.674   1.958  -6.001  0.00  0.00    +0.010 C 
ATOM     22  C   LIG    1        2.202   2.029  -5.962  0.00  0.00    +0.010 C 
ATOM     23  C   LIG    1        2.636   3.235  -5.128  0.00  0.00    +0.010 C 
ATOM     24  C   LIG    1        2.096   3.091  -3.703  0.00  0.00    -0.020 C 
BRANCH  19  25
ATOM     25  O   LIG    1        0.051   4.216  -4.328  0.00  0.00    -0.550 OA
ATOM     26  H   LIG    1        0.352   4.372  -5.234  0.00  0.00    +0.380 HD
ENDBRANCH  19  25
ENDBRANCH  18  19
BRANCH  18  28
ATOM     27  C   LIG    1       -2.048   2.760  -0.932  0.00  0.00    +0.010 C 
ATOM     28  C   LIG    1       -1.497   2.759  -2.360  0.00  0.00    +0.050 C 
ENDBRANCH  18  28
ENDBRANCH   1  18
TORSDOF 7
