REMARK  Name = ZINCrD00000F5LnT.0
REMARK                            x       y       z     vdW  Elec       q    Type
REMARK                         _______ _______ _______ _____ _____    ______ ____
ROOT
ATOM      1  C   LIG    1       -1.045   4.409   2.009  0.00  0.00    +0.520 C 
ATOM      2  N   LIG    1       -0.555   3.716   0.962  0.00  0.00    -0.720 N 
ATOM      3  H   LIG    1       -1.155   3.386   0.275  0.00  0.00    +0.410 HD
ATOM      4  O   LIG    1       -0.295   4.821   2.868  0.00  0.00    -0.540 OA
ENDROOT
BRANCH   2   5
ATOM      5  C   LIG    1        0.884   3.459   0.863  0.00  0.00    +0.250 C 
ATOM      6  C   LIG    1        1.580   4.625   0.138  0.00  0.00    +0.030 C 
ATOM      7  C   LIG    1        2.232   4.030  -1.127  0.00  0.00    +0.030 C 
ATOM      8  C   LIG    1        1.414   2.746  -1.409  0.00  0.00    +0.010 C 
ATOM      9  C   LIG    1        1.139   2.197   0.013  0.00  0.00    +0.160 C 
BRANCH   9  10
ATOM     10  O   LIG    1       -0.016   1.355   0.009  0.00  0.00    -0.300 OA
BRANCH  10  11
ATOM     11  C   LIG    1        0.183   0.035  -0.246  0.00  0.00    +0.100 A 
ATOM     12  C   LIG    1        1.443  -0.421  -0.599  0.00  0.00    -0.040 A 
ATOM     13  C   LIG    1        1.644  -1.764  -0.858  0.00  0.00    +0.040 A 
ATOM     14  C   LIG    1        0.589  -2.653  -0.765  0.00  0.00    +0.010 A 
ATOM     15  C   LIG    1       -0.670  -2.202  -0.413  0.00  0.00    +0.020 A 
ATOM     16  C   LIG    1       -0.875  -0.861  -0.147  0.00  0.00    +0.070 A 
ATOM     17  F   LIG    1       -2.103  -0.420   0.203  0.00  0.00    -0.130 F 
ENDBRANCH  10  11
ENDBRANCH   9  10
ENDBRANCH   2   5
BRANCH   1  18
ATOM     18  C   LIG    1       -2.525   4.673   2.111  0.00  0.00    +0.060 C 
BRANCH  18  19
ATOM     19  C   LIG    1       -2.814   5.473   3.382  0.00  0.00    +0.100 C 
BRANCH  19  22
ATOM     20  C   LIG    1       -6.481   5.083   4.236  0.00  0.00    -0.220 A 
ATOM     21  C   LIG    1       -5.106   4.839   4.141  0.00  0.00    +0.100 A 
ATOM     22  C   LIG    1       -4.294   5.737   3.485  0.00  0.00    -0.110 A 
ATOM     23  C   LIG    1       -4.830   6.885   2.923  0.00  0.00    +0.070 A 
ATOM     24  C   LIG    1       -6.185   7.137   3.004  0.00  0.00    -0.020 A 
ATOM     25  C   LIG    1       -7.020   6.246   3.660  0.00  0.00    +0.160 A 
BRANCH  20  27
ATOM     26  O   LIG    1       -6.884   3.129   5.430  0.00  0.00    -0.460 OA
ATOM     27  C   LIG    1       -7.354   4.131   4.934  0.00  0.00    +0.490 C 
ENDBRANCH  20  27
BRANCH  25  28
ATOM     28  O   LIG    1       -8.351   6.495   3.746  0.00  0.00    -0.490 OA
ATOM     29  H   LIG    1       -8.606   7.003   4.528  0.00  0.00    +0.400 HD
ENDBRANCH  25  28
ENDBRANCH  19  22
ENDBRANCH  18  19
ENDBRANCH   1  18
TORSDOF 8
