REMARK  Name = ZINCrH000004rIvt.0
REMARK                            x       y       z     vdW  Elec       q    Type
REMARK                         _______ _______ _______ _____ _____    ______ ____
ROOT
ATOM      1  C   LIG    1        1.182   1.786   0.000  0.00  0.00    +0.160 A 
ATOM      2  C   LIG    1       -0.013   1.076   0.008  0.00  0.00    -0.020 A 
ATOM      3  C   LIG    1       -1.215   1.747   0.017  0.00  0.00    +0.090 A 
ATOM      4  C   LIG    1       -1.233   3.144   0.029  0.00  0.00    -0.180 A 
ATOM      5  C   LIG    1       -0.029   3.855   0.022  0.00  0.00    +0.130 A 
ATOM      6  C   LIG    1        1.169   3.176   0.007  0.00  0.00    -0.080 A 
ENDROOT
BRANCH   4   7
ATOM      7  C   LIG    1       -2.519   3.868   0.044  0.00  0.00    +0.570 C 
ATOM      8  N   LIG    1       -3.679   3.181   0.052  0.00  0.00    -0.730 N 
ATOM      9  H   LIG    1       -3.668   2.211   0.047  0.00  0.00    +0.400 HD
ATOM     10  O   LIG    1       -2.533   5.084   0.050  0.00  0.00    -0.540 OA
BRANCH   8  11
ATOM     11  C   LIG    1       -4.955   3.899   0.067  0.00  0.00    +0.390 C 
BRANCH  11  12
ATOM     12  C   LIG    1       -6.090   2.907   0.073  0.00  0.00    -0.040 A 
ATOM     13  C   LIG    1       -6.672   2.384   1.167  0.00  0.00    -0.030 A 
ATOM     14  C   LIG    1       -7.683   1.506   0.713  0.00  0.00    -0.070 A 
ATOM     15  C   LIG    1       -7.658   1.544  -0.632  0.00  0.00    +0.180 A 
ATOM     16  O   LIG    1       -6.695   2.399  -1.014  0.00  0.00    -0.170 OA
ENDBRANCH  11  12
ENDBRANCH   8  11
ENDBRANCH   4   7
BRANCH   1  17
ATOM     17  O   LIG    1        2.365   1.121  -0.015  0.00  0.00    -0.310 OA
BRANCH  17  18
ATOM     18  C   LIG    1        3.554   1.913  -0.022  0.00  0.00    +0.330 C 
BRANCH  18  24
ATOM     19  C   LIG    1        8.530  -3.552  -0.096  0.00  0.00    +0.120 C 
ATOM     20  C   LIG    1        7.931  -2.169  -0.084  0.00  0.00    -0.100 A 
ATOM     21  C   LIG    1        6.589  -2.019  -0.071  0.00  0.00    +0.210 A 
ATOM     22  N   LIG    1        6.030  -0.774  -0.059  0.00  0.00    -0.360 N 
ATOM     23  C   LIG    1        4.732  -0.342  -0.040  0.00  0.00    +0.120 A 
ATOM     24  C   LIG    1        4.760   1.008  -0.038  0.00  0.00    +0.050 A 
ATOM     25  N   LIG    1        6.034   1.408  -0.048  0.00  0.00    -0.480 NA
ATOM     26  C   LIG    1        6.824   0.344  -0.060  0.00  0.00    +0.230 A 
ATOM     27  C   LIG    1        8.226   0.203  -0.074  0.00  0.00    +0.070 A 
ATOM     28  C   LIG    1        8.770  -1.043  -0.086  0.00  0.00    +0.050 A 
ENDBRANCH  18  24
ENDBRANCH  17  18
ENDBRANCH   1  17
TORSDOF 6
