REMARK  Name = ZINCrD00000lciOy.0
REMARK                            x       y       z     vdW  Elec       q    Type
REMARK                         _______ _______ _______ _____ _____    ______ ____
ROOT
ATOM      1  O   LIG    1        2.192  -2.647   1.321  0.00  0.00    -0.320 OA
ENDROOT
BRANCH   1   3
ATOM      2  C   LIG    1       -0.241  -2.706   1.381  0.00  0.00    +0.060 C 
ATOM      3  C   LIG    1        0.994  -2.175   0.650  0.00  0.00    +0.180 C 
BRANCH   3   4
ATOM      4  C   LIG    1        0.974  -0.668   0.659  0.00  0.00    +0.520 C 
ATOM      5  N   LIG    1        0.002  -0.004   0.002  0.00  0.00    -0.730 N 
ATOM      6  H   LIG    1       -0.684  -0.496  -0.476  0.00  0.00    +0.400 HD
ATOM      7  O   LIG    1        1.831  -0.054   1.256  0.00  0.00    -0.510 OA
BRANCH   5   8
ATOM      8  C   LIG    1       -0.018   1.461   0.010  0.00  0.00    +0.240 C 
ATOM      9  C   LIG    1       -0.711   1.944   1.300  0.00  0.00    +0.020 C 
ATOM     10  C   LIG    1       -0.291   3.365   1.564  0.00  0.00    +0.000 C 
ATOM     11  C   LIG    1       -1.289   4.389   0.988  0.00  0.00    +0.000 C 
ATOM     12  C   LIG    1       -1.798   4.003  -0.414  0.00  0.00    +0.000 C 
ATOM     13  C   LIG    1       -0.704   3.468  -1.297  0.00  0.00    +0.030 C 
ATOM     14  C   LIG    1       -0.695   1.930  -1.190  0.00  0.00    +0.010 C 
ENDBRANCH   5   8
ENDBRANCH   3   4
ENDBRANCH   1   3
BRANCH   1  15
ATOM     15  C   LIG    1        2.704  -3.822   0.905  0.00  0.00    +0.550 C 
ATOM     16  O   LIG    1        2.163  -4.436   0.006  0.00  0.00    -0.520 OA
BRANCH  15  17
ATOM     17  C   LIG    1        3.919  -4.362   1.539  0.00  0.00    -0.280 A 
ATOM     18  C   LIG    1        4.550  -5.550   1.224  0.00  0.00    +0.330 A 
ATOM     19  N   LIG    1        5.616  -5.664   2.031  0.00  0.00    -0.350 N 
ATOM     20  N   LIG    1        5.658  -4.548   2.873  0.00  0.00    -0.290 NA
ATOM     21  C   LIG    1        4.653  -3.766   2.589  0.00  0.00    +0.300 A 
BRANCH  19  22
ATOM     22  C   LIG    1        6.571  -6.776   2.035  0.00  0.00    +0.380 C 
BRANCH  22  23
ATOM     23  C   LIG    1        7.968  -6.238   1.863  0.00  0.00    -0.120 A 
ATOM     24  C   LIG    1        8.502  -6.094   0.596  0.00  0.00    +0.020 A 
ATOM     25  C   LIG    1        9.782  -5.596   0.437  0.00  0.00    +0.010 A 
ATOM     26  C   LIG    1       10.532  -5.252   1.546  0.00  0.00    +0.010 A 
ATOM     27  C   LIG    1       10.000  -5.401   2.814  0.00  0.00    +0.010 A 
ATOM     28  C   LIG    1        8.718  -5.893   2.972  0.00  0.00    +0.050 A 
ENDBRANCH  22  23
ENDBRANCH  19  22
ENDBRANCH  15  17
ENDBRANCH   1  15
TORSDOF 7
