REMARK  Name = ZINCtV00000L6khj.0
REMARK                            x       y       z     vdW  Elec       q    Type
REMARK                         _______ _______ _______ _____ _____    ______ ____
ROOT
ATOM      1  C   LIG    1        2.894   5.496   0.002  0.00  0.00    -0.210 A 
ATOM      2  C   LIG    1        4.280   5.470  -0.013  0.00  0.00    +0.160 A 
ATOM      3  O   LIG    1        4.700   4.195  -0.023  0.00  0.00    -0.170 OA
ATOM      4  C   LIG    1        3.661   3.333  -0.016  0.00  0.00    +0.020 A 
ATOM      5  C   LIG    1        3.589   1.945  -0.022  0.00  0.00    +0.090 A 
ATOM      6  C   LIG    1        2.362   1.316  -0.013  0.00  0.00    -0.020 A 
ATOM      7  C   LIG    1        1.186   2.058   0.002  0.00  0.00    +0.130 A 
ATOM      8  C   LIG    1        1.238   3.441   0.003  0.00  0.00    +0.030 A 
ATOM      9  C   LIG    1        2.474   4.081  -0.001  0.00  0.00    -0.050 A 
ENDROOT
BRANCH   2  10
ATOM     10  C   LIG    1        5.156   6.657  -0.016  0.00  0.00    -0.050 A 
ATOM     11  C   LIG    1        4.601   7.939  -0.010  0.00  0.00    +0.030 A 
ATOM     12  C   LIG    1        5.426   9.044  -0.007  0.00  0.00    +0.020 A 
ATOM     13  C   LIG    1        6.801   8.885  -0.022  0.00  0.00    +0.040 A 
ATOM     14  C   LIG    1        7.358   7.618  -0.033  0.00  0.00    +0.010 A 
ATOM     15  C   LIG    1        6.545   6.504  -0.030  0.00  0.00    +0.060 A 
ENDBRANCH   2  10
BRANCH   1  16
ATOM     16  C   LIG    1        2.029   6.679   0.016  0.00  0.00    +0.550 C 
ATOM     17  O   LIG    1        1.681   7.164   1.075  0.00  0.00    -0.490 OA
BRANCH  16  18
ATOM     18  O   LIG    1        1.619   7.229  -1.145  0.00  0.00    -0.350 OA
BRANCH  18  20
ATOM     19  C   LIG    1        0.404   8.877  -2.463  0.00  0.00    +0.070 C 
ATOM     20  C   LIG    1        0.764   8.398  -1.055  0.00  0.00    +0.200 C 
ENDBRANCH  18  20
ENDBRANCH  16  18
ENDBRANCH   1  16
BRANCH   7  21
ATOM     21  O   LIG    1       -0.017   1.425   0.010  0.00  0.00    -0.310 OA
BRANCH  21  22
ATOM     22  C   LIG    1        0.002  -0.004   0.002  0.00  0.00    +0.260 C 
BRANCH  22  23
ATOM     23  C   LIG    1       -1.412  -0.526   0.013  0.00  0.00    -0.100 A 
ATOM     24  C   LIG    1       -2.474   0.358   0.028  0.00  0.00    +0.040 A 
ATOM     25  C   LIG    1       -3.771  -0.120   0.037  0.00  0.00    +0.000 A 
ATOM     26  C   LIG    1       -4.005  -1.483   0.032  0.00  0.00    +0.010 A 
ATOM     27  C   LIG    1       -2.943  -2.367   0.017  0.00  0.00    +0.010 A 
ATOM     28  C   LIG    1       -1.646  -1.888   0.002  0.00  0.00    -0.080 A 
ATOM     29  C   LIG    1       -0.487  -2.852  -0.021  0.00  0.00    +0.090 C 
ENDBRANCH  22  23
ENDBRANCH  21  22
ENDBRANCH   7  21
TORSDOF 7
