REMARK  Name = ZINCqH0000003Hyk.0
REMARK                            x       y       z     vdW  Elec       q    Type
REMARK                         _______ _______ _______ _____ _____    ______ ____
ROOT
ATOM      1  N   LIG    1        1.131   5.413   1.687  0.00  0.00    -0.660 N 
ATOM      2  H   LIG    1        1.596   5.915   0.999  0.00  0.00    +0.420 HD
ATOM      3  C   LIG    1        0.568   4.225   1.389  0.00  0.00    +0.510 C 
ATOM      4  O   LIG    1        0.058   3.559   2.265  0.00  0.00    -0.510 OA
ENDROOT
BRANCH   1  14
ATOM      5  C   LIG    1        0.933   7.296   3.192  0.00  0.00    +0.080 A 
ATOM      6  C   LIG    1        0.846   7.792   4.483  0.00  0.00    -0.010 A 
ATOM      7  C   LIG    1        0.880   6.929   5.557  0.00  0.00    -0.150 A 
ATOM      8  C   LIG    1        0.988   5.558   5.368  0.00  0.00    +0.090 A 
ATOM      9  O   LIG    1        0.981   4.894   6.558  0.00  0.00    -0.300 OA
ATOM     10  C   LIG    1        1.318   5.811   7.613  0.00  0.00    +0.170 C 
ATOM     11  C   LIG    1        0.575   5.457   8.903  0.00  0.00    +0.070 C 
ATOM     12  C   LIG    1        1.074   5.059   4.071  0.00  0.00    +0.040 A 
ATOM     13  C   LIG    1        0.830   7.169   7.054  0.00  0.00    +0.070 C 
ATOM     14  C   LIG    1        1.044   5.922   2.989  0.00  0.00    +0.150 A 
BRANCH   5  15
ATOM     15  O   LIG    1        0.906   8.145   2.129  0.00  0.00    -0.310 OA
BRANCH  15  17
ATOM     16  C   LIG    1        0.776  10.330   1.106  0.00  0.00    +0.070 C 
ATOM     17  C   LIG    1        0.790   9.540   2.416  0.00  0.00    +0.180 C 
ENDBRANCH  15  17
ENDBRANCH   5  15
ENDBRANCH   1  14
BRANCH   3  18
ATOM     18  C   LIG    1        0.573   3.724  -0.033  0.00  0.00    +0.130 C 
BRANCH  18  19
ATOM     19  C   LIG    1       -0.113   2.384  -0.095  0.00  0.00    -0.080 A 
ATOM     20  C   LIG    1       -1.475   2.316  -0.320  0.00  0.00    +0.060 A 
ATOM     21  C   LIG    1       -2.108   1.088  -0.378  0.00  0.00    -0.040 A 
ATOM     22  C   LIG    1       -1.375  -0.077  -0.212  0.00  0.00    +0.100 A 
ATOM     23  C   LIG    1       -0.005  -0.007   0.013  0.00  0.00    +0.070 A 
ATOM     24  F   LIG    1        0.712  -1.140   0.175  0.00  0.00    -0.130 F 
ATOM     25  C   LIG    1        0.622   1.224   0.071  0.00  0.00    +0.040 A 
BRANCH  22  26
ATOM     26  O   LIG    1       -1.995  -1.286  -0.270  0.00  0.00    -0.310 OA
ATOM     27  C   LIG    1       -3.404  -1.281  -0.505  0.00  0.00    +0.250 C 
ENDBRANCH  22  26
ENDBRANCH  18  19
ENDBRANCH   3  18
TORSDOF 6
