REMARK  Name = ZINCrH000004ujjs.0
REMARK                            x       y       z     vdW  Elec       q    Type
REMARK                         _______ _______ _______ _____ _____    ______ ____
ROOT
ATOM      1  O   LIG    1        3.470  -3.938   3.909  0.00  0.00    -0.580 OA
ATOM      2  C   LIG    1        2.829  -4.576   3.096  0.00  0.00    +0.710 C 
ATOM      3  N   LIG    1        2.880  -5.923   3.105  0.00  0.00    -0.740 N 
ATOM      4  H   LIG    1        2.369  -6.432   2.457  0.00  0.00    +0.400 HD
ATOM      5  N   LIG    1        2.068  -3.936   2.186  0.00  0.00    -0.750 N 
ATOM      6  H   LIG    1        1.557  -4.446   1.538  0.00  0.00    +0.400 HD
ENDROOT
BRANCH   3   7
ATOM      7  C   LIG    1        3.708  -6.617   4.095  0.00  0.00    +0.340 C 
BRANCH   7   8
ATOM      8  C   LIG    1        3.590  -8.106   3.891  0.00  0.00    -0.060 A 
ATOM      9  C   LIG    1        2.752  -8.850   4.700  0.00  0.00    +0.040 A 
ATOM     10  C   LIG    1        2.644 -10.216   4.513  0.00  0.00    +0.050 A 
ATOM     11  C   LIG    1        3.374 -10.837   3.517  0.00  0.00    +0.030 A 
ATOM     12  C   LIG    1        4.212 -10.092   2.708  0.00  0.00    +0.070 A 
ATOM     13  C   LIG    1        4.316  -8.726   2.892  0.00  0.00    -0.170 A 
BRANCH  13  14
ATOM     14  C   LIG    1        5.225  -7.914   2.005  0.00  0.00    +0.510 C 
ATOM     15  F   LIG    1        6.198  -7.284   2.788  0.00  0.00    -0.170 F 
ATOM     16  F   LIG    1        4.474  -6.948   1.328  0.00  0.00    -0.170 F 
ATOM     17  F   LIG    1        5.847  -8.757   1.078  0.00  0.00    -0.180 F 
ENDBRANCH  13  14
ENDBRANCH   7   8
ENDBRANCH   3   7
BRANCH   5  18
ATOM     18  C   LIG    1        2.013  -2.473   2.176  0.00  0.00    +0.290 C 
BRANCH  18  19
ATOM     19  C   LIG    1        1.084  -2.005   1.053  0.00  0.00    +0.070 C 
BRANCH  19  20
ATOM     20  C   LIG    1        1.026  -0.476   1.043  0.00  0.00    +0.150 C 
ATOM     21  C   LIG    1        0.002  -0.004   0.002  0.00  0.00    +0.230 C 
ATOM     22  O   LIG    1       -0.017   1.428   0.010  0.00  0.00    -0.310 OA
ATOM     23  C   LIG    1        1.190   2.055   0.002  0.00  0.00    +0.050 A 
ATOM     24  C   LIG    1        1.258   3.395  -0.349  0.00  0.00    +0.020 A 
ATOM     25  C   LIG    1        2.477   4.048  -0.359  0.00  0.00    +0.010 A 
ATOM     26  C   LIG    1        3.631   3.366  -0.019  0.00  0.00    +0.020 A 
ATOM     27  C   LIG    1        3.570   2.030   0.330  0.00  0.00    +0.030 A 
ATOM     28  C   LIG    1        2.351   1.370   0.341  0.00  0.00    +0.050 A 
ATOM     29  O   LIG    1        2.307   0.053   0.683  0.00  0.00    -0.300 OA
ENDBRANCH  19  20
ENDBRANCH  18  19
ENDBRANCH   5  18
TORSDOF 6
