REMARK  Name = ZINCpe00000My7tL.0
REMARK                            x       y       z     vdW  Elec       q    Type
REMARK                         _______ _______ _______ _____ _____    ______ ____
ROOT
ATOM      1  C   LIG    1       -2.631   7.969  -0.779  0.00  0.00    +0.140 C 
ATOM      2  C   LIG    1       -3.918   7.250  -0.365  0.00  0.00    +0.050 C 
ATOM      3  C   LIG    1       -3.675   5.739  -0.341  0.00  0.00    +0.030 C 
ATOM      4  C   LIG    1       -2.589   5.417   0.690  0.00  0.00    +0.270 C 
ATOM      5  N   LIG    1       -1.394   6.215   0.383  0.00  0.00    -0.580 N 
ATOM      6  C   LIG    1       -0.193   5.623   0.229  0.00  0.00    +0.580 C 
ATOM      7  O   LIG    1        0.800   6.300   0.043  0.00  0.00    -0.510 OA
ATOM      8  C   LIG    1       -1.532   7.672   0.253  0.00  0.00    +0.270 C 
ENDROOT
BRANCH   6   9
ATOM      9  C   LIG    1       -0.084   4.154   0.285  0.00  0.00    +0.050 A 
ATOM     10  C   LIG    1        0.748   3.521  -0.580  0.00  0.00    +0.060 A 
ATOM     11  C   LIG    1        0.828   2.058  -0.536  0.00  0.00    -0.020 A 
ATOM     12  C   LIG    1        1.813   1.334  -1.200  0.00  0.00    +0.040 A 
ATOM     13  C   LIG    1        1.814  -0.044  -1.115  0.00  0.00    +0.060 A 
ATOM     14  C   LIG    1        0.845  -0.711  -0.378  0.00  0.00    +0.020 A 
ATOM     15  C   LIG    1       -0.141  -0.011   0.290  0.00  0.00    +0.100 A 
ATOM     16  C   LIG    1       -0.158   1.374   0.218  0.00  0.00    -0.170 A 
ATOM     17  C   LIG    1       -1.165   2.203   0.906  0.00  0.00    +0.520 A 
ATOM     18  O   LIG    1       -2.262   1.763   1.194  0.00  0.00    -0.430 OA
ATOM     19  O   LIG    1       -0.814   3.475   1.199  0.00  0.00    -0.270 OA
ENDBRANCH   6   9
BRANCH   1  20
ATOM     20  O   LIG    1       -2.219   7.506  -2.066  0.00  0.00    -0.550 OA
ATOM     21  H   LIG    1       -1.408   7.920  -2.392  0.00  0.00    +0.390 HD
ENDBRANCH   1  20
BRANCH   1  22
ATOM     22  C   LIG    1       -2.884   9.477  -0.835  0.00  0.00    +0.050 C 
BRANCH  22  26
ATOM     23  C   LIG    1       -0.370  12.213  -1.754  0.00  0.00    +0.280 C 
ATOM     24  N   LIG    1       -1.602  11.526  -1.358  0.00  0.00    -0.730 N 
ATOM     25  H   LIG    1       -2.406  12.037  -1.180  0.00  0.00    +0.400 HD
ATOM     26  C   LIG    1       -1.617  10.183  -1.242  0.00  0.00    +0.510 C 
ATOM     27  O   LIG    1       -0.611   9.544  -1.465  0.00  0.00    -0.530 OA
ENDBRANCH  22  26
ENDBRANCH   1  22
TORSDOF 4
