REMARK  Name = ZINCpe000000UVYS.0
REMARK                            x       y       z     vdW  Elec       q    Type
REMARK                         _______ _______ _______ _____ _____    ______ ____
ROOT
ATOM      1  C   LIG    1        0.096   1.191   0.025  0.00  0.00    +0.220 C 
ATOM      2  C   LIG    1       -0.566   1.822  -1.204  0.00  0.00    +0.040 C 
ATOM      3  C   LIG    1        0.144   1.335  -2.469  0.00  0.00    +0.020 C 
ATOM      4  C   LIG    1        1.610   1.772  -2.433  0.00  0.00    +0.010 C 
ATOM      5  C   LIG    1        2.298   1.140  -1.218  0.00  0.00    +0.280 C 
ATOM      6  N   LIG    1        1.535   1.485  -0.011  0.00  0.00    -0.600 N 
ATOM      7  C   LIG    1        2.145   2.062   1.044  0.00  0.00    +0.500 C 
ATOM      8  O   LIG    1        1.531   2.242   2.075  0.00  0.00    -0.490 OA
ENDROOT
BRANCH   1  12
ATOM      9  C   LIG    1       -1.668   1.514   3.407  0.00  0.00    +0.290 C 
ATOM     10  N   LIG    1       -1.082   0.953   2.187  0.00  0.00    -0.730 N 
ATOM     11  H   LIG    1       -1.107  -0.004   2.032  0.00  0.00    +0.400 HD
ATOM     12  C   LIG    1       -0.506   1.768   1.280  0.00  0.00    +0.530 C 
ATOM     13  O   LIG    1       -0.474   2.964   1.474  0.00  0.00    -0.520 OA
ENDBRANCH   1  12
BRANCH   7  14
ATOM     14  C   LIG    1        3.588   2.482   0.944  0.00  0.00    +0.340 C 
BRANCH  14  15
ATOM     15  N   LIG    1        4.013   3.078   2.213  0.00  0.00    -0.530 N 
ATOM     16  C   LIG    1        4.545   2.289   3.182  0.00  0.00    +0.580 A 
ATOM     17  N   LIG    1        4.944   2.740   4.332  0.00  0.00    -0.510 NA
ATOM     18  C   LIG    1        4.856   4.057   4.648  0.00  0.00    +0.150 A 
ATOM     19  C   LIG    1        5.286   4.543   5.884  0.00  0.00    -0.080 A 
ATOM     20  C   LIG    1        5.178   5.888   6.162  0.00  0.00    +0.050 A 
ATOM     21  C   LIG    1        4.646   6.767   5.229  0.00  0.00    +0.000 A 
ATOM     22  C   LIG    1        4.215   6.311   4.002  0.00  0.00    +0.090 A 
ATOM     23  C   LIG    1        5.865   3.602   6.909  0.00  0.00    +0.110 C 
ATOM     24  C   LIG    1        4.316   4.954   3.701  0.00  0.00    -0.190 A 
ATOM     25  C   LIG    1        3.877   4.411   2.407  0.00  0.00    +0.550 A 
ATOM     26  O   LIG    1        3.406   5.130   1.545  0.00  0.00    -0.500 OA
ENDBRANCH  14  15
ENDBRANCH   7  14
TORSDOF 3
