REMARK  Name = ZINCtV00000L6jxA.0
REMARK                            x       y       z     vdW  Elec       q    Type
REMARK                         _______ _______ _______ _____ _____    ______ ____
ROOT
ATOM      1  C   LIG    1        0.002  -0.004   0.002  0.00  0.00    +0.470 A 
ATOM      2  N   LIG    1        0.121  -0.635   1.137  0.00  0.00    -0.570 NA
ATOM      3  C   LIG    1        0.145  -1.977   1.192  0.00  0.00    +0.540 A 
ATOM      4  C   LIG    1        0.034  -2.742  -0.064  0.00  0.00    -0.210 A 
ATOM      5  C   LIG    1       -0.090  -2.020  -1.238  0.00  0.00    +0.050 A 
ATOM      6  S   LIG    1       -0.207  -3.115  -2.608  0.00  0.00    +0.190 S 
ATOM      7  C   LIG    1       -0.087  -4.529  -1.578  0.00  0.00    -0.040 A 
ATOM      8  C   LIG    1        0.032  -4.180  -0.297  0.00  0.00    +0.010 A 
ATOM      9  O   LIG    1        0.257  -2.553   2.263  0.00  0.00    -0.470 OA
ATOM     10  N   LIG    1       -0.108  -0.644  -1.173  0.00  0.00    -0.580 N 
ATOM     11  H   LIG    1       -0.199  -0.129  -1.989  0.00  0.00    +0.430 HD
ENDROOT
BRANCH   8  12
ATOM     12  C   LIG    1        0.153  -5.171   0.798  0.00  0.00    -0.040 A 
ATOM     13  C   LIG    1        1.175  -5.053   1.740  0.00  0.00    +0.060 A 
ATOM     14  C   LIG    1        1.278  -5.975   2.761  0.00  0.00    +0.000 A 
ATOM     15  C   LIG    1        0.379  -7.022   2.845  0.00  0.00    +0.010 A 
ATOM     16  C   LIG    1       -0.633  -7.148   1.910  0.00  0.00    -0.010 A 
ATOM     17  C   LIG    1       -0.751  -6.228   0.888  0.00  0.00    +0.020 A 
ENDBRANCH   8  12
BRANCH   1  19
ATOM     18  C   LIG    1        1.417   2.032  -0.001  0.00  0.00    +0.090 C 
ATOM     19  C   LIG    1       -0.018   1.503   0.010  0.00  0.00    +0.120 C 
BRANCH  19  20
ATOM     20  S   LIG    1       -0.896   2.104  -1.459  0.00  0.00    -0.230 S 
BRANCH  20  21
ATOM     21  C   LIG    1       -0.950   3.898  -1.197  0.00  0.00    +0.130 C 
BRANCH  21  22
ATOM     22  C   LIG    1       -1.671   4.563  -2.371  0.00  0.00    +0.230 C 
BRANCH  22  23
ATOM     23  O   LIG    1       -1.714   5.977  -2.164  0.00  0.00    -0.310 OA
BRANCH  23  24
ATOM     24  C   LIG    1       -2.325   6.722  -3.122  0.00  0.00    +0.150 A 
ATOM     25  C   LIG    1       -2.867   6.106  -4.241  0.00  0.00    -0.060 A 
ATOM     26  C   LIG    1       -3.492   6.865  -5.211  0.00  0.00    +0.090 A 
ATOM     27  C   LIG    1       -3.569   8.240  -5.073  0.00  0.00    -0.130 A 
ATOM     28  C   LIG    1       -3.024   8.856  -3.961  0.00  0.00    +0.090 A 
ATOM     29 BR   LIG    1       -4.418   9.277  -6.407  0.00  0.00    -0.050 Br
ATOM     30  C   LIG    1       -2.403   8.100  -2.986  0.00  0.00    +0.000 A 
ENDBRANCH  23  24
ENDBRANCH  22  23
ENDBRANCH  21  22
ENDBRANCH  20  21
ENDBRANCH  19  20
ENDBRANCH   1  19
TORSDOF 7
