REMARK  Name = ZINCpk00000eb0bf.0
REMARK                            x       y       z     vdW  Elec       q    Type
REMARK                         _______ _______ _______ _____ _____    ______ ____
ROOT
ATOM      1  N   LIG    1       -3.469  -6.486   0.002  0.00  0.00    -0.670 N 
ATOM      2  H   LIG    1       -2.625  -6.957  -0.084  0.00  0.00    +0.410 HD
ATOM      3  C   LIG    1       -3.490  -5.138   0.011  0.00  0.00    +0.520 C 
ATOM      4  O   LIG    1       -4.550  -4.549   0.033  0.00  0.00    -0.510 OA
ENDROOT
BRANCH   1   9
ATOM      5  C   LIG    1       -8.312  -9.403   0.463  0.00  0.00    +0.120 C 
ATOM      6  C   LIG    1       -7.026  -8.628   0.340  0.00  0.00    +0.010 A 
ATOM      7  C   LIG    1       -5.868  -9.118   0.915  0.00  0.00    +0.020 A 
ATOM      8  C   LIG    1       -4.686  -8.413   0.800  0.00  0.00    +0.060 A 
ATOM      9  C   LIG    1       -4.663  -7.205   0.115  0.00  0.00    +0.120 A 
ATOM     10  C   LIG    1       -5.828  -6.716  -0.462  0.00  0.00    +0.140 A 
ATOM     11  C   LIG    1       -7.005  -7.429  -0.348  0.00  0.00    -0.660 A 
BRANCH  11  12
ATOM     12  S   LIG    1       -8.483  -6.809  -1.080  0.00  0.00    +2.700 S 
ATOM     13  O   LIG    1       -8.130  -5.597  -1.733  0.00  0.00    -0.950 OA
ATOM     14  O   LIG    1       -9.491  -6.889  -0.081  0.00  0.00    -0.960 OA
BRANCH  12  15
ATOM     15  N   LIG    1       -8.922  -7.871  -2.272  0.00  0.00    -1.250 NA
ATOM     16  H   LIG    1       -8.243  -8.378  -2.745  0.00  0.00    +0.420 HD
ATOM     17  H   LIG    1       -9.859  -7.987  -2.498  0.00  0.00    +0.420 HD
ENDBRANCH  12  15
ENDBRANCH  11  12
ENDBRANCH   1   9
BRANCH   3  18
ATOM     18  C   LIG    1       -2.197  -4.364  -0.006  0.00  0.00    +0.070 C 
BRANCH  18  19
ATOM     19  C   LIG    1       -2.501  -2.864   0.009  0.00  0.00    +0.290 C 
BRANCH  19  20
ATOM     20  N   LIG    1       -1.244  -2.112  -0.008  0.00  0.00    -0.730 N 
ATOM     21  H   LIG    1       -0.397  -2.583  -0.026  0.00  0.00    +0.400 HD
ATOM     22  C   LIG    1       -1.266  -0.764   0.001  0.00  0.00    +0.560 C 
ATOM     23  O   LIG    1       -2.328  -0.173   0.023  0.00  0.00    -0.530 OA
BRANCH  22  24
ATOM     24  C   LIG    1        0.003  -0.004  -0.016  0.00  0.00    -0.140 A 
ATOM     25  C   LIG    1       -0.016   1.391  -0.006  0.00  0.00    +0.080 A 
ATOM     26  C   LIG    1        1.171   2.094  -0.022  0.00  0.00    +0.000 A 
ATOM     27  C   LIG    1        2.378   1.419  -0.047  0.00  0.00    +0.040 A 
ATOM     28  C   LIG    1        2.404   0.035  -0.056  0.00  0.00    +0.000 A 
ATOM     29  C   LIG    1        1.224  -0.680  -0.041  0.00  0.00    +0.030 A 
ENDBRANCH  22  24
ENDBRANCH  19  20
ENDBRANCH  18  19
ENDBRANCH   3  18
TORSDOF 7
