REMARK  Name = ZINCqH0000006GTV.0
REMARK                            x       y       z     vdW  Elec       q    Type
REMARK                         _______ _______ _______ _____ _____    ______ ____
ROOT
ATOM      1  C   LIG    1       -3.908   7.482  -2.986  0.00  0.00    +0.560 C 
ATOM      2  N   LIG    1       -3.086   6.440  -2.753  0.00  0.00    -0.730 N 
ATOM      3  H   LIG    1       -2.645   5.995  -3.494  0.00  0.00    +0.400 HD
ATOM      4  O   LIG    1       -4.461   8.040  -2.059  0.00  0.00    -0.530 OA
ENDROOT
BRANCH   1   7
ATOM      5  C   LIG    1       -5.201   9.458  -5.914  0.00  0.00    +0.160 A 
ATOM      6  C   LIG    1       -4.989   9.026  -4.615  0.00  0.00    -0.030 A 
ATOM      7  C   LIG    1       -4.138   7.947  -4.371  0.00  0.00    -0.070 A 
ATOM      8  C   LIG    1       -3.500   7.312  -5.437  0.00  0.00    -0.080 A 
ATOM      9  C   LIG    1       -3.722   7.747  -6.733  0.00  0.00    +0.160 A 
ATOM     10  C   LIG    1       -4.568   8.820  -6.971  0.00  0.00    -0.120 A 
ATOM     11  C   LIG    1       -4.802   9.295  -8.383  0.00  0.00    +0.110 C 
BRANCH   5  13
ATOM     12  C   LIG    1       -6.646  11.119  -5.017  0.00  0.00    +0.250 C 
ATOM     13  O   LIG    1       -6.029  10.509  -6.152  0.00  0.00    -0.310 OA
ENDBRANCH   5  13
BRANCH   9  14
ATOM     14  O   LIG    1       -3.105   7.126  -7.773  0.00  0.00    -0.310 OA
ATOM     15  C   LIG    1       -2.246   6.029  -7.456  0.00  0.00    +0.250 C 
ENDBRANCH   9  14
ENDBRANCH   1   7
BRANCH   2  16
ATOM     16  C   LIG    1       -2.859   5.980  -1.381  0.00  0.00    +0.270 C 
BRANCH  16  17
ATOM     17  C   LIG    1       -1.893   4.793  -1.395  0.00  0.00    +0.010 C 
BRANCH  17  18
ATOM     18  C   LIG    1       -1.655   4.312   0.038  0.00  0.00    +0.300 C 
BRANCH  18  19
ATOM     19  N   LIG    1       -0.730   3.176   0.025  0.00  0.00    -0.490 N 
ATOM     20  C   LIG    1       -1.102   1.859   0.017  0.00  0.00    +0.220 A 
ATOM     21  C   LIG    1       -0.013   1.076   0.008  0.00  0.00    -0.050 A 
ATOM     22  C   LIG    1        1.153   1.963   0.002  0.00  0.00    -0.110 A 
ATOM     23  C   LIG    1        2.533   1.752  -0.011  0.00  0.00    +0.050 A 
ATOM     24  C   LIG    1        3.383   2.822  -0.014  0.00  0.00    -0.030 A 
ATOM     25  C   LIG    1        2.885   4.118  -0.003  0.00  0.00    +0.020 A 
ATOM     26  C   LIG    1        1.527   4.349   0.010  0.00  0.00    -0.010 A 
ATOM     27  C   LIG    1        0.643   3.275   0.013  0.00  0.00    +0.100 A 
ENDBRANCH  18  19
ENDBRANCH  17  18
ENDBRANCH  16  17
ENDBRANCH   2  16
TORSDOF 7
