REMARK  Name = ZINCrD00000l5634.0
REMARK                            x       y       z     vdW  Elec       q    Type
REMARK                         _______ _______ _______ _____ _____    ______ ____
ROOT
ATOM      1  C   LIG    1       -6.985   5.917  -0.989  0.00  0.00    +0.550 C 
ATOM      2  N   LIG    1       -6.163   6.082   0.065  0.00  0.00    -0.660 N 
ATOM      3  H   LIG    1       -6.455   6.599   0.833  0.00  0.00    +0.410 HD
ATOM      4  O   LIG    1       -6.657   5.192  -1.908  0.00  0.00    -0.490 OA
ENDROOT
BRANCH   1  10
ATOM      5  C   LIG    1      -11.278   6.924  -3.326  0.00  0.00    +0.110 C 
ATOM      6  C   LIG    1      -10.354   7.105  -2.149  0.00  0.00    -0.040 A 
ATOM      7  C   LIG    1      -10.725   7.929  -1.101  0.00  0.00    +0.070 A 
ATOM      8  C   LIG    1       -9.883   8.100  -0.017  0.00  0.00    +0.070 A 
ATOM      9  C   LIG    1       -8.669   7.446   0.028  0.00  0.00    +0.070 A 
ATOM     10  C   LIG    1       -8.287   6.617  -1.028  0.00  0.00    -0.090 A 
ATOM     11  C   LIG    1       -9.141   6.448  -2.119  0.00  0.00    +0.030 A 
BRANCH  11  12
ATOM     12  N   LIG    1       -8.746   5.567  -3.241  0.00  0.00    +0.030 N 
ATOM     13  O   LIG    1       -8.129   6.023  -4.186  0.00  0.00    -0.130 OA
ATOM     14  O   LIG    1       -9.040   4.385  -3.219  0.00  0.00    -0.130 OA
ENDBRANCH  11  12
ENDBRANCH   1  10
BRANCH   2  15
ATOM     15  C   LIG    1       -4.887   5.510   0.053  0.00  0.00    +0.140 A 
ATOM     16  C   LIG    1       -4.316   5.056   1.236  0.00  0.00    -0.010 A 
ATOM     17  C   LIG    1       -3.056   4.492   1.221  0.00  0.00    +0.050 A 
ATOM     18  C   LIG    1       -2.362   4.378   0.030  0.00  0.00    -0.080 A 
ATOM     19  C   LIG    1       -2.925   4.833  -1.148  0.00  0.00    +0.050 A 
ATOM     20  C   LIG    1       -4.187   5.394  -1.141  0.00  0.00    +0.020 A 
BRANCH  18  21
ATOM     21  C   LIG    1       -0.987   3.762   0.017  0.00  0.00    +0.100 C 
BRANCH  21  22
ATOM     22  C   LIG    1       -1.104   2.276  -0.200  0.00  0.00    +0.530 C 
ATOM     23  N   LIG    1        0.006   1.512  -0.248  0.00  0.00    -0.620 N 
ATOM     24  C   LIG    1        1.387   1.998  -0.110  0.00  0.00    +0.240 C 
ATOM     25  C   LIG    1        2.319   0.778  -0.265  0.00  0.00    +0.030 C 
ATOM     26  C   LIG    1        1.439  -0.236  -1.044  0.00  0.00    +0.040 C 
ATOM     27  C   LIG    1        0.036   0.053  -0.453  0.00  0.00    +0.250 C 
ATOM     28  O   LIG    1       -2.197   1.766  -0.331  0.00  0.00    -0.530 OA
ENDBRANCH  21  22
ENDBRANCH  18  21
ENDBRANCH   2  15
TORSDOF 5
