REMARK  Name = ZINCvU0000000Am6.0
REMARK                            x       y       z     vdW  Elec       q    Type
REMARK                         _______ _______ _______ _____ _____    ______ ____
ROOT
ATOM      1  N   LIG    1       -4.128   7.852   0.628  0.00  0.00    -0.480 N 
ATOM      2  C   LIG    1       -5.383   8.347   0.730  0.00  0.00    +0.550 A 
ATOM      3  C   LIG    1       -6.496   7.389   0.708  0.00  0.00    -0.200 A 
ATOM      4  C   LIG    1       -7.824   7.802   0.808  0.00  0.00    +0.100 A 
ATOM      5  C   LIG    1       -8.832   6.863   0.783  0.00  0.00    +0.000 A 
ATOM      6  C   LIG    1       -8.536   5.512   0.659  0.00  0.00    +0.070 A 
ATOM      7  C   LIG    1       -7.232   5.081   0.559  0.00  0.00    +0.030 A 
ATOM      8  C   LIG    1       -6.191   6.014   0.582  0.00  0.00    +0.160 A 
ATOM      9  N   LIG    1       -4.896   5.632   0.482  0.00  0.00    -0.530 NA
ATOM     10  O   LIG    1       -5.583   9.543   0.836  0.00  0.00    -0.490 OA
ATOM     11  C   LIG    1       -3.920   6.505   0.509  0.00  0.00    +0.360 A 
ENDROOT
BRANCH   1  18
ATOM     12  C   LIG    1       -2.952   8.490   3.140  0.00  0.00    +0.100 C 
ATOM     13  C   LIG    1       -2.429   9.063   1.848  0.00  0.00    -0.050 A 
ATOM     14  C   LIG    1       -1.350   9.924   1.860  0.00  0.00    +0.020 A 
ATOM     15  C   LIG    1       -0.870  10.450   0.675  0.00  0.00    +0.040 A 
ATOM     16  C   LIG    1       -1.469  10.116  -0.526  0.00  0.00    +0.010 A 
ATOM     17  C   LIG    1       -2.546   9.251  -0.545  0.00  0.00    +0.050 A 
ATOM     18  C   LIG    1       -3.033   8.726   0.644  0.00  0.00    +0.080 A 
ENDBRANCH   1  18
BRANCH  11  19
ATOM     19  S   LIG    1       -2.264   5.919   0.380  0.00  0.00    +0.100 S 
BRANCH  19  20
ATOM     20  C   LIG    1       -2.570   4.140   0.252  0.00  0.00    +0.120 C 
BRANCH  20  21
ATOM     21  C   LIG    1       -1.256   3.412   0.128  0.00  0.00    +0.530 C 
ATOM     22  N   LIG    1       -1.237   2.069   0.019  0.00  0.00    -0.660 N 
ATOM     23  H   LIG    1       -2.070   1.577  -0.057  0.00  0.00    +0.420 HD
ATOM     24  O   LIG    1       -0.215   4.035   0.127  0.00  0.00    -0.500 OA
BRANCH  22  25
ATOM     25  C   LIG    1       -0.017   1.384   0.015  0.00  0.00    +0.170 A 
ATOM     26  C   LIG    1        0.127   0.223  -0.732  0.00  0.00    +0.020 A 
ATOM     27  C   LIG    1        1.331  -0.456  -0.729  0.00  0.00    -0.000 A 
ATOM     28  C   LIG    1        2.394   0.023   0.017  0.00  0.00    +0.030 A 
ATOM     29  C   LIG    1        2.253   1.180   0.763  0.00  0.00    -0.000 A 
ATOM     30 CL   LIG    1        3.589   1.776   1.699  0.00  0.00    -0.050 Cl
ATOM     31 CL   LIG    1        1.511  -1.908  -1.663  0.00  0.00    -0.050 Cl
ATOM     32  C   LIG    1        1.051   1.861   0.764  0.00  0.00    +0.040 A 
ENDBRANCH  22  25
ENDBRANCH  20  21
ENDBRANCH  19  20
ENDBRANCH  11  19
TORSDOF 5
