REMARK  Name = ZINCqH0000051in6.0
REMARK                            x       y       z     vdW  Elec       q    Type
REMARK                         _______ _______ _______ _____ _____    ______ ____
ROOT
ATOM      1  O   LIG    1       -2.214  -0.102   0.023  0.00  0.00    -0.500 OA
ATOM      2  C   LIG    1       -1.156  -0.694   0.009  0.00  0.00    +0.530 C 
ATOM      3  N   LIG    1        0.002  -0.004   0.002  0.00  0.00    -0.720 N 
ATOM      4  H   LIG    1        0.849  -0.478  -0.009  0.00  0.00    +0.410 HD
ENDROOT
BRANCH   2   5
ATOM      5  C   LIG    1       -1.135  -2.201   0.001  0.00  0.00    +0.190 C 
ATOM      6  C   LIG    1       -0.508  -2.714   1.308  0.00  0.00    +0.100 C 
ATOM      7  S   LIG    1       -0.330  -4.517   1.146  0.00  0.00    -0.090 S 
ATOM      8  C   LIG    1       -1.883  -4.977   0.443  0.00  0.00    -0.160 A 
ATOM      9  C   LIG    1       -2.241  -6.319   0.426  0.00  0.00    +0.070 A 
ATOM     10  C   LIG    1       -3.438  -6.714  -0.140  0.00  0.00    +0.000 A 
ATOM     11  C   LIG    1       -4.281  -5.767  -0.690  0.00  0.00    +0.060 A 
ATOM     12  C   LIG    1       -3.934  -4.431  -0.670  0.00  0.00    +0.010 A 
ATOM     13  C   LIG    1       -2.733  -4.019  -0.098  0.00  0.00    +0.130 A 
ATOM     14  O   LIG    1       -2.463  -2.693  -0.101  0.00  0.00    -0.290 OA
ENDBRANCH   2   5
BRANCH   3  15
ATOM     15  C   LIG    1       -0.018   1.461   0.010  0.00  0.00    +0.310 C 
BRANCH  15  16
ATOM     16  C   LIG    1        1.418   1.990  -0.001  0.00  0.00    +0.210 C 
BRANCH  16  17
ATOM     17  O   LIG    1        2.050   1.628  -1.230  0.00  0.00    -0.310 OA
BRANCH  17  18
ATOM     18  C   LIG    1        3.338   2.024  -1.401  0.00  0.00    +0.160 A 
ATOM     19  C   LIG    1        3.979   2.752  -0.410  0.00  0.00    -0.070 A 
ATOM     20  C   LIG    1        5.291   3.150  -0.584  0.00  0.00    +0.110 A 
ATOM     21  C   LIG    1        5.961   2.832  -1.751  0.00  0.00    -0.220 A 
ATOM     22  C   LIG    1        5.323   2.111  -2.743  0.00  0.00    +0.110 A 
ATOM     23  C   LIG    1        4.013   1.706  -2.571  0.00  0.00    -0.010 A 
BRANCH  21  24
ATOM     24  C   LIG    1        7.390   3.271  -1.941  0.00  0.00    +0.510 C 
ATOM     25  F   LIG    1        8.057   2.350  -2.755  0.00  0.00    -0.180 F 
ATOM     26  F   LIG    1        8.026   3.340  -0.697  0.00  0.00    -0.180 F 
ATOM     27  F   LIG    1        7.413   4.532  -2.547  0.00  0.00    -0.180 F 
ENDBRANCH  21  24
ENDBRANCH  17  18
ENDBRANCH  16  17
ENDBRANCH  15  16
ENDBRANCH   3  15
TORSDOF 6
