REMARK  Name = ZINCrD0000074lyd.0
REMARK                            x       y       z     vdW  Elec       q    Type
REMARK                         _______ _______ _______ _____ _____    ______ ____
ROOT
ATOM      1  C   LIG    1       -5.860   3.325   0.017  0.00  0.00    +0.520 C 
ATOM      2  N   LIG    1       -7.182   3.064   0.028  0.00  0.00    -0.680 N 
ATOM      3  H   LIG    1       -7.495   2.146   0.021  0.00  0.00    +0.420 HD
ATOM      4  C   LIG    1       -8.069   4.078   0.048  0.00  0.00    +0.700 C 
ATOM      5  N   LIG    1       -9.391   3.817   0.059  0.00  0.00    -0.670 N 
ATOM      6  H   LIG    1       -9.705   2.902  -0.014  0.00  0.00    +0.410 HD
ATOM      7  O   LIG    1       -7.677   5.229   0.057  0.00  0.00    -0.510 OA
ATOM      8  O   LIG    1       -5.468   4.473   0.026  0.00  0.00    -0.430 OA
ENDROOT
BRANCH   5   9
ATOM      9  C   LIG    1      -10.312   4.867   0.174  0.00  0.00    +0.120 A 
ATOM     10  C   LIG    1      -10.041   6.096  -0.410  0.00  0.00    +0.060 A 
ATOM     11  C   LIG    1      -10.951   7.130  -0.295  0.00  0.00    +0.030 A 
ATOM     12  C   LIG    1      -12.130   6.941   0.402  0.00  0.00    +0.040 A 
ATOM     13  C   LIG    1      -12.404   5.718   0.987  0.00  0.00    +0.010 A 
ATOM     14  C   LIG    1      -11.501   4.677   0.870  0.00  0.00    +0.070 A 
ATOM     15  F   LIG    1      -11.771   3.481   1.435  0.00  0.00    -0.140 F 
ENDBRANCH   5   9
BRANCH   1  16
ATOM     16  C   LIG    1       -4.867   2.191  -0.005  0.00  0.00    +0.290 C 
BRANCH  16  17
ATOM     17  O   LIG    1       -3.518   2.728  -0.013  0.00  0.00    -0.320 OA
BRANCH  17  18
ATOM     18  C   LIG    1       -2.505   1.838  -0.033  0.00  0.00    +0.560 C 
ATOM     19  O   LIG    1       -2.744   0.646  -0.044  0.00  0.00    -0.480 OA
BRANCH  18  22
ATOM     20  C   LIG    1        0.003   0.001  -0.079  0.00  0.00    +0.150 C 
ATOM     21  C   LIG    1       -0.018   1.508  -0.062  0.00  0.00    -0.050 A 
ATOM     22  C   LIG    1       -1.115   2.309  -0.042  0.00  0.00    -0.030 A 
ATOM     23  O   LIG    1       -0.733   3.604  -0.029  0.00  0.00    -0.170 OA
ATOM     24  C   LIG    1        0.610   3.708  -0.049  0.00  0.00    +0.080 A 
ATOM     25  C   LIG    1        1.481   4.791  -0.052  0.00  0.00    +0.030 A 
ATOM     26  C   LIG    1        2.842   4.577  -0.076  0.00  0.00    +0.070 A 
ATOM     27  C   LIG    1        3.357   3.288  -0.098  0.00  0.00    +0.000 A 
ATOM     28  C   LIG    1        2.521   2.208  -0.096  0.00  0.00    +0.080 A 
ATOM     29  C   LIG    1        1.138   2.403  -0.071  0.00  0.00    -0.150 A 
ENDBRANCH  18  22
ENDBRANCH  17  18
ENDBRANCH  16  17
ENDBRANCH   1  16
TORSDOF 5
