REMARK  Name = ZINCpe000000YcN7.0
REMARK                            x       y       z     vdW  Elec       q    Type
REMARK                         _______ _______ _______ _____ _____    ______ ____
ROOT
ATOM      1  C   LIG    1        5.577   1.834  -1.483  0.00  0.00    +0.520 C 
ATOM      2  N   LIG    1        6.227   1.974  -2.655  0.00  0.00    -0.720 N 
ATOM      3  H   LIG    1        5.744   1.883  -3.491  0.00  0.00    +0.400 HD
ATOM      4  O   LIG    1        6.181   1.948  -0.437  0.00  0.00    -0.510 OA
ENDROOT
BRANCH   2   5
ATOM      5  C   LIG    1        7.663   2.264  -2.667  0.00  0.00    +0.230 C 
ATOM      6  C   LIG    1        8.068   2.937  -3.999  0.00  0.00    +0.060 C 
ATOM      7  C   LIG    1        8.518   1.718  -4.840  0.00  0.00    +0.250 C 
ATOM      8  N   LIG    1        8.934   0.702  -3.866  0.00  0.00    -0.620 N 
ATOM      9  C   LIG    1        8.463   0.980  -2.638  0.00  0.00    +0.500 C 
ATOM     10  O   LIG    1        8.651   0.301  -1.651  0.00  0.00    -0.500 OA
BRANCH   8  11
ATOM     11  C   LIG    1        9.756  -0.467  -4.190  0.00  0.00    +0.250 C 
ATOM     12  C   LIG    1        8.985  -1.746  -3.851  0.00  0.00    -0.010 C 
ATOM     13  C   LIG    1        9.880  -2.958  -4.119  0.00  0.00    +0.220 C 
ATOM     14  O   LIG    1       11.077  -2.845  -3.346  0.00  0.00    -0.380 OA
ATOM     15  C   LIG    1       11.863  -1.692  -3.654  0.00  0.00    +0.220 C 
ATOM     16  C   LIG    1       11.047  -0.429  -3.367  0.00  0.00    -0.000 C 
ENDBRANCH   8  11
ENDBRANCH   2   5
BRANCH   1  17
ATOM     17  C   LIG    1        4.100   1.535  -1.471  0.00  0.00    +0.040 C 
BRANCH  17  18
ATOM     18  C   LIG    1        3.614   1.426  -0.024  0.00  0.00    +0.320 C 
BRANCH  18  22
ATOM     19  C   LIG    1       -1.232   2.666   0.023  0.00  0.00    +0.170 C 
ATOM     20  C   LIG    1       -0.022   1.768   0.012  0.00  0.00    -0.200 A 
ATOM     21  C   LIG    1        1.252   2.136   0.002  0.00  0.00    +0.090 A 
ATOM     22  N   LIG    1        2.178   1.136  -0.013  0.00  0.00    -0.530 N 
ATOM     23  C   LIG    1        1.720  -0.126  -0.015  0.00  0.00    +0.480 A 
ATOM     24  O   LIG    1        2.383  -1.148  -0.026  0.00  0.00    -0.470 OA
ATOM     25  C   LIG    1        1.656   3.587   0.005  0.00  0.00    +0.150 C 
ATOM     26  S   LIG    1        0.002  -0.004   0.002  0.00  0.00    +0.010 S 
ENDBRANCH  18  22
ENDBRANCH  17  18
ENDBRANCH   1  17
TORSDOF 5
