REMARK  Name = ZINCrg000000nqlu.0
REMARK                            x       y       z     vdW  Elec       q    Type
REMARK                         _______ _______ _______ _____ _____    ______ ____
ROOT
ATOM      1  N   LIG    1        1.896   1.075  -1.052  0.00  0.00    -1.090 NA
ATOM      2  H   LIG    1        2.344   0.227  -1.201  0.00  0.00    +0.430 HD
ENDROOT
BRANCH   1   3
ATOM      3  S   LIG    1        1.615   2.098  -2.323  0.00  0.00    +2.700 S 
ATOM      4  O   LIG    1        0.252   2.488  -2.230  0.00  0.00    -0.940 OA
ATOM      5  O   LIG    1        2.167   1.471  -3.473  0.00  0.00    -0.950 OA
BRANCH   3   6
ATOM      6  C   LIG    1        2.569   3.553  -2.044  0.00  0.00    -0.680 A 
ATOM      7  C   LIG    1        2.023   4.612  -1.343  0.00  0.00    +0.130 A 
ATOM      8  C   LIG    1        2.770   5.753  -1.118  0.00  0.00    +0.020 A 
ATOM      9  C   LIG    1        4.065   5.843  -1.604  0.00  0.00    +0.110 A 
ATOM     10  O   LIG    1        4.785   6.976  -1.383  0.00  0.00    -0.300 OA
ATOM     11  C   LIG    1        6.203   6.883  -1.559  0.00  0.00    +0.230 C 
ATOM     12  C   LIG    1        6.475   6.145  -2.877  0.00  0.00    +0.230 C 
ATOM     13  O   LIG    1        5.885   4.844  -2.793  0.00  0.00    -0.300 OA
ATOM     14  C   LIG    1        4.613   4.779  -2.312  0.00  0.00    +0.030 A 
ATOM     15  C   LIG    1        3.861   3.635  -2.529  0.00  0.00    +0.140 A 
ENDBRANCH   3   6
ENDBRANCH   1   3
BRANCH   1  16
ATOM     16  C   LIG    1        1.470   1.450   0.298  0.00  0.00    +0.250 C 
BRANCH  16  17
ATOM     17  C   LIG    1        2.667   1.480   1.213  0.00  0.00    +0.510 C 
ATOM     18  N   LIG    1        2.656   2.260   2.312  0.00  0.00    -0.620 N 
ATOM     19  C   LIG    1        1.449   3.008   2.698  0.00  0.00    +0.240 C 
ATOM     20  C   LIG    1        1.159   2.719   4.180  0.00  0.00    +0.220 C 
ATOM     21  O   LIG    1        2.338   2.976   4.947  0.00  0.00    -0.370 OA
ATOM     22  C   LIG    1        3.448   2.139   4.613  0.00  0.00    +0.130 C 
ATOM     23  C   LIG    1        4.626   2.460   5.535  0.00  0.00    +0.070 C 
ATOM     24  C   LIG    1        3.853   2.395   3.157  0.00  0.00    +0.260 C 
ATOM     25  O   LIG    1        3.640   0.801   0.961  0.00  0.00    -0.520 OA
ENDBRANCH  16  17
BRANCH  16  27
ATOM     26  C   LIG    1        1.059  -0.977   0.727  0.00  0.00    +0.030 C 
ATOM     27  C   LIG    1        0.457   0.427   0.816  0.00  0.00    -0.010 C 
ATOM     28  C   LIG    1       -0.814   0.491  -0.034  0.00  0.00    +0.040 C 
ENDBRANCH  16  27
ENDBRANCH   1  16
TORSDOF 5
