REMARK  Name = ZINCpk000005NQmJ.0
REMARK                            x       y       z     vdW  Elec       q    Type
REMARK                         _______ _______ _______ _____ _____    ______ ____
ROOT
ATOM      1  C   LIG    1        3.004   1.576  -1.761  0.00  0.00    +0.080 C 
ATOM      2  C   LIG    1        4.268   0.826  -2.187  0.00  0.00    +0.030 C 
ATOM      3  C   LIG    1        4.382   2.168  -1.460  0.00  0.00    +0.070 C 
ENDROOT
BRANCH   1   4
ATOM      4  C   LIG    1        2.208   1.007  -0.584  0.00  0.00    +0.270 C 
ATOM      5  C   LIG    1        1.256  -0.101  -1.082  0.00  0.00    +0.040 C 
ATOM      6  C   LIG    1       -0.021   0.130  -0.231  0.00  0.00    +0.040 C 
ATOM      7  C   LIG    1       -0.041   1.674  -0.113  0.00  0.00    +0.250 C 
ATOM      8  N   LIG    1        1.376   2.062   0.013  0.00  0.00    -0.620 N 
ATOM      9  C   LIG    1        1.833   3.196   0.581  0.00  0.00    +0.560 C 
ATOM     10  O   LIG    1        3.017   3.454   0.551  0.00  0.00    -0.510 OA
BRANCH   9  11
ATOM     11  C   LIG    1        0.871   4.143   1.252  0.00  0.00    -0.070 C 
ATOM     12  C   LIG    1        0.634   5.499   0.584  0.00  0.00    +0.050 C 
ATOM     13  C   LIG    1        1.451   5.413   1.876  0.00  0.00    -0.090 C 
ATOM     14  C   LIG    1        2.963   5.626   1.770  0.00  0.00    +0.080 C 
ATOM     15  C   LIG    1        0.800   5.931   3.160  0.00  0.00    +0.070 C 
ENDBRANCH   9  11
ENDBRANCH   1   4
BRANCH   1  17
ATOM     16  C   LIG    1        2.819   2.749  -3.888  0.00  0.00    +0.620 C 
ATOM     17  N   LIG    1        2.208   2.213  -2.813  0.00  0.00    -0.670 N 
ATOM     18  H   LIG    1        1.242   2.249  -2.736  0.00  0.00    +0.410 HD
ATOM     19  O   LIG    1        4.030   2.704  -3.985  0.00  0.00    -0.500 OA
BRANCH  16  23
ATOM     20  C   LIG    1        1.525   5.130  -8.071  0.00  0.00    +0.200 C 
ATOM     21  C   LIG    1        1.471   4.414  -6.747  0.00  0.00    +0.210 A 
ATOM     22  N   LIG    1        2.496   3.963  -6.070  0.00  0.00    -0.460 NA
ATOM     23  C   LIG    1        2.016   3.392  -4.950  0.00  0.00    +0.150 A 
ATOM     24  N   LIG    1        0.706   3.502  -4.970  0.00  0.00    -0.280 NA
ATOM     25  N   LIG    1        0.360   4.122  -6.045  0.00  0.00    -0.300 N 
ATOM     26  C   LIG    1       -1.012   4.449  -6.441  0.00  0.00    +0.370 C 
ENDBRANCH  16  23
ENDBRANCH   1  17
TORSDOF 4
