REMARK  Name = ZINCrH000004jaya.0
REMARK                            x       y       z     vdW  Elec       q    Type
REMARK                         _______ _______ _______ _____ _____    ______ ____
ROOT
ATOM      1  C   LIG    1        6.076  -1.529  -0.264  0.00  0.00    +0.010 C 
ATOM      2  C   LIG    1        5.941  -2.333   1.051  0.00  0.00    +0.080 C 
ATOM      3  C   LIG    1        6.836  -1.601   2.026  0.00  0.00    +0.520 C 
ATOM      4  N   LIG    1        7.672  -0.783   1.363  0.00  0.00    -0.610 N 
ATOM      5  O   LIG    1        6.804  -1.732   3.231  0.00  0.00    -0.510 OA
ATOM      6  C   LIG    1        7.460  -0.866  -0.088  0.00  0.00    +0.310 C 
ENDROOT
BRANCH   1  15
ATOM      7  C   LIG    1        0.211   1.381  -0.803  0.00  0.00    -0.100 A 
ATOM      8  C   LIG    1        1.403   2.077  -0.721  0.00  0.00    +0.040 A 
ATOM      9  C   LIG    1        2.598   1.397  -0.609  0.00  0.00    +0.020 A 
ATOM     10  C   LIG    1        2.613   0.001  -0.578  0.00  0.00    +0.140 A 
ATOM     11  C   LIG    1        1.413  -0.687  -0.661  0.00  0.00    -0.130 A 
ATOM     12  C   LIG    1        1.703  -2.170  -0.605  0.00  0.00    +0.090 C 
ATOM     13  C   LIG    1        3.233  -2.260  -0.479  0.00  0.00    +0.270 C 
ATOM     14  N   LIG    1        3.700  -0.871  -0.471  0.00  0.00    -0.550 N 
ATOM     15  C   LIG    1        4.990  -0.491  -0.374  0.00  0.00    +0.530 C 
ATOM     16  O   LIG    1        5.276   0.688  -0.377  0.00  0.00    -0.510 OA
ATOM     17  C   LIG    1        0.218  -0.001  -0.773  0.00  0.00    +0.050 A 
BRANCH   7  19
ATOM     18  C   LIG    1       -1.656   2.411   0.462  0.00  0.00    +0.030 C 
ATOM     19  C   LIG    1       -1.091   2.127  -0.931  0.00  0.00    +0.060 C 
ENDBRANCH   7  19
ENDBRANCH   1  15
BRANCH   4  20
ATOM     20  C   LIG    1        8.666   0.080   2.005  0.00  0.00    +0.300 C 
ATOM     21  C   LIG    1        7.962   1.050   2.955  0.00  0.00    +0.030 C 
BRANCH  20  22
ATOM     22  C   LIG    1        9.640  -0.768   2.782  0.00  0.00    -0.090 A 
ATOM     23  C   LIG    1       10.149  -0.310   3.983  0.00  0.00    +0.020 A 
ATOM     24  C   LIG    1       11.038  -1.089   4.699  0.00  0.00    +0.000 A 
ATOM     25  C   LIG    1       11.426  -2.322   4.209  0.00  0.00    +0.000 A 
ATOM     26  C   LIG    1       10.921  -2.778   3.005  0.00  0.00    +0.000 A 
ATOM     27  C   LIG    1       10.028  -2.000   2.292  0.00  0.00    +0.010 A 
ENDBRANCH  20  22
ENDBRANCH   4  20
TORSDOF 4
