REMARK  Name = ZINCrD0000072stl.0
REMARK                            x       y       z     vdW  Elec       q    Type
REMARK                         _______ _______ _______ _____ _____    ______ ____
ROOT
ATOM      1  O   LIG    1       -1.394  -4.653  -0.010  0.00  0.00    -0.320 OA
ENDROOT
BRANCH   1   2
ATOM      2  C   LIG    1       -1.723  -3.346  -0.000  0.00  0.00    +0.520 C 
ATOM      3  O   LIG    1       -2.891  -3.014   0.013  0.00  0.00    -0.500 OA
BRANCH   2   9
ATOM      4  N   LIG    1        2.095   0.742  -0.014  0.00  0.00    -0.390 N 
ATOM      5  N   LIG    1        1.185   1.809   0.001  0.00  0.00    +0.000 NA
ATOM      6  N   LIG    1       -0.016   1.350   0.009  0.00  0.00    -0.200 NA
ATOM      7  C   LIG    1        0.002  -0.004   0.002  0.00  0.00    -0.030 A 
ATOM      8  C   LIG    1       -1.006  -0.972   0.006  0.00  0.00    +0.210 A 
ATOM      9  C   LIG    1       -0.664  -2.319  -0.005  0.00  0.00    -0.140 A 
ATOM     10  C   LIG    1        0.685  -2.705  -0.020  0.00  0.00    +0.140 A 
ATOM     11  C   LIG    1        1.672  -1.766  -0.024  0.00  0.00    +0.010 A 
ATOM     12  C   LIG    1        1.349  -0.411  -0.013  0.00  0.00    +0.120 A 
BRANCH   4  14
ATOM     13  C   LIG    1        4.053   0.879  -1.473  0.00  0.00    +0.050 C 
ATOM     14  C   LIG    1        3.556   0.838  -0.026  0.00  0.00    +0.330 C 
ENDBRANCH   4  14
ENDBRANCH   2   9
ENDBRANCH   1   2
BRANCH   1  15
ATOM     15  C   LIG    1       -2.487  -5.608  -0.005  0.00  0.00    +0.200 C 
ATOM     16  C   LIG    1       -2.885  -5.936  -1.446  0.00  0.00    +0.070 C 
BRANCH  15  17
ATOM     17  C   LIG    1       -2.049  -6.869   0.695  0.00  0.00    +0.510 C 
ATOM     18  N   LIG    1       -2.906  -7.902   0.821  0.00  0.00    -0.650 N 
ATOM     19  H   LIG    1       -3.804  -7.834   0.461  0.00  0.00    +0.420 HD
ATOM     20  O   LIG    1       -0.926  -6.954   1.144  0.00  0.00    -0.440 OA
BRANCH  18  21
ATOM     21  C   LIG    1       -2.500  -9.069   1.468  0.00  0.00    +0.380 A 
ATOM     22  N   LIG    1       -1.272  -9.158   1.952  0.00  0.00    -0.450 NA
ATOM     23  C   LIG    1       -0.849 -10.241   2.576  0.00  0.00    +0.340 A 
ATOM     24  C   LIG    1       -1.678 -11.334   2.737  0.00  0.00    -0.110 A 
ATOM     25  C   LIG    1       -2.974 -11.284   2.239  0.00  0.00    +0.130 A 
ATOM     26 CL   LIG    1       -1.107 -12.755   3.555  0.00  0.00    -0.040 Cl
ATOM     27  C   LIG    1       -3.390 -10.132   1.594  0.00  0.00    -0.120 A 
ATOM     28 CL   LIG    1       -4.998 -10.014   0.951  0.00  0.00    -0.040 Cl
ENDBRANCH  18  21
ENDBRANCH  15  17
ENDBRANCH   1  15
TORSDOF 6
