REMARK  Name = ZINCwl0000000pq2.0
REMARK                            x       y       z     vdW  Elec       q    Type
REMARK                         _______ _______ _______ _____ _____    ______ ____
ROOT
ATOM      1  O   LIG    1        6.113  -0.154  -5.119  0.00  0.00    -0.490 OA
ATOM      2  C   LIG    1        5.150  -0.860  -4.907  0.00  0.00    +0.520 C 
ATOM      3  N   LIG    1        4.412  -0.676  -3.794  0.00  0.00    -0.740 N 
ATOM      4  H   LIG    1        3.642  -1.241  -3.624  0.00  0.00    +0.400 HD
ENDROOT
BRANCH   3   5
ATOM      5  C   LIG    1        4.774   0.376  -2.841  0.00  0.00    +0.270 C 
ATOM      6  C   LIG    1        4.134   1.717  -3.255  0.00  0.00    +0.060 C 
ATOM      7  C   LIG    1        3.214   2.104  -2.078  0.00  0.00    +0.270 C 
ATOM      8  N   LIG    1        2.905   0.816  -1.406  0.00  0.00    -0.400 N 
ATOM      9  H   LIG    1        2.186   0.318  -1.910  0.00  0.00    +0.430 HD
ATOM     10  C   LIG    1        4.186   0.065  -1.448  0.00  0.00    +0.280 C 
BRANCH   8  11
ATOM     11  C   LIG    1        2.490   1.048  -0.016  0.00  0.00    +0.330 C 
BRANCH  11  12
ATOM     12  C   LIG    1        1.175   1.783   0.000  0.00  0.00    -0.160 A 
ATOM     13  C   LIG    1       -0.013   1.076   0.008  0.00  0.00    +0.040 A 
ATOM     14  C   LIG    1       -1.219   1.751   0.017  0.00  0.00    +0.030 A 
ATOM     15  C   LIG    1       -1.238   3.133   0.029  0.00  0.00    +0.060 A 
ATOM     16  C   LIG    1       -0.050   3.840   0.022  0.00  0.00    +0.030 A 
ATOM     17  C   LIG    1        1.156   3.165   0.008  0.00  0.00    +0.040 A 
ENDBRANCH  11  12
ENDBRANCH   8  11
ENDBRANCH   3   5
BRANCH   2  18
ATOM     18  C   LIG    1        4.778  -1.942  -5.888  0.00  0.00    +0.220 C 
BRANCH  18  19
ATOM     19  N   LIG    1        5.730  -1.937  -7.007  0.00  0.00    -0.520 NA
ATOM     20  C   LIG    1        5.620  -0.697  -7.786  0.00  0.00    +0.180 C 
ATOM     21  C   LIG    1        6.744  -0.649  -8.826  0.00  0.00    +0.320 C 
ATOM     22  N   LIG    1        6.700  -1.888  -9.618  0.00  0.00    -1.000 NA
ATOM     23  C   LIG    1        6.668  -3.172  -8.902  0.00  0.00    +0.310 C 
ATOM     24  C   LIG    1        5.547  -3.119  -7.859  0.00  0.00    +0.170 C 
BRANCH  22  25
ATOM     25  S   LIG    1        6.685  -1.838 -11.274  0.00  0.00    +2.600 S 
ATOM     26  O   LIG    1        7.249  -3.081 -11.667  0.00  0.00    -0.940 OA
ATOM     27  O   LIG    1        7.324  -0.609 -11.593  0.00  0.00    -0.940 OA
BRANCH  25  28
ATOM     28  C   LIG    1        4.925  -1.771 -11.709  0.00  0.00    -0.300 C 
BRANCH  28  29
ATOM     29  C   LIG    1        4.780  -1.722 -13.208  0.00  0.00    -0.100 A 
ATOM     30  C   LIG    1        4.744  -0.503 -13.859  0.00  0.00    +0.020 A 
ATOM     31  C   LIG    1        4.615  -0.458 -15.235  0.00  0.00    +0.010 A 
ATOM     32  C   LIG    1        4.513  -1.631 -15.958  0.00  0.00    +0.020 A 
ATOM     33  C   LIG    1        4.543  -2.850 -15.307  0.00  0.00    +0.010 A 
ATOM     34  C   LIG    1        4.677  -2.895 -13.931  0.00  0.00    +0.020 A 
ENDBRANCH  28  29
ENDBRANCH  25  28
ENDBRANCH  22  25
ENDBRANCH  18  19
ENDBRANCH   2  18
TORSDOF 8
