REMARK  Name = ZINCwl0000000pq2.1
REMARK                            x       y       z     vdW  Elec       q    Type
REMARK                         _______ _______ _______ _____ _____    ______ ____
ROOT
ATOM      1  O   LIG    1        3.577   3.457  -0.572  0.00  0.00    -0.500 OA
ATOM      2  C   LIG    1        2.774   3.913   0.214  0.00  0.00    +0.520 C 
ATOM      3  N   LIG    1        1.691   3.191   0.565  0.00  0.00    -0.730 N 
ATOM      4  H   LIG    1        1.048   3.555   1.194  0.00  0.00    +0.410 HD
ENDROOT
BRANCH   3   5
ATOM      5  C   LIG    1        1.485   1.856  -0.002  0.00  0.00    +0.260 C 
ATOM      6  C   LIG    1        2.119   0.774   0.901  0.00  0.00    +0.060 C 
ATOM      7  C   LIG    1        1.119  -0.397   0.889  0.00  0.00    +0.250 C 
ATOM      8  N   LIG    1        0.002  -0.004   0.002  0.00  0.00    -0.390 N 
ATOM      9  H   LIG    1        0.165  -0.345  -0.934  0.00  0.00    +0.430 HD
ATOM     10  C   LIG    1       -0.018   1.481   0.010  0.00  0.00    +0.280 C 
BRANCH   8  11
ATOM     11  C   LIG    1       -1.268  -0.531   0.520  0.00  0.00    +0.330 C 
BRANCH  11  12
ATOM     12  C   LIG    1       -1.279  -2.032   0.391  0.00  0.00    -0.160 A 
ATOM     13  C   LIG    1       -1.774  -2.624  -0.756  0.00  0.00    +0.040 A 
ATOM     14  C   LIG    1       -1.780  -4.001  -0.876  0.00  0.00    +0.030 A 
ATOM     15  C   LIG    1       -1.299  -4.787   0.154  0.00  0.00    +0.060 A 
ATOM     16  C   LIG    1       -0.809  -4.195   1.303  0.00  0.00    +0.030 A 
ATOM     17  C   LIG    1       -0.799  -2.818   1.422  0.00  0.00    +0.040 A 
ENDBRANCH  11  12
ENDBRANCH   8  11
ENDBRANCH   3   5
BRANCH   2  18
ATOM     18  C   LIG    1        2.986   5.286   0.798  0.00  0.00    +0.220 C 
BRANCH  18  19
ATOM     19  N   LIG    1        4.227   5.860   0.261  0.00  0.00    -0.520 NA
ATOM     20  C   LIG    1        5.398   5.096   0.711  0.00  0.00    +0.180 C 
ATOM     21  C   LIG    1        6.648   5.612  -0.010  0.00  0.00    +0.320 C 
ATOM     22  N   LIG    1        6.738   7.066   0.192  0.00  0.00    -1.000 NA
ATOM     23  C   LIG    1        5.554   7.885  -0.108  0.00  0.00    +0.310 C 
ATOM     24  C   LIG    1        4.347   7.280   0.618  0.00  0.00    +0.170 C 
BRANCH  22  25
ATOM     25  S   LIG    1        8.136   7.762   0.744  0.00  0.00    +2.600 S 
ATOM     26  O   LIG    1        8.086   9.091   0.243  0.00  0.00    -0.940 OA
ATOM     27  O   LIG    1        9.159   6.863   0.338  0.00  0.00    -0.940 OA
BRANCH  25  28
ATOM     28  C   LIG    1        7.962   7.756   2.549  0.00  0.00    -0.300 C 
BRANCH  28  29
ATOM     29  C   LIG    1        9.188   8.372   3.174  0.00  0.00    -0.100 A 
ATOM     30  C   LIG    1       10.266   7.576   3.511  0.00  0.00    +0.020 A 
ATOM     31  C   LIG    1       11.392   8.143   4.080  0.00  0.00    +0.010 A 
ATOM     32  C   LIG    1       11.435   9.503   4.320  0.00  0.00    +0.020 A 
ATOM     33  C   LIG    1       10.354  10.298   3.987  0.00  0.00    +0.010 A 
ATOM     34  C   LIG    1        9.231   9.733   3.414  0.00  0.00    +0.020 A 
ENDBRANCH  28  29
ENDBRANCH  25  28
ENDBRANCH  22  25
ENDBRANCH  18  19
ENDBRANCH   2  18
TORSDOF 8
