REMARK  Name = ZINCrD000001YLCm.0
REMARK                            x       y       z     vdW  Elec       q    Type
REMARK                         _______ _______ _______ _____ _____    ______ ____
ROOT
ATOM      1  C   LIG    1        0.002  -0.004   0.002  0.00  0.00    +0.560 C 
ATOM      2  N   LIG    1       -1.156  -0.694   0.009  0.00  0.00    -0.720 N 
ATOM      3  H   LIG    1       -2.002  -0.220   0.020  0.00  0.00    +0.400 HD
ATOM      4  O   LIG    1        1.063  -0.597  -0.011  0.00  0.00    -0.530 OA
ENDROOT
BRANCH   2   5
ATOM      5  C   LIG    1       -1.136  -2.159   0.001  0.00  0.00    +0.240 C 
ATOM      6  C   LIG    1       -1.016  -2.659  -1.440  0.00  0.00    +0.010 C 
ATOM      7  C   LIG    1       -0.982  -4.189  -1.446  0.00  0.00    +0.040 C 
ATOM      8  C   LIG    1       -2.253  -4.732  -0.803  0.00  0.00    -0.090 C 
ATOM      9  C   LIG    1       -3.484  -4.343  -1.642  0.00  0.00    +0.200 C 
ATOM     10  O   LIG    1       -3.718  -5.482  -2.500  0.00  0.00    -0.370 OA
ATOM     11  C   LIG    1       -3.481  -6.641  -1.670  0.00  0.00    +0.090 C 
ATOM     12  C   LIG    1       -4.687  -6.909  -0.767  0.00  0.00    +0.020 C 
ATOM     13  C   LIG    1       -3.184  -7.866  -2.538  0.00  0.00    +0.050 C 
ATOM     14  C   LIG    1       -2.402  -4.220   0.624  0.00  0.00    +0.040 C 
ATOM     15  C   LIG    1       -2.243  -6.271  -0.820  0.00  0.00    +0.020 C 
ATOM     16  C   LIG    1       -2.430  -2.689   0.621  0.00  0.00    +0.010 C 
ENDBRANCH   2   5
BRANCH   1  20
ATOM     17  C   LIG    1       -0.056   4.243   0.025  0.00  0.00    -0.080 A 
ATOM     18  C   LIG    1        1.154   3.571   0.010  0.00  0.00    +0.020 A 
ATOM     19  C   LIG    1        1.179   2.192   0.003  0.00  0.00    +0.080 A 
ATOM     20  C   LIG    1       -0.018   1.474   0.010  0.00  0.00    -0.130 A 
ATOM     21  C   LIG    1       -1.234   2.159   0.020  0.00  0.00    +0.040 A 
ATOM     22  C   LIG    1       -1.246   3.538   0.033  0.00  0.00    +0.020 A 
BRANCH  17  23
ATOM     23  C   LIG    1       -0.076   5.750   0.033  0.00  0.00    +0.320 C 
BRANCH  23  25
ATOM     24  C   LIG    1       -0.116   7.571  -1.585  0.00  0.00    +0.540 C 
ATOM     25  N   LIG    1       -0.096   6.245  -1.346  0.00  0.00    -0.720 N 
ATOM     26  H   LIG    1       -0.095   5.619  -2.087  0.00  0.00    +0.400 HD
ATOM     27  O   LIG    1       -0.118   8.357  -0.657  0.00  0.00    -0.540 OA
BRANCH  24  29
ATOM     28  C   LIG    1       -0.157   9.377  -3.206  0.00  0.00    +0.150 C 
ATOM     29  C   LIG    1       -0.137   8.069  -2.970  0.00  0.00    -0.090 C 
ENDBRANCH  24  29
ENDBRANCH  23  25
ENDBRANCH  17  23
ENDBRANCH   1  20
TORSDOF 5
