REMARK  Name = ZINCrH000004kDqF.0
REMARK                            x       y       z     vdW  Elec       q    Type
REMARK                         _______ _______ _______ _____ _____    ______ ____
ROOT
ATOM      1  N   LIG    1       -0.543   1.264  -1.743  0.00  0.00    -0.480 N 
ENDROOT
BRANCH   1   2
ATOM      2  C   LIG    1       -0.710   2.546  -2.240  0.00  0.00    +0.350 A 
ATOM      3  N   LIG    1        0.350   3.266  -2.571  0.00  0.00    -0.460 NA
ATOM      4  C   LIG    1        0.236   4.490  -3.048  0.00  0.00    +0.080 A 
ATOM      5  C   LIG    1       -1.003   5.079  -3.225  0.00  0.00    +0.040 A 
ATOM      6  C   LIG    1       -2.147   4.372  -2.895  0.00  0.00    +0.150 A 
ATOM      7  C   LIG    1       -2.004   3.072  -2.395  0.00  0.00    -0.010 A 
BRANCH   4   8
ATOM      8  C   LIG    1        1.479   5.263  -3.409  0.00  0.00    +0.520 C 
ATOM      9  F   LIG    1        1.589   6.384  -2.579  0.00  0.00    -0.170 F 
ATOM     10  F   LIG    1        1.401   5.676  -4.743  0.00  0.00    -0.170 F 
ATOM     11  F   LIG    1        2.602   4.445  -3.238  0.00  0.00    -0.160 F 
ENDBRANCH   4   8
BRANCH   7  12
ATOM     12  C   LIG    1       -3.155   2.296  -2.044  0.00  0.00    +0.260 C 
ATOM     13  N   LIG    1       -4.067   1.680  -1.765  0.00  0.00    -0.380 NA
ENDBRANCH   7  12
ENDBRANCH   1   2
BRANCH   1  14
ATOM     14  C   LIG    1        0.119   0.400  -2.728  0.00  0.00    +0.230 C 
BRANCH  14  15
ATOM     15  C   LIG    1       -0.141  -1.066  -2.377  0.00  0.00    +0.030 C 
ATOM     16  C   LIG    1       -1.631  -1.372  -2.539  0.00  0.00    +0.070 C 
BRANCH  15  17
ATOM     17  C   LIG    1        0.657  -1.953  -3.298  0.00  0.00    +0.470 C 
ATOM     18  O   LIG    1        1.361  -1.463  -4.148  0.00  0.00    -0.500 OA
BRANCH  17  20
ATOM     19  C   LIG    1        1.380  -4.079  -4.095  0.00  0.00    +0.250 C 
ATOM     20  O   LIG    1        0.584  -3.288  -3.174  0.00  0.00    -0.360 OA
ENDBRANCH  17  20
ENDBRANCH  15  17
ENDBRANCH  14  15
ENDBRANCH   1  14
BRANCH   1  21
ATOM     21  C   LIG    1        0.199   1.284  -0.475  0.00  0.00    +0.260 C 
BRANCH  21  22
ATOM     22  C   LIG    1       -0.685   1.827   0.617  0.00  0.00    -0.090 A 
ATOM     23  C   LIG    1       -0.690   3.182   0.893  0.00  0.00    +0.000 A 
ATOM     24  C   LIG    1       -1.505   3.681   1.892  0.00  0.00    +0.000 A 
ATOM     25  C   LIG    1       -2.308   2.824   2.621  0.00  0.00    +0.010 A 
ATOM     26  C   LIG    1       -2.300   1.469   2.348  0.00  0.00    +0.000 A 
ATOM     27  C   LIG    1       -1.489   0.970   1.346  0.00  0.00    +0.030 A 
ENDBRANCH  21  22
ENDBRANCH   1  21
TORSDOF 9
