REMARK  Name = ZINCvU000000048i.0
REMARK                            x       y       z     vdW  Elec       q    Type
REMARK                         _______ _______ _______ _____ _____    ______ ____
ROOT
ATOM      1  C   LIG    1        1.149   3.170  -0.151  0.00  0.00    -0.120 A 
ATOM      2  C   LIG    1       -0.035   3.849  -0.150  0.00  0.00    +0.140 A 
ATOM      3  C   LIG    1       -1.240   3.144  -0.107  0.00  0.00    -0.180 A 
ATOM      4  C   LIG    1       -1.235   1.739  -0.071  0.00  0.00    +0.190 A 
ATOM      5  O   LIG    1       -2.401   1.060  -0.024  0.00  0.00    -0.270 OA
ATOM      6  C   LIG    1       -3.588   1.687  -0.021  0.00  0.00    +0.510 A 
ATOM      7  C   LIG    1       -3.685   3.089  -0.061  0.00  0.00    -0.080 A 
ATOM      8  O   LIG    1       -4.609   1.024   0.017  0.00  0.00    -0.460 OA
ATOM      9  C   LIG    1       -0.023   1.063  -0.068  0.00  0.00    -0.080 A 
ATOM     10  C   LIG    1       -2.532   3.850  -0.104  0.00  0.00    +0.090 A 
ATOM     11  C   LIG    1        1.163   1.777  -0.111  0.00  0.00    +0.190 A 
ENDROOT
BRANCH  10  12
ATOM     12  C   LIG    1       -2.595   5.328  -0.147  0.00  0.00    -0.070 A 
ATOM     13  C   LIG    1       -2.130   6.017  -1.268  0.00  0.00    +0.030 A 
ATOM     14  C   LIG    1       -2.194   7.394  -1.304  0.00  0.00    +0.010 A 
ATOM     15  C   LIG    1       -2.710   8.093  -0.227  0.00  0.00    +0.030 A 
ATOM     16  C   LIG    1       -3.169   7.417   0.890  0.00  0.00    +0.010 A 
ATOM     17  C   LIG    1       -3.114   6.039   0.936  0.00  0.00    +0.040 A 
ENDBRANCH  10  12
BRANCH   1  19
ATOM     18  C   LIG    1        2.926   4.038  -1.647  0.00  0.00    +0.020 C 
ATOM     19  C   LIG    1        2.449   3.931  -0.197  0.00  0.00    +0.070 C 
ENDBRANCH   1  19
BRANCH  11  20
ATOM     20  O   LIG    1        2.348   1.115  -0.114  0.00  0.00    -0.270 OA
BRANCH  20  21
ATOM     21  C   LIG    1        2.294  -0.312  -0.071  0.00  0.00    +0.240 C 
BRANCH  21  22
ATOM     22  C   LIG    1        3.694  -0.869  -0.081  0.00  0.00    +0.520 C 
ATOM     23  N   LIG    1        3.890  -2.202  -0.045  0.00  0.00    -0.570 N 
ATOM     24  C   LIG    1        2.748  -3.106   0.120  0.00  0.00    +0.300 C 
ATOM     25  O   LIG    1        4.645  -0.117  -0.120  0.00  0.00    -0.490 OA
BRANCH  23  26
ATOM     26  C   LIG    1        5.183  -2.723  -0.165  0.00  0.00    +0.130 A 
ATOM     27  C   LIG    1        5.532  -3.466  -1.285  0.00  0.00    +0.010 A 
ATOM     28  C   LIG    1        6.811  -3.974  -1.403  0.00  0.00    +0.020 A 
ATOM     29  C   LIG    1        7.740  -3.752  -0.403  0.00  0.00    +0.010 A 
ATOM     30  C   LIG    1        7.394  -3.017   0.716  0.00  0.00    +0.020 A 
ATOM     31  C   LIG    1        6.118  -2.502   0.838  0.00  0.00    +0.020 A 
ENDBRANCH  23  26
ENDBRANCH  21  22
ENDBRANCH  20  21
ENDBRANCH  11  20
TORSDOF 6
