REMARK  Name = ZINCrg000000sZ6K.1
REMARK                            x       y       z     vdW  Elec       q    Type
REMARK                         _______ _______ _______ _____ _____    ______ ____
ROOT
ATOM      1  N   LIG    1        1.174   3.482   0.009  0.00  0.00    -0.670 N 
ATOM      2  H   LIG    1        0.335   3.964  -0.057  0.00  0.00    +0.410 HD
ATOM      3  C   LIG    1        2.335   4.160   0.104  0.00  0.00    +0.490 C 
ATOM      4  O   LIG    1        3.390   3.561   0.091  0.00  0.00    -0.490 OA
ENDROOT
BRANCH   1  12
ATOM      5  C   LIG    1        2.931  -1.051   1.361  0.00  0.00    -0.000 A 
ATOM      6  N   LIG    1        2.422  -2.196   0.959  0.00  0.00    -0.200 NA
ATOM      7  N   LIG    1        1.418  -2.028   0.177  0.00  0.00    -0.410 N 
ATOM      8  H   LIG    1        0.909  -2.750  -0.224  0.00  0.00    +0.450 HD
ATOM      9  C   LIG    1        1.159  -0.695  -0.020  0.00  0.00    +0.050 A 
ATOM     10  C   LIG    1        0.216   0.018  -0.752  0.00  0.00    +0.040 A 
ATOM     11  C   LIG    1        0.228   1.384  -0.736  0.00  0.00    +0.040 A 
ATOM     12  C   LIG    1        1.179   2.081   0.008  0.00  0.00    +0.120 A 
ATOM     13  C   LIG    1        2.128   1.395   0.745  0.00  0.00    +0.100 A 
ATOM     14  C   LIG    1        2.123   0.003   0.735  0.00  0.00    -0.090 A 
BRANCH   5  18
ATOM     15  N   LIG    1        4.729  -1.936   2.760  0.00  0.00    -0.840 N 
ATOM     16  H   LIG    1        5.487  -1.813   3.352  0.00  0.00    +0.410 HD
ATOM     17  H   LIG    1        4.436  -2.831   2.527  0.00  0.00    +0.410 HD
ATOM     18  C   LIG    1        4.083  -0.864   2.261  0.00  0.00    +0.610 C 
ATOM     19  O   LIG    1        4.450   0.258   2.553  0.00  0.00    -0.520 OA
ENDBRANCH   5  18
ENDBRANCH   1  12
BRANCH   3  20
ATOM     20  C   LIG    1        2.322   5.662   0.226  0.00  0.00    +0.340 C 
BRANCH  20  21
ATOM     21  N   LIG    1        3.699   6.156   0.312  0.00  0.00    -0.540 N 
ATOM     22  C   LIG    1        4.302   6.299   1.512  0.00  0.00    +0.490 C 
ATOM     23  C   LIG    1        5.707   6.840   1.584  0.00  0.00    +0.310 C 
ATOM     24  O   LIG    1        6.428   6.468   0.406  0.00  0.00    -0.300 OA
ATOM     25  C   LIG    1        5.793   6.647  -0.782  0.00  0.00    +0.080 A 
ATOM     26  C   LIG    1        6.505   6.980  -1.921  0.00  0.00    +0.030 A 
ATOM     27  C   LIG    1        5.841   7.161  -3.121  0.00  0.00    +0.030 A 
ATOM     28  C   LIG    1        4.468   7.009  -3.187  0.00  0.00    +0.020 A 
ATOM     29  C   LIG    1        3.749   6.676  -2.053  0.00  0.00    +0.000 A 
ATOM     30  O   LIG    1        3.717   5.988   2.529  0.00  0.00    -0.500 OA
ATOM     31  C   LIG    1        4.408   6.494  -0.849  0.00  0.00    +0.100 A 
ENDBRANCH  20  21
ENDBRANCH   3  20
TORSDOF 4
