REMARK  Name = ZINCrg000000sZ6K.0
REMARK                            x       y       z     vdW  Elec       q    Type
REMARK                         _______ _______ _______ _____ _____    ______ ____
ROOT
ATOM      1  N   LIG    1        5.401  -0.931  -0.056  0.00  0.00    -0.670 N 
ATOM      2  H   LIG    1        5.990  -0.164  -0.123  0.00  0.00    +0.410 HD
ATOM      3  C   LIG    1        5.919  -2.172   0.034  0.00  0.00    +0.500 C 
ATOM      4  O   LIG    1        5.184  -3.137   0.036  0.00  0.00    -0.500 OA
ENDROOT
BRANCH   1   8
ATOM      5  C   LIG    1        1.206   1.494   1.065  0.00  0.00    -0.050 A 
ATOM      6  C   LIG    1        2.099   0.536   0.565  0.00  0.00    -0.070 A 
ATOM      7  C   LIG    1        3.486   0.352   0.560  0.00  0.00    +0.040 A 
ATOM      8  C   LIG    1        4.015  -0.750  -0.053  0.00  0.00    +0.160 A 
ATOM      9  C   LIG    1        3.198  -1.701  -0.678  0.00  0.00    +0.050 A 
ATOM     10  C   LIG    1        1.848  -1.575  -0.705  0.00  0.00    +0.090 A 
ATOM     11  C   LIG    1        1.239  -0.461  -0.090  0.00  0.00    +0.040 A 
ATOM     12  N   LIG    1       -0.002  -0.037   0.067  0.00  0.00    -0.250 NA
ATOM     13  N   LIG    1       -0.042   1.069   0.719  0.00  0.00    -0.320 N 
ATOM     14  H   LIG    1       -0.860   1.545   0.935  0.00  0.00    +0.450 HD
BRANCH   5  18
ATOM     15  N   LIG    1        0.569   3.537   2.226  0.00  0.00    -0.850 N 
ATOM     16  H   LIG    1        0.794   4.341   2.719  0.00  0.00    +0.410 HD
ATOM     17  H   LIG    1       -0.359   3.330   2.033  0.00  0.00    +0.400 HD
ATOM     18  C   LIG    1        1.546   2.707   1.809  0.00  0.00    +0.600 C 
ATOM     19  O   LIG    1        2.710   2.967   2.051  0.00  0.00    -0.520 OA
ENDBRANCH   5  18
ENDBRANCH   1   8
BRANCH   3  20
ATOM     20  C   LIG    1        7.411  -2.361   0.131  0.00  0.00    +0.340 C 
BRANCH  20  21
ATOM     21  N   LIG    1        7.717  -3.792   0.217  0.00  0.00    -0.540 N 
ATOM     22  C   LIG    1        7.797  -4.404   1.418  0.00  0.00    +0.490 C 
ATOM     23  C   LIG    1        8.146  -5.869   1.489  0.00  0.00    +0.310 C 
ATOM     24  O   LIG    1        7.661  -6.538   0.321  0.00  0.00    -0.300 OA
ATOM     25  C   LIG    1        7.904  -5.936  -0.873  0.00  0.00    +0.080 A 
ATOM     26  C   LIG    1        8.119  -6.690  -2.013  0.00  0.00    +0.030 A 
ATOM     27  C   LIG    1        8.367  -6.060  -3.220  0.00  0.00    +0.030 A 
ATOM     28  C   LIG    1        8.400  -4.680  -3.291  0.00  0.00    +0.020 A 
ATOM     29  C   LIG    1        8.185  -3.919  -2.156  0.00  0.00    +0.000 A 
ATOM     30  O   LIG    1        7.585  -3.780   2.436  0.00  0.00    -0.500 OA
ATOM     31  C   LIG    1        7.937  -4.544  -0.946  0.00  0.00    +0.100 A 
ENDBRANCH  20  21
ENDBRANCH   3  20
TORSDOF 4
