REMARK  Name = ZINCrD00000F5Lq9.0
REMARK                            x       y       z     vdW  Elec       q    Type
REMARK                         _______ _______ _______ _____ _____    ______ ____
ROOT
ATOM      1  C   LIG    1       -1.650   9.351  -2.539  0.00  0.00    +0.320 C 
ENDROOT
BRANCH   1   5
ATOM      2  C   LIG    1       -3.468  12.592  -4.646  0.00  0.00    -0.080 A 
ATOM      3  C   LIG    1       -3.458  12.585  -3.264  0.00  0.00    +0.020 A 
ATOM      4  C   LIG    1       -2.870  11.536  -2.582  0.00  0.00    +0.040 A 
ATOM      5  C   LIG    1       -2.292  10.495  -3.283  0.00  0.00    -0.110 A 
ATOM      6  C   LIG    1       -2.297  10.504  -4.665  0.00  0.00    +0.040 A 
ATOM      7  C   LIG    1       -2.890  11.550  -5.346  0.00  0.00    +0.000 A 
BRANCH   2   8
ATOM      8  C   LIG    1       -4.110  13.735  -5.389  0.00  0.00    +0.280 C 
ATOM      9  C   LIG    1       -3.027  14.706  -5.864  0.00  0.00    +0.040 C 
BRANCH   8  11
ATOM     10  C   LIG    1       -5.875  13.913  -7.059  0.00  0.00    +0.550 C 
ATOM     11  N   LIG    1       -4.842  13.216  -6.547  0.00  0.00    -0.720 N 
ATOM     12  H   LIG    1       -4.584  12.369  -6.944  0.00  0.00    +0.400 HD
ATOM     13  O   LIG    1       -6.199  14.974  -6.561  0.00  0.00    -0.540 OA
BRANCH  10  15
ATOM     14  C   LIG    1       -7.629  14.080  -8.728  0.00  0.00    +0.150 C 
ATOM     15  C   LIG    1       -6.610  13.391  -8.222  0.00  0.00    -0.090 C 
ENDBRANCH  10  15
ENDBRANCH   8  11
ENDBRANCH   2   8
ENDBRANCH   1   5
BRANCH   1  16
ATOM     16  N   LIG    1       -2.648   8.308  -2.293  0.00  0.00    -0.730 N 
ATOM     17  H   LIG    1       -3.560   8.426  -2.601  0.00  0.00    +0.400 HD
ATOM     18  C   LIG    1       -2.299   7.182  -1.638  0.00  0.00    +0.510 C 
ATOM     19  O   LIG    1       -1.159   7.034  -1.254  0.00  0.00    -0.530 OA
BRANCH  18  20
ATOM     20  C   LIG    1       -3.326   6.109  -1.385  0.00  0.00    +0.100 C 
BRANCH  20  21
ATOM     21  C   LIG    1       -2.684   4.965  -0.642  0.00  0.00    -0.070 A 
ATOM     22  C   LIG    1       -2.673   4.958   0.740  0.00  0.00    +0.020 A 
ATOM     23  C   LIG    1       -2.085   3.909   1.420  0.00  0.00    +0.010 A 
ATOM     24  C   LIG    1       -1.505   2.864   0.720  0.00  0.00    -0.100 A 
ATOM     25  C   LIG    1       -0.803   1.617   1.223  0.00  0.00    +0.080 C 
ATOM     26  C   LIG    1       -0.013   1.086   0.008  0.00  0.00    +0.030 C 
ATOM     27  C   LIG    1       -0.826   1.630  -1.186  0.00  0.00    +0.070 C 
ATOM     28  C   LIG    1       -1.516   2.872  -0.662  0.00  0.00    -0.100 A 
ATOM     29  C   LIG    1       -2.106   3.924  -1.341  0.00  0.00    +0.030 A 
ENDBRANCH  20  21
ENDBRANCH  18  20
ENDBRANCH   1  16
TORSDOF 7
