REMARK  Name = ZINCqH0000008pF4.0
REMARK                            x       y       z     vdW  Elec       q    Type
REMARK                         _______ _______ _______ _____ _____    ______ ____
ROOT
ATOM      1  N   LIG    1       -0.011   0.966   0.007  0.00  0.00    -0.720 N 
ATOM      2  H   LIG    1        0.002  -0.004   0.002  0.00  0.00    +0.390 HD
ATOM      3  C   LIG    1       -1.187   1.624   0.017  0.00  0.00    +0.600 C 
ATOM      4  O   LIG    1       -1.204   2.840   0.023  0.00  0.00    -0.520 OA
ENDROOT
BRANCH   3   5
ATOM      5  C   LIG    1       -2.453   0.870   0.018  0.00  0.00    -0.280 A 
ATOM      6  C   LIG    1       -2.598  -0.502   0.012  0.00  0.00    +0.300 A 
ATOM      7  N   LIG    1       -3.911  -0.778   0.017  0.00  0.00    -0.460 N 
ATOM      8  H   LIG    1       -4.294  -1.668   0.014  0.00  0.00    +0.450 HD
ATOM      9  N   LIG    1       -4.642   0.414   0.026  0.00  0.00    -0.270 NA
ATOM     10  C   LIG    1       -3.808   1.429   0.034  0.00  0.00    +0.180 A 
BRANCH  10  11
ATOM     11  C   LIG    1       -4.169   2.867   0.051  0.00  0.00    -0.020 A 
ATOM     12  C   LIG    1       -5.302   3.312  -0.628  0.00  0.00    +0.050 A 
ATOM     13  C   LIG    1       -5.634   4.651  -0.609  0.00  0.00    +0.020 A 
ATOM     14  C   LIG    1       -4.845   5.553   0.083  0.00  0.00    +0.040 A 
ATOM     15  C   LIG    1       -3.718   5.117   0.759  0.00  0.00    -0.040 A 
ATOM     16 CL   LIG    1       -2.734   6.255   1.625  0.00  0.00    -0.070 Cl
ATOM     17  C   LIG    1       -3.380   3.778   0.751  0.00  0.00    +0.110 A 
ENDBRANCH  10  11
ENDBRANCH   3   5
BRANCH   1  19
ATOM     18  C   LIG    1        1.608   2.092  -1.439  0.00  0.00    +0.040 C 
ATOM     19  C   LIG    1        1.248   1.716  -0.001  0.00  0.00    +0.220 C 
BRANCH  19  20
ATOM     20  C   LIG    1        2.361   0.850   0.594  0.00  0.00    +0.270 C 
BRANCH  20  21
ATOM     21  C   LIG    1        1.951   0.378   1.965  0.00  0.00    -0.080 A 
ATOM     22  C   LIG    1        1.171  -0.756   2.101  0.00  0.00    -0.010 A 
ATOM     23  C   LIG    1        0.799  -1.193   3.359  0.00  0.00    +0.050 A 
ATOM     24  C   LIG    1        1.198  -0.492   4.481  0.00  0.00    -0.010 A 
ATOM     25  C   LIG    1        1.975   0.646   4.345  0.00  0.00    +0.110 A 
ATOM     26  F   LIG    1        2.365   1.333   5.442  0.00  0.00    -0.140 F 
ATOM     27  C   LIG    1        2.351   1.081   3.086  0.00  0.00    +0.000 A 
ENDBRANCH  20  21
BRANCH  20  28
ATOM     28  O   LIG    1        2.588  -0.280  -0.251  0.00  0.00    -0.540 OA
ATOM     29  H   LIG    1        1.814  -0.848  -0.364  0.00  0.00    +0.370 HD
ENDBRANCH  20  28
ENDBRANCH  19  20
ENDBRANCH   1  19
TORSDOF 6
