REMARK  Name = ZINCrH000004v1xw.0
REMARK                            x       y       z     vdW  Elec       q    Type
REMARK                         _______ _______ _______ _____ _____    ______ ____
ROOT
ATOM      1  O   LIG    1        3.552   2.672   0.084  0.00  0.00    -0.570 OA
ATOM      2  C   LIG    1        3.531   3.887   0.090  0.00  0.00    +0.710 C 
ATOM      3  N   LIG    1        4.683   4.580   0.184  0.00  0.00    -0.730 N 
ATOM      4  H   LIG    1        4.666   5.550   0.189  0.00  0.00    +0.400 HD
ATOM      5  N   LIG    1        2.356   4.542   0.004  0.00  0.00    -0.670 N 
ATOM      6  H   LIG    1        2.343   5.510  -0.057  0.00  0.00    +0.410 HD
ENDROOT
BRANCH   3   7
ATOM      7  C   LIG    1        5.960   3.869   0.278  0.00  0.00    +0.260 C 
ATOM      8  C   LIG    1        6.242   3.513   1.741  0.00  0.00    -0.010 C 
ATOM      9  C   LIG    1        7.607   2.826   1.839  0.00  0.00    +0.220 C 
ATOM     10  O   LIG    1        8.615   3.697   1.320  0.00  0.00    -0.360 OA
ATOM     11  C   LIG    1        8.424   4.067  -0.038  0.00  0.00    +0.090 C 
ATOM     12  C   LIG    1        8.518   2.824  -0.952  0.00  0.00    -0.010 C 
ATOM     13  C   LIG    1       10.051   2.734  -1.168  0.00  0.00    +0.220 C 
ATOM     14  O   LIG    1       10.503   4.096  -1.227  0.00  0.00    -0.380 OA
ATOM     15  C   LIG    1        9.581   4.948  -0.534  0.00  0.00    +0.240 C 
ATOM     16  C   LIG    1        7.088   4.769  -0.241  0.00  0.00    +0.020 C 
ENDBRANCH   3   7
BRANCH   5  17
ATOM     17  C   LIG    1        1.152   3.823   0.000  0.00  0.00    +0.200 A 
ATOM     18  C   LIG    1        1.086   2.580  -0.610  0.00  0.00    +0.050 A 
ATOM     19  C   LIG    1       -0.103   1.873  -0.612  0.00  0.00    -0.020 A 
ATOM     20  C   LIG    1       -1.230   2.406  -0.012  0.00  0.00    +0.020 A 
ATOM     21  C   LIG    1       -1.171   3.643   0.603  0.00  0.00    +0.010 A 
ATOM     22 CL   LIG    1       -0.183   0.317  -1.377  0.00  0.00    -0.060 Cl
ATOM     23  C   LIG    1        0.017   4.358   0.610  0.00  0.00    +0.060 A 
BRANCH  23  24
ATOM     24  N   LIG    1        0.077   5.612   1.228  0.00  0.00    -0.500 N 
ATOM     25  C   LIG    1       -0.158   5.499   2.673  0.00  0.00    +0.180 C 
ATOM     26  C   LIG    1        0.059   6.862   3.335  0.00  0.00    +0.020 C 
ATOM     27  C   LIG    1       -0.905   7.881   2.720  0.00  0.00    +0.010 C 
ATOM     28  C   LIG    1       -0.672   7.944   1.208  0.00  0.00    +0.020 C 
ATOM     29  C   LIG    1       -0.867   6.550   0.608  0.00  0.00    +0.180 C 
ENDBRANCH  23  24
ENDBRANCH   5  17
TORSDOF 3
