REMARK  Name = ZINCvU0000000IrO.0
REMARK                            x       y       z     vdW  Elec       q    Type
REMARK                         _______ _______ _______ _____ _____    ______ ____
ROOT
ATOM      1  C   LIG    1        5.887   5.700  -0.577  0.00  0.00    +0.560 C 
ATOM      2  N   LIG    1        4.616   6.034  -0.875  0.00  0.00    -0.470 N 
ATOM      3  N   LIG    1        3.557   5.140  -1.027  0.00  0.00    -0.230 NA
ATOM      4  C   LIG    1        2.431   5.702  -1.317  0.00  0.00    +0.170 C 
ATOM      5  C   LIG    1        2.620   7.200  -1.392  0.00  0.00    +0.100 C 
ATOM      6  C   LIG    1        4.118   7.402  -1.088  0.00  0.00    +0.320 C 
ATOM      7  O   LIG    1        6.730   6.564  -0.462  0.00  0.00    -0.490 OA
ENDROOT
BRANCH   4   8
ATOM      8  C   LIG    1        1.164   4.997  -1.533  0.00  0.00    -0.150 A 
ATOM      9  C   LIG    1        0.992   3.646  -1.465  0.00  0.00    +0.070 A 
ATOM     10  C   LIG    1       -0.296   3.223  -1.707  0.00  0.00    +0.010 A 
ATOM     11  C   LIG    1       -1.174   4.196  -1.976  0.00  0.00    -0.030 A 
ATOM     12  S   LIG    1       -0.372   5.760  -1.920  0.00  0.00    +0.160 S 
ENDBRANCH   4   8
BRANCH   6  13
ATOM     13  C   LIG    1        4.815   8.044  -2.259  0.00  0.00    -0.030 A 
ATOM     14  C   LIG    1        5.130   9.347  -2.370  0.00  0.00    -0.030 A 
ATOM     15  C   LIG    1        5.769   9.509  -3.620  0.00  0.00    -0.060 A 
ATOM     16  C   LIG    1        5.808   8.296  -4.199  0.00  0.00    +0.170 A 
ATOM     17  O   LIG    1        5.234   7.411  -3.367  0.00  0.00    -0.170 OA
ENDBRANCH   6  13
BRANCH   1  18
ATOM     18  C   LIG    1        6.260   4.253  -0.385  0.00  0.00    +0.220 C 
BRANCH  18  19
ATOM     19  N   LIG    1        7.692   4.154  -0.070  0.00  0.00    -0.510 NA
ATOM     20  C   LIG    1        7.988   4.767   1.232  0.00  0.00    +0.220 C 
BRANCH  19  22
ATOM     21  C   LIG    1        9.651   2.701   0.154  0.00  0.00    +0.080 C 
ATOM     22  C   LIG    1        8.144   2.757  -0.109  0.00  0.00    +0.230 C 
BRANCH  22  23
ATOM     23  C   LIG    1        7.849   2.171  -1.466  0.00  0.00    +0.090 A 
ATOM     24  N   LIG    1        8.081   2.768  -2.573  0.00  0.00    -0.430 NA
ATOM     25  C   LIG    1        7.770   2.122  -3.713  0.00  0.00    +0.080 A 
ATOM     26  C   LIG    1        7.920   2.536  -5.052  0.00  0.00    +0.070 A 
ATOM     27  C   LIG    1        7.531   1.723  -6.073  0.00  0.00    +0.030 A 
ATOM     28  C   LIG    1        6.982   0.474  -5.817  0.00  0.00    +0.040 A 
ATOM     29  C   LIG    1        6.824   0.044  -4.519  0.00  0.00    +0.060 A 
ATOM     30  C   LIG    1        7.215   0.862  -3.462  0.00  0.00    -0.180 A 
ATOM     31  S   LIG    1        7.157   0.632  -1.717  0.00  0.00    +0.090 S 
ENDBRANCH  22  23
ENDBRANCH  19  22
ENDBRANCH  18  19
ENDBRANCH   1  18
TORSDOF 6
