REMARK  Name = ZINCvU0000000ION.0
REMARK                            x       y       z     vdW  Elec       q    Type
REMARK                         _______ _______ _______ _____ _____    ______ ____
ROOT
ATOM      1  N   LIG    1        2.118  -2.516  -1.146  0.00  0.00    -0.720 N 
ATOM      2  H   LIG    1        2.468  -1.613  -1.206  0.00  0.00    +0.410 HD
ATOM      3  C   LIG    1        2.764  -3.531  -1.754  0.00  0.00    +0.530 C 
ATOM      4  O   LIG    1        2.326  -4.659  -1.679  0.00  0.00    -0.490 OA
ENDROOT
BRANCH   1   6
ATOM      5  C   LIG    1        1.240  -3.210   1.029  0.00  0.00    +0.070 C 
ATOM      6  C   LIG    1        0.887  -2.776  -0.395  0.00  0.00    +0.390 C 
BRANCH   6   7
ATOM      7  C   LIG    1        0.054  -1.521  -0.346  0.00  0.00    +0.180 A 
ATOM      8  N   LIG    1       -1.236  -1.436  -0.555  0.00  0.00    -0.460 NA
ATOM      9  C   LIG    1       -1.542  -0.127  -0.407  0.00  0.00    +0.220 A 
ATOM     10  N   LIG    1       -0.430   0.499  -0.120  0.00  0.00    -0.370 NA
ATOM     11  O   LIG    1        0.493  -0.287  -0.081  0.00  0.00    +0.090 OA
BRANCH   9  12
ATOM     12  C   LIG    1       -2.886   0.486  -0.550  0.00  0.00    -0.040 A 
ATOM     13  C   LIG    1       -3.985  -0.308  -0.872  0.00  0.00    +0.110 A 
ATOM     14  C   LIG    1       -5.234   0.264  -0.999  0.00  0.00    -0.010 A 
ATOM     15  C   LIG    1       -5.394   1.628  -0.817  0.00  0.00    +0.120 A 
ATOM     16  C   LIG    1       -4.303   2.422  -0.501  0.00  0.00    -0.010 A 
ATOM     17  F   LIG    1       -6.618   2.186  -0.947  0.00  0.00    -0.130 F 
ATOM     18  C   LIG    1       -3.052   1.857  -0.367  0.00  0.00    +0.090 A 
ENDBRANCH   9  12
ENDBRANCH   6   7
ENDBRANCH   1   6
BRANCH   3  19
ATOM     19  C   LIG    1        4.030  -3.263  -2.526  0.00  0.00    +0.050 C 
BRANCH  19  20
ATOM     20  C   LIG    1        3.683  -2.719  -3.887  0.00  0.00    -0.080 A 
ATOM     21  C   LIG    1        2.965  -3.494  -4.779  0.00  0.00    +0.030 A 
ATOM     22  C   LIG    1        2.642  -2.993  -6.026  0.00  0.00    +0.010 A 
ATOM     23  C   LIG    1        3.045  -1.721  -6.386  0.00  0.00    +0.020 A 
ATOM     24  C   LIG    1        3.767  -0.947  -5.496  0.00  0.00    +0.010 A 
ATOM     25  C   LIG    1        4.086  -1.447  -4.247  0.00  0.00    +0.030 A 
ENDBRANCH  19  20
BRANCH  19  26
ATOM     26  S   LIG    1        4.963  -4.808  -2.712  0.00  0.00    -0.030 S 
BRANCH  26  27
ATOM     27  C   LIG    1        5.498  -5.148  -1.068  0.00  0.00    -0.090 A 
ATOM     28  C   LIG    1        5.273  -4.222  -0.056  0.00  0.00    -0.020 A 
ATOM     29  C   LIG    1        5.690  -4.494   1.232  0.00  0.00    +0.030 A 
ATOM     30  C   LIG    1        6.340  -5.682   1.513  0.00  0.00    +0.010 A 
ATOM     31  C   LIG    1        6.571  -6.603   0.508  0.00  0.00    +0.030 A 
ATOM     32  C   LIG    1        6.152  -6.340  -0.781  0.00  0.00    +0.030 A 
ENDBRANCH  26  27
ENDBRANCH  19  26
ENDBRANCH   3  19
TORSDOF 7
