REMARK  Name = ZINCpk00000eaUig.0
REMARK                            x       y       z     vdW  Elec       q    Type
REMARK                         _______ _______ _______ _____ _____    ______ ____
ROOT
ATOM      1  C   LIG    1       -2.539   3.785  -0.530  0.00  0.00    +0.100 C 
ATOM      2  C   LIG    1       -1.232   3.096  -0.230  0.00  0.00    -0.060 A 
ATOM      3  C   LIG    1       -0.057   3.811  -0.254  0.00  0.00    +0.080 A 
ATOM      4  C   LIG    1        1.155   3.171   0.024  0.00  0.00    -0.130 A 
ATOM      5  C   LIG    1        1.167   1.806   0.324  0.00  0.00    +0.040 A 
ATOM      6  C   LIG    1       -0.012   1.096   0.345  0.00  0.00    -0.020 A 
ATOM      7  C   LIG    1       -1.216   1.735   0.064  0.00  0.00    +0.110 A 
ENDROOT
BRANCH   4   8
ATOM      8  C   LIG    1        2.417   3.934   0.000  0.00  0.00    +0.570 C 
ATOM      9  N   LIG    1        3.533   3.375  -0.506  0.00  0.00    -0.610 N 
ATOM     10  C   LIG    1        3.494   2.055  -1.155  0.00  0.00    +0.240 C 
ATOM     11  C   LIG    1        4.183   2.164  -2.520  0.00  0.00    +0.220 C 
ATOM     12  O   LIG    1        5.475   2.752  -2.351  0.00  0.00    -0.360 OA
ATOM     13  C   LIG    1        5.449   4.081  -1.831  0.00  0.00    +0.120 C 
ATOM     14  C   LIG    1        6.867   4.644  -1.765  0.00  0.00    +0.250 C 
ATOM     15  O   LIG    1        7.647   3.884  -0.856  0.00  0.00    -0.370 OA
ATOM     16  C   LIG    1        7.150   3.904   0.484  0.00  0.00    +0.220 C 
ATOM     17  C   LIG    1        5.750   3.287   0.512  0.00  0.00    +0.000 C 
ATOM     18  C   LIG    1        4.831   4.068  -0.432  0.00  0.00    +0.220 C 
ATOM     19  O   LIG    1        2.449   5.068   0.437  0.00  0.00    -0.530 OA
ENDBRANCH   4   8
BRANCH   7  20
ATOM     20  N   LIG    1       -2.405   1.014   0.081  0.00  0.00    -0.500 N 
ATOM     21  C   LIG    1       -2.688   0.497   1.427  0.00  0.00    +0.160 C 
ATOM     22  C   LIG    1       -4.031  -0.237   1.414  0.00  0.00    +0.220 C 
ATOM     23  O   LIG    1       -3.991  -1.276   0.432  0.00  0.00    -0.380 OA
ATOM     24  C   LIG    1       -3.718  -0.807  -0.891  0.00  0.00    +0.220 C 
ATOM     25  C   LIG    1       -2.372  -0.079  -0.901  0.00  0.00    +0.160 C 
ENDBRANCH   7  20
TORSDOF 2
