REMARK  Name = ZINCvU00000007Mn.0
REMARK                            x       y       z     vdW  Elec       q    Type
REMARK                         _______ _______ _______ _____ _____    ______ ____
ROOT
ATOM      1  C   LIG    1        0.002  -0.004   0.002  0.00  0.00    +0.160 A 
ATOM      2  N   LIG    1       -0.901  -0.786  -0.519  0.00  0.00    -0.260 NA
ATOM      3  N   LIG    1       -0.571  -2.016  -0.349  0.00  0.00    -0.290 NA
ATOM      4  C   LIG    1        0.571  -2.086   0.295  0.00  0.00    +0.160 A 
ATOM      5  N   LIG    1        0.975  -0.804   0.534  0.00  0.00    -0.450 N 
ENDROOT
BRANCH   5   6
ATOM      6  C   LIG    1        2.195  -0.375   1.222  0.00  0.00    +0.240 C 
ATOM      7  C   LIG    1        3.418  -0.900   0.467  0.00  0.00    +0.010 C 
ATOM      8  C   LIG    1        4.692  -0.452   1.185  0.00  0.00    +0.040 C 
ATOM      9  C   LIG    1        4.697  -1.007   2.611  0.00  0.00    +0.010 C 
ATOM     10  C   LIG    1        3.474  -0.482   3.366  0.00  0.00    +0.030 C 
ATOM     11  C   LIG    1        2.199  -0.930   2.648  0.00  0.00    +0.020 C 
ENDBRANCH   5   6
BRANCH   1  12
ATOM     12  C   LIG    1       -0.018   1.503   0.010  0.00  0.00    +0.400 C 
BRANCH  12  13
ATOM     13  N   LIG    1       -0.704   1.975   1.216  0.00  0.00    -0.740 N 
ATOM     14  H   LIG    1       -1.058   1.337   1.854  0.00  0.00    +0.400 HD
BRANCH  13  19
ATOM     15  C   LIG    1       -1.638   5.155   2.812  0.00  0.00    +0.170 A 
ATOM     16  C   LIG    1       -1.130   6.064   1.896  0.00  0.00    -0.130 A 
ATOM     17  C   LIG    1       -0.483   5.616   0.759  0.00  0.00    +0.100 A 
ATOM     18  C   LIG    1       -0.336   4.261   0.534  0.00  0.00    -0.110 A 
ATOM     19  C   LIG    1       -0.848   3.345   1.445  0.00  0.00    +0.250 A 
ATOM     20  C   LIG    1       -1.498   3.794   2.587  0.00  0.00    -0.100 A 
BRANCH  15  22
ATOM     21  C   LIG    1       -2.382   7.012   4.096  0.00  0.00    +0.250 C 
ATOM     22  O   LIG    1       -2.273   5.597   3.929  0.00  0.00    -0.320 OA
ENDBRANCH  15  22
ENDBRANCH  13  19
ENDBRANCH  12  13
ENDBRANCH   1  12
BRANCH   4  23
ATOM     23  S   LIG    1        1.425  -3.557   0.757  0.00  0.00    +0.040 S 
BRANCH  23  24
ATOM     24  C   LIG    1        0.288  -4.801   0.097  0.00  0.00    +0.060 C 
BRANCH  24  25
ATOM     25  C   LIG    1        0.837  -6.199   0.387  0.00  0.00    +0.290 C 
BRANCH  25  26
ATOM     26  C   LIG    1       -0.110  -7.235  -0.163  0.00  0.00    -0.120 A 
ATOM     27  C   LIG    1       -0.024  -7.615  -1.489  0.00  0.00    +0.010 A 
ATOM     28  C   LIG    1       -0.890  -8.568  -1.992  0.00  0.00    +0.010 A 
ATOM     29  C   LIG    1       -1.848  -9.134  -1.171  0.00  0.00    +0.010 A 
ATOM     30  C   LIG    1       -1.937  -8.750   0.154  0.00  0.00    +0.010 A 
ATOM     31  C   LIG    1       -1.069  -7.800   0.658  0.00  0.00    +0.020 A 
ENDBRANCH  25  26
BRANCH  25  32
ATOM     32  O   LIG    1        2.116  -6.347  -0.232  0.00  0.00    -0.550 OA
ATOM     33  H   LIG    1        2.102  -6.240  -1.193  0.00  0.00    +0.380 HD
ENDBRANCH  25  32
ENDBRANCH  24  25
ENDBRANCH  23  24
ENDBRANCH   4  23
TORSDOF 10
