REMARK  Name = ZINCkj000005jr1n.1
REMARK                            x       y       z     vdW  Elec       q    Type
REMARK                         _______ _______ _______ _____ _____    ______ ____
ROOT
ATOM      1  C   LIG    1       -2.065   7.468  -1.347  0.00  0.00    +0.060 C 
ATOM      2  C   LIG    1       -0.893   7.759  -0.408  0.00  0.00    +0.220 C 
ATOM      3  C   LIG    1        0.276   6.776  -0.681  0.00  0.00    +0.070 C 
ATOM      4  C   LIG    1        1.016   6.790   0.683  0.00  0.00    +0.050 C 
ATOM      5  C   LIG    1       -0.134   6.928   1.703  0.00  0.00    +0.250 C 
ATOM      6  N   LIG    1       -1.282   7.508   0.992  0.00  0.00    -0.590 N 
ATOM      7  C   LIG    1       -2.490   7.769   1.530  0.00  0.00    +0.520 C 
ATOM      8  O   LIG    1       -3.336   8.338   0.873  0.00  0.00    -0.520 OA
ENDROOT
BRANCH   7   9
ATOM      9  C   LIG    1       -2.789   7.353   2.947  0.00  0.00    +0.140 C 
ATOM     10  C   LIG    1       -3.295   5.908   2.959  0.00  0.00    +0.280 C 
ATOM     11  O   LIG    1       -3.630   5.537   4.299  0.00  0.00    -0.350 OA
ATOM     12  C   LIG    1       -4.614   6.384   4.900  0.00  0.00    +0.270 C 
ATOM     13  C   LIG    1       -4.110   7.829   4.892  0.00  0.00    +0.250 C 
ATOM     14  N   LIG    1       -3.820   8.236   3.510  0.00  0.00    -0.490 N 
ATOM     15  H   LIG    1       -4.660   8.168   2.955  0.00  0.00    +0.440 HD
ATOM     16  H   LIG    1       -3.487   9.188   3.502  0.00  0.00    +0.440 HD
ENDBRANCH   7   9
BRANCH   4  17
ATOM     17  C   LIG    1        1.766   5.500   0.896  0.00  0.00    -0.090 A 
ATOM     18  C   LIG    1        3.130   5.522   1.117  0.00  0.00    +0.010 A 
ATOM     19  C   LIG    1        3.818   4.339   1.312  0.00  0.00    +0.020 A 
ATOM     20  C   LIG    1        3.141   3.134   1.287  0.00  0.00    +0.020 A 
ATOM     21  C   LIG    1        1.777   3.111   1.061  0.00  0.00    +0.010 A 
ATOM     22  C   LIG    1        1.089   4.295   0.870  0.00  0.00    +0.000 A 
ENDBRANCH   4  17
TORSDOF 2
