REMARK  Name = ZINCvU00000004Oj.0
REMARK                            x       y       z     vdW  Elec       q    Type
REMARK                         _______ _______ _______ _____ _____    ______ ____
ROOT
ATOM      1  C   LIG    1        2.781   3.864  -0.281  0.00  0.00    +0.520 C 
ATOM      2  N   LIG    1        3.027   2.550  -0.454  0.00  0.00    -0.660 N 
ATOM      3  H   LIG    1        3.932   2.243  -0.617  0.00  0.00    +0.420 HD
ATOM      4  O   LIG    1        1.662   4.239  -0.001  0.00  0.00    -0.490 OA
ENDROOT
BRANCH   2   5
ATOM      5  C   LIG    1        1.974   1.627  -0.398  0.00  0.00    +0.200 A 
ATOM      6  C   LIG    1        0.836   1.914   0.339  0.00  0.00    +0.020 A 
ATOM      7  C   LIG    1       -0.201   1.001   0.394  0.00  0.00    +0.060 A 
ATOM      8  C   LIG    1       -0.111  -0.196  -0.291  0.00  0.00    -0.010 A 
ATOM      9  C   LIG    1        1.022  -0.494  -1.025  0.00  0.00    +0.100 A 
ATOM     10  C   LIG    1        2.068   0.415  -1.085  0.00  0.00    -0.180 A 
BRANCH  10  11
ATOM     11  S   LIG    1        3.511   0.042  -2.024  0.00  0.00    +0.010 S 
BRANCH  11  12
ATOM     12  C   LIG    1        3.298   1.010  -3.480  0.00  0.00    -0.100 A 
ATOM     13  C   LIG    1        2.217   1.877  -3.588  0.00  0.00    +0.020 A 
ATOM     14  C   LIG    1        2.055   2.638  -4.729  0.00  0.00    +0.050 A 
ATOM     15  C   LIG    1        2.963   2.531  -5.768  0.00  0.00    -0.040 A 
ATOM     16  C   LIG    1        4.038   1.665  -5.666  0.00  0.00    +0.050 A 
ATOM     17 CL   LIG    1        2.752   3.485  -7.203  0.00  0.00    -0.060 Cl
ATOM     18  C   LIG    1        4.207   0.905  -4.526  0.00  0.00    +0.060 A 
ENDBRANCH  11  12
ENDBRANCH  10  11
ENDBRANCH   2   5
BRANCH   1  19
ATOM     19  C   LIG    1        3.896   4.865  -0.436  0.00  0.00    +0.270 C 
BRANCH  19  20
ATOM     20  O   LIG    1        3.381   6.203  -0.202  0.00  0.00    -0.330 OA
BRANCH  20  21
ATOM     21  C   LIG    1        4.256   7.222  -0.303  0.00  0.00    +0.520 C 
ATOM     22  O   LIG    1        5.418   6.999  -0.579  0.00  0.00    -0.480 OA
BRANCH  21  25
ATOM     23  C   LIG    1        6.198   9.365  -0.230  0.00  0.00    +0.150 C 
ATOM     24  C   LIG    1        4.731   9.652  -0.040  0.00  0.00    +0.050 A 
ATOM     25  C   LIG    1        3.804   8.610  -0.077  0.00  0.00    -0.140 A 
ATOM     26  C   LIG    1        2.446   8.884   0.105  0.00  0.00    +0.160 A 
ATOM     27  C   LIG    1        2.031  10.182   0.315  0.00  0.00    +0.020 A 
ATOM     28  C   LIG    1        2.955  11.211   0.346  0.00  0.00    +0.150 A 
ATOM     29  C   LIG    1        4.301  10.947   0.167  0.00  0.00    -0.060 A 
BRANCH  29  30
ATOM     30  N   LIG    1        5.282  12.055   0.202  0.00  0.00    +0.030 N 
ATOM     31  O   LIG    1        6.446  11.846  -0.089  0.00  0.00    -0.150 OA
ATOM     32  O   LIG    1        4.925  13.174   0.521  0.00  0.00    -0.160 OA
ENDBRANCH  29  30
ENDBRANCH  21  25
ENDBRANCH  20  21
ENDBRANCH  19  20
ENDBRANCH   1  19
TORSDOF 8
