REMARK  Name = ZINCrD0000074aEU.1
REMARK                            x       y       z     vdW  Elec       q    Type
REMARK                         _______ _______ _______ _____ _____    ______ ____
ROOT
ATOM      1  N   LIG    1       -0.723   1.572  -1.182  0.00  0.00    -0.670 NA
ATOM      2  H   LIG    1       -1.712   1.662  -1.002  0.00  0.00    +0.340 HD
ENDROOT
BRANCH   1   4
ATOM      3  C   LIG    1        1.423   1.615  -0.003  0.00  0.00    +0.060 C 
ATOM      4  C   LIG    1       -0.013   1.086   0.008  0.00  0.00    +0.190 C 
BRANCH   4   5
ATOM      5  C   LIG    1       -0.718   1.572   1.248  0.00  0.00    -0.100 A 
ATOM      6  C   LIG    1       -1.223   2.858   1.295  0.00  0.00    +0.070 A 
ATOM      7  C   LIG    1       -1.874   3.305   2.429  0.00  0.00    +0.000 A 
ATOM      8  C   LIG    1       -2.013   2.464   3.524  0.00  0.00    +0.130 A 
ATOM      9  C   LIG    1       -1.500   1.175   3.476  0.00  0.00    +0.000 A 
ATOM     10  C   LIG    1       -0.854   0.732   2.338  0.00  0.00    +0.050 A 
BRANCH   8  11
ATOM     11  N   LIG    1       -2.670   2.916   4.678  0.00  0.00    -0.410 N 
ATOM     12  C   LIG    1       -3.218   4.158   4.870  0.00  0.00    +0.130 A 
ATOM     13  C   LIG    1       -3.746   4.164   6.108  0.00  0.00    +0.160 A 
ATOM     14  N   LIG    1       -3.522   2.965   6.665  0.00  0.00    -0.480 NA
ATOM     15  C   LIG    1       -2.878   2.208   5.818  0.00  0.00    +0.400 A 
ENDBRANCH   8  11
ENDBRANCH   4   5
ENDBRANCH   1   4
BRANCH   1  16
ATOM     16  C   LIG    1       -0.476   0.698  -2.337  0.00  0.00    +0.250 C 
BRANCH  16  17
ATOM     17  C   LIG    1       -1.220   1.228  -3.536  0.00  0.00    -0.000 A 
ATOM     18  C   LIG    1       -2.422   0.657  -3.909  0.00  0.00    +0.060 A 
ATOM     19  C   LIG    1       -3.110   1.146  -5.008  0.00  0.00    +0.090 A 
ATOM     20  C   LIG    1       -2.581   2.206  -5.741  0.00  0.00    +0.040 A 
ATOM     21  O   LIG    1       -3.434   2.496  -6.766  0.00  0.00    -0.300 OA
ATOM     22  C   LIG    1       -4.685   1.876  -6.413  0.00  0.00    +0.450 C 
ATOM     23  C   LIG    1       -1.373   2.770  -5.364  0.00  0.00    +0.130 A 
ATOM     24  O   LIG    1       -4.294   0.772  -5.574  0.00  0.00    -0.300 OA
ATOM     25  C   LIG    1       -0.695   2.280  -4.263  0.00  0.00    -0.020 A 
BRANCH  25  26
ATOM     26  N   LIG    1        0.596   2.884  -3.863  0.00  0.00    +0.040 N 
ATOM     27  O   LIG    1        1.195   2.453  -2.893  0.00  0.00    -0.110 OA
ATOM     28  O   LIG    1        1.059   3.811  -4.503  0.00  0.00    -0.180 OA
ENDBRANCH  25  26
ENDBRANCH  16  17
ENDBRANCH   1  16
TORSDOF 6
