REMARK  Name = ZINCpe000027pHc7.0
REMARK                            x       y       z     vdW  Elec       q    Type
REMARK                         _______ _______ _______ _____ _____    ______ ____
ROOT
ATOM      1  C   LIG    1        3.505  -1.855   0.146  0.00  0.00    +0.160 C 
ATOM      2  C   LIG    1        4.734  -0.957  -0.012  0.00  0.00    +0.000 C 
ATOM      3  C   LIG    1        5.512  -0.925   1.308  0.00  0.00    +0.270 C 
ATOM      4  N   LIG    1        5.821  -2.305   1.707  0.00  0.00    -0.600 N 
ATOM      5  C   LIG    1        4.722  -3.276   1.801  0.00  0.00    +0.300 C 
ATOM      6  C   LIG    1        7.088  -2.674   1.981  0.00  0.00    +0.600 C 
ATOM      7  O   LIG    1        7.332  -3.821   2.300  0.00  0.00    -0.530 OA
ATOM      8  C   LIG    1        3.953  -3.281   0.476  0.00  0.00    +0.040 C 
ENDROOT
BRANCH   6   9
ATOM      9  C   LIG    1        8.177  -1.686   1.895  0.00  0.00    -0.070 A 
ATOM     10  C   LIG    1        8.075  -0.327   2.034  0.00  0.00    +0.200 A 
ATOM     11  N   LIG    1        9.306   0.160   1.884  0.00  0.00    -0.270 NA
ATOM     12  N   LIG    1       10.123  -0.806   1.658  0.00  0.00    -0.050 NA
ATOM     13  N   LIG    1        9.503  -1.933   1.654  0.00  0.00    -0.250 N 
BRANCH  13  14
ATOM     14  C   LIG    1       10.107  -3.249   1.431  0.00  0.00    +0.260 C 
ATOM     15  C   LIG    1       11.047  -3.582   2.591  0.00  0.00    +0.070 C 
ATOM     16  C   LIG    1       10.899  -3.232   0.122  0.00  0.00    +0.070 C 
ENDBRANCH  13  14
ENDBRANCH   6   9
BRANCH   1  17
ATOM     17  O   LIG    1        2.759  -1.860  -1.073  0.00  0.00    -0.360 OA
BRANCH  17  21
ATOM     18  C   LIG    1       -0.366   1.010  -3.029  0.00  0.00    +0.580 C 
ATOM     19  N   LIG    1        0.549   0.159  -2.524  0.00  0.00    -0.640 N 
ATOM     20  C   LIG    1        1.996   0.192  -2.261  0.00  0.00    +0.260 C 
ATOM     21  C   LIG    1        1.763  -0.839  -1.149  0.00  0.00    +0.160 C 
ATOM     22  C   LIG    1        0.540  -1.214  -1.998  0.00  0.00    +0.290 C 
ATOM     23  O   LIG    1       -1.529   0.667  -3.124  0.00  0.00    -0.540 OA
BRANCH  18  25
ATOM     24  C   LIG    1       -0.860   3.194  -3.965  0.00  0.00    +0.150 C 
ATOM     25  C   LIG    1        0.043   2.354  -3.466  0.00  0.00    -0.080 C 
ENDBRANCH  18  25
ENDBRANCH  17  21
ENDBRANCH   1  17
TORSDOF 5
