REMARK  Name = ZINCrD0000073MwZ.0
REMARK                            x       y       z     vdW  Elec       q    Type
REMARK                         _______ _______ _______ _____ _____    ______ ____
ROOT
ATOM      1  C   LIG    1        1.410   6.474   4.601  0.00  0.00    -0.210 A 
ATOM      2  C   LIG    1        1.732   7.436   3.711  0.00  0.00    +0.250 A 
ATOM      3  N   LIG    1        1.598   8.633   4.322  0.00  0.00    -0.460 N 
ATOM      4  H   LIG    1        1.764   9.500   3.920  0.00  0.00    +0.450 HD
ATOM      5  N   LIG    1        1.177   8.406   5.639  0.00  0.00    -0.260 NA
ATOM      6  C   LIG    1        1.056   7.105   5.811  0.00  0.00    +0.160 A 
ENDROOT
BRANCH   6   7
ATOM      7  C   LIG    1        0.629   6.428   7.054  0.00  0.00    +0.110 A 
ATOM      8  C   LIG    1        0.924   6.845   8.309  0.00  0.00    -0.010 A 
ATOM      9  C   LIG    1        0.299   5.879   9.215  0.00  0.00    -0.130 A 
ATOM     10  C   LIG    1        0.231   5.749  10.603  0.00  0.00    +0.060 A 
ATOM     11  C   LIG    1       -0.449   4.697  11.153  0.00  0.00    -0.010 A 
ATOM     12  C   LIG    1       -1.071   3.761  10.340  0.00  0.00    +0.050 A 
ATOM     13  C   LIG    1       -1.014   3.872   8.966  0.00  0.00    +0.020 A 
ATOM     14  C   LIG    1       -0.330   4.932   8.386  0.00  0.00    +0.060 A 
ATOM     15  O   LIG    1       -0.106   5.300   7.108  0.00  0.00    -0.160 OA
ENDBRANCH   6   7
BRANCH   1  16
ATOM     16  C   LIG    1        1.419   4.989   4.345  0.00  0.00    +0.230 C 
BRANCH  16  19
ATOM     17  C   LIG    1       -1.014   3.600   2.578  0.00  0.00    +0.140 C 
ATOM     18  C   LIG    1       -0.432   5.012   2.766  0.00  0.00    +0.180 C 
ATOM     19  N   LIG    1        0.050   4.528   4.082  0.00  0.00    -0.460 NA
ATOM     20  C   LIG    1        0.044   3.132   3.593  0.00  0.00    +0.180 C 
BRANCH  17  25
ATOM     21  C   LIG    1        0.113   1.551  -2.948  0.00  0.00    -0.490 C 
ATOM     22  P   LIG    1       -0.925   1.706  -1.457  0.00  0.00    +2.470 P 
ATOM     23  C   LIG    1       -0.013   1.086   0.008  0.00  0.00    -0.520 C 
ATOM     24  C   LIG    1       -0.754   1.592   1.256  0.00  0.00    +0.210 C 
ATOM     25  N   LIG    1       -0.819   3.055   1.227  0.00  0.00    -0.560 NA
ATOM     26  C   LIG    1       -1.830   3.573   0.302  0.00  0.00    +0.200 C 
ATOM     27  O   LIG    1       -2.179   0.940  -1.633  0.00  0.00    -0.990 OA
ATOM     28  C   LIG    1       -1.306   3.472  -1.140  0.00  0.00    -0.520 C 
ENDBRANCH  17  25
ENDBRANCH  16  19
ENDBRANCH   1  16
TORSDOF 4
