REMARK  Name = ZINCrg000000oXxN.0
REMARK                            x       y       z     vdW  Elec       q    Type
REMARK                         _______ _______ _______ _____ _____    ______ ____
ROOT
ATOM      1  N   LIG    1        4.848   0.357   0.229  0.00  0.00    -1.010 NA
ATOM      2  C   LIG    1        4.558   1.644   0.877  0.00  0.00    +0.290 C 
ATOM      3  C   LIG    1        3.246   1.513   1.660  0.00  0.00    +0.300 C 
ATOM      4  N   LIG    1        2.231   0.919   0.780  0.00  0.00    -0.620 N 
ATOM      5  C   LIG    1        2.518  -0.370   0.136  0.00  0.00    +0.260 C 
ATOM      6  C   LIG    1        1.054   1.543   0.570  0.00  0.00    +0.710 C 
ATOM      7  N   LIG    1        0.096   0.945  -0.165  0.00  0.00    -0.680 N 
ATOM      8  H   LIG    1        0.269   0.086  -0.580  0.00  0.00    +0.410 HD
ATOM      9  O   LIG    1        0.858   2.645   1.045  0.00  0.00    -0.560 OA
ATOM     10  C   LIG    1        3.833  -0.237  -0.651  0.00  0.00    +0.290 C 
ENDROOT
BRANCH   7  11
ATOM     11  C   LIG    1       -1.146   1.567  -0.334  0.00  0.00    +0.200 A 
ATOM     12  C   LIG    1       -1.265   2.940  -0.168  0.00  0.00    +0.030 A 
ATOM     13  C   LIG    1       -2.491   3.552  -0.341  0.00  0.00    +0.090 A 
ATOM     14  C   LIG    1       -3.602   2.796  -0.668  0.00  0.00    -0.210 A 
ATOM     15  C   LIG    1       -3.488   1.428  -0.829  0.00  0.00    +0.090 A 
ATOM     16  C   LIG    1       -2.264   0.811  -0.663  0.00  0.00    -0.020 A 
BRANCH  14  17
ATOM     17  C   LIG    1       -4.940   3.466  -0.850  0.00  0.00    +0.510 C 
ATOM     18  F   LIG    1       -5.699   2.747  -1.779  0.00  0.00    -0.180 F 
ATOM     19  F   LIG    1       -4.749   4.772  -1.314  0.00  0.00    -0.180 F 
ATOM     20  F   LIG    1       -5.614   3.501   0.376  0.00  0.00    -0.180 F 
ENDBRANCH  14  17
ENDBRANCH   7  11
BRANCH   1  21
ATOM     21  S   LIG    1        6.294  -0.410   0.487  0.00  0.00    +2.780 S 
ATOM     22  O   LIG    1        7.244   0.609   0.767  0.00  0.00    -0.970 OA
ATOM     23  O   LIG    1        6.446  -1.344  -0.573  0.00  0.00    -0.970 OA
BRANCH  21  25
ATOM     24  C   LIG    1        6.368  -0.669   3.178  0.00  0.00    +0.310 C 
ATOM     25  N   LIG    1        6.137  -1.298   1.875  0.00  0.00    -1.000 NA
BRANCH  25  26
ATOM     26  C   LIG    1        5.767  -2.714   1.801  0.00  0.00    +0.310 C 
BRANCH  26  27
ATOM     27  C   LIG    1        7.034  -3.572   1.792  0.00  0.00    +0.160 C 
BRANCH  27  28
ATOM     28  O   LIG    1        7.854  -3.222   2.908  0.00  0.00    -0.570 OA
ATOM     29  H   LIG    1        8.676  -3.728   2.966  0.00  0.00    +0.380 HD
ENDBRANCH  27  28
ENDBRANCH  26  27
ENDBRANCH  25  26
ENDBRANCH  21  25
ENDBRANCH   1  21
TORSDOF 7
