REMARK  Name = ZINCpe00000zrehu.0
REMARK                            x       y       z     vdW  Elec       q    Type
REMARK                         _______ _______ _______ _____ _____    ______ ____
ROOT
ATOM      1  C   LIG    1       -2.449   1.120   0.020  0.00  0.00    +0.260 C 
ATOM      2  C   LIG    1       -3.586   1.993  -0.551  0.00  0.00    +0.050 C 
ATOM      3  C   LIG    1       -4.821   1.616   0.304  0.00  0.00    +0.000 C 
ATOM      4  C   LIG    1       -4.215   1.436   1.718  0.00  0.00    +0.000 C 
ATOM      5  C   LIG    1       -2.849   0.765   1.463  0.00  0.00    +0.150 C 
ENDROOT
BRANCH   1   8
ATOM      6  O   LIG    1        0.002  -0.004   0.002  0.00  0.00    -0.520 OA
ATOM      7  C   LIG    1       -0.014   1.212   0.009  0.00  0.00    +0.610 C 
ATOM      8  N   LIG    1       -1.191   1.869   0.018  0.00  0.00    -0.710 N 
ATOM      9  H   LIG    1       -1.204   2.839   0.023  0.00  0.00    +0.410 HD
BRANCH   7  10
ATOM     10  C   LIG    1        1.255   1.967   0.001  0.00  0.00    -0.020 A 
ATOM     11  N   LIG    1        1.386   3.281   0.001  0.00  0.00    -0.250 NA
ATOM     12  N   LIG    1        2.626   3.600  -0.004  0.00  0.00    -0.280 N 
ATOM     13  C   LIG    1        3.204   4.953  -0.000  0.00  0.00    +0.300 C 
ATOM     14  C   LIG    1        4.678   4.842   0.407  0.00  0.00    +0.250 C 
ATOM     15  O   LIG    1        5.319   3.824  -0.366  0.00  0.00    -0.370 OA
ATOM     16  C   LIG    1        4.898   2.493  -0.034  0.00  0.00    +0.330 C 
ATOM     17  C   LIG    1        3.390   2.478  -0.018  0.00  0.00    -0.030 A 
ATOM     18  C   LIG    1        2.562   1.420  -0.015  0.00  0.00    +0.010 A 
ENDBRANCH   7  10
ENDBRANCH   1   8
BRANCH   5  19
ATOM     19  O   LIG    1       -2.966  -0.652   1.604  0.00  0.00    -0.550 OA
ATOM     20  H   LIG    1       -3.216  -0.939   2.493  0.00  0.00    +0.380 HD
ENDBRANCH   5  19
BRANCH   3  21
ATOM     21  C   LIG    1       -5.851   2.747   0.296  0.00  0.00    +0.330 C 
BRANCH  21  22
ATOM     22  N   LIG    1       -7.003   2.363   1.116  0.00  0.00    -0.360 N 
ATOM     23  C   LIG    1       -7.511   3.066   2.152  0.00  0.00    +0.250 A 
ATOM     24  C   LIG    1       -8.567   2.375   2.640  0.00  0.00    -0.190 A 
ATOM     25  C   LIG    1       -8.711   1.211   1.877  0.00  0.00    +0.250 A 
ATOM     26 CL   LIG    1       -9.567   2.850   3.978  0.00  0.00    -0.040 Cl
ATOM     27  N   LIG    1       -7.777   1.206   0.960  0.00  0.00    -0.280 NA
ENDBRANCH  21  22
ENDBRANCH   3  21
TORSDOF 5
