REMARK  Name = ZINCrH000005me4T.0
REMARK                            x       y       z     vdW  Elec       q    Type
REMARK                         _______ _______ _______ _____ _____    ______ ____
ROOT
ATOM      1  C   LIG    1       -0.019   1.526   0.010  0.00  0.00    +0.270 C 
ENDROOT
BRANCH   1   2
ATOM      2  N   LIG    1       -0.704   1.998   1.216  0.00  0.00    -0.730 N 
ATOM      3  H   LIG    1       -1.058   1.359   1.854  0.00  0.00    +0.410 HD
ATOM      4  C   LIG    1       -0.843   3.320   1.438  0.00  0.00    +0.520 C 
ATOM      5  O   LIG    1       -0.401   4.119   0.639  0.00  0.00    -0.540 OA
BRANCH   4   6
ATOM      6  C   LIG    1       -1.549   3.806   2.677  0.00  0.00    +0.080 C 
BRANCH   6   7
ATOM      7  C   LIG    1       -1.570   5.336   2.686  0.00  0.00    +0.210 C 
BRANCH   7   8
ATOM      8  O   LIG    1       -2.238   5.797   3.861  0.00  0.00    -0.300 OA
BRANCH   8   9
ATOM      9  C   LIG    1       -2.344   7.142   4.024  0.00  0.00    +0.160 A 
ATOM     10  C   LIG    1       -1.815   8.001   3.072  0.00  0.00    -0.060 A 
ATOM     11  C   LIG    1       -1.925   9.368   3.239  0.00  0.00    +0.070 A 
ATOM     12  C   LIG    1       -2.560   9.881   4.354  0.00  0.00    -0.020 A 
ATOM     13  C   LIG    1       -3.088   9.028   5.306  0.00  0.00    +0.090 A 
ATOM     14  C   LIG    1       -2.987   7.659   5.141  0.00  0.00    -0.130 A 
ATOM     15 BR   LIG    1       -3.716   6.493   6.438  0.00  0.00    -0.040 Br
ENDBRANCH   8   9
ENDBRANCH   7   8
ENDBRANCH   6   7
ENDBRANCH   4   6
ENDBRANCH   1   2
BRANCH   1  16
ATOM     16  C   LIG    1        0.002  -0.004   0.002  0.00  0.00    +0.020 C 
BRANCH  16  17
ATOM     17  C   LIG    1        0.718  -0.497  -1.257  0.00  0.00    +0.340 C 
BRANCH  17  20
ATOM     18  C   LIG    1        0.489  -4.030  -1.854  0.00  0.00    -0.020 A 
ATOM     19  C   LIG    1        0.271  -2.756  -2.256  0.00  0.00    +0.140 A 
ATOM     20  N   LIG    1        0.738  -1.962  -1.265  0.00  0.00    -0.290 N 
ATOM     21  N   LIG    1        1.198  -2.716  -0.328  0.00  0.00    -0.080 NA
ATOM     22  N   LIG    1        1.064  -3.954  -0.648  0.00  0.00    -0.260 NA
BRANCH  18  23
ATOM     23  C   LIG    1        0.146  -5.286  -2.612  0.00  0.00    +0.130 C 
BRANCH  23  24
ATOM     24  C   LIG    1        1.399  -6.152  -2.758  0.00  0.00    +0.050 C 
BRANCH  24  25
ATOM     25  C   LIG    1        1.052  -7.428  -3.527  0.00  0.00    +0.080 C 
BRANCH  25  26
ATOM     26  S   LIG    1        2.537  -8.454  -3.700  0.00  0.00    -0.270 S 
BRANCH  26  28
ATOM     27  C   LIG    1        3.087 -10.872  -4.854  0.00  0.00    +0.060 C 
ATOM     28  C   LIG    1        1.933  -9.894  -4.623  0.00  0.00    +0.070 C 
ENDBRANCH  26  28
ENDBRANCH  25  26
ENDBRANCH  24  25
ENDBRANCH  23  24
ENDBRANCH  18  23
ENDBRANCH  17  20
ENDBRANCH  16  17
ENDBRANCH   1  16
TORSDOF 13
