REMARK  Name = ZINCrH00000No56n.0
REMARK                            x       y       z     vdW  Elec       q    Type
REMARK                         _______ _______ _______ _____ _____    ______ ____
ROOT
ATOM      1  N   LIG    1       -2.380   1.425   1.367  0.00  0.00    -0.510 NA
ENDROOT
BRANCH   1   2
ATOM      2  C   LIG    1       -1.596   0.426   2.107  0.00  0.00    +0.190 C 
BRANCH   2   3
ATOM      3  C   LIG    1       -2.149   0.295   3.527  0.00  0.00    +0.180 C 
BRANCH   3   4
ATOM      4  C   LIG    1       -1.225  -0.603   4.353  0.00  0.00    -0.040 C 
ATOM      5  C   LIG    1       -1.466  -2.105   4.129  0.00  0.00    +0.020 C 
ATOM      6  C   LIG    1       -1.259  -2.282   5.645  0.00  0.00    +0.010 C 
ATOM      7  C   LIG    1       -1.706  -0.819   5.798  0.00  0.00    -0.000 C 
ENDBRANCH   3   4
BRANCH   3   8
ATOM      8  O   LIG    1       -3.455  -0.282   3.478  0.00  0.00    -0.370 OA
BRANCH   8  10
ATOM      9  C   LIG    1       -5.733  -0.398   4.278  0.00  0.00    +0.040 C 
ATOM     10  C   LIG    1       -4.410   0.371   4.318  0.00  0.00    +0.160 C 
ENDBRANCH   8  10
ENDBRANCH   3   8
ENDBRANCH   2   3
ENDBRANCH   1   2
BRANCH   1  11
ATOM     11  C   LIG    1       -3.700   0.894   1.003  0.00  0.00    +0.290 C 
BRANCH  11  12
ATOM     12  C   LIG    1       -4.539   1.996   0.411  0.00  0.00    +0.210 A 
ATOM     13  C   LIG    1       -4.601   2.170  -0.959  0.00  0.00    -0.100 A 
ATOM     14  C   LIG    1       -5.391   3.204  -1.460  0.00  0.00    +0.360 A 
ATOM     15  N   LIG    1       -6.052   3.979  -0.609  0.00  0.00    -0.580 NA
ATOM     16  C   LIG    1       -5.966   3.779   0.691  0.00  0.00    +0.540 A 
ATOM     17  N   LIG    1       -5.232   2.808   1.197  0.00  0.00    -0.520 NA
BRANCH  14  18
ATOM     18  O   LIG    1       -5.483   3.413  -2.796  0.00  0.00    -0.300 OA
ATOM     19  C   LIG    1       -6.313   4.493  -3.228  0.00  0.00    +0.260 C 
ENDBRANCH  14  18
ENDBRANCH  11  12
ENDBRANCH   1  11
BRANCH   1  20
ATOM     20  C   LIG    1       -1.653   1.888   0.177  0.00  0.00    +0.250 C 
BRANCH  20  21
ATOM     21  C   LIG    1       -0.412   2.629   0.604  0.00  0.00    +0.150 A 
ATOM     22  C   LIG    1        0.791   1.955   0.686  0.00  0.00    -0.020 A 
ATOM     23  C   LIG    1        1.929   2.648   1.074  0.00  0.00    +0.010 A 
ATOM     24  C   LIG    1        1.811   3.998   1.371  0.00  0.00    -0.020 A 
ATOM     25  C   LIG    1        0.572   4.603   1.272  0.00  0.00    +0.290 A 
ATOM     26 CL   LIG    1        3.465   1.845   1.185  0.00  0.00    -0.050 Cl
ATOM     27  N   LIG    1       -0.488   3.912   0.900  0.00  0.00    -0.460 NA
ENDBRANCH  20  21
ENDBRANCH   1  20
TORSDOF 10
