REMARK  Name = ZINCbu0000000GLf.0
REMARK                            x       y       z     vdW  Elec       q    Type
REMARK                         _______ _______ _______ _____ _____    ______ ____
ROOT
ATOM      1  C   LIG    1        1.006   0.767   2.803  0.00  0.00    +0.160 C 
ATOM      2  C   LIG    1        0.029  -0.280   3.339  0.00  0.00    +0.040 C 
ATOM      3  C   LIG    1       -0.941  -0.692   2.229  0.00  0.00    +0.050 C 
ATOM      4  C   LIG    1       -1.728   0.535   1.761  0.00  0.00    +0.030 C 
ATOM      5  C   LIG    1       -0.762   1.596   1.250  0.00  0.00    -0.050 C 
ATOM      6  C   LIG    1       -0.013   1.086   0.008  0.00  0.00    +0.010 C 
ATOM      7  C   LIG    1       -0.786   1.610  -1.216  0.00  0.00    +0.010 C 
ATOM      8  C   LIG    1       -1.985   2.413  -0.668  0.00  0.00    +0.010 C 
ATOM      9  C   LIG    1       -1.544   2.833   0.757  0.00  0.00    +0.020 C 
ATOM     10  C   LIG    1        0.227   2.000   2.337  0.00  0.00    +0.050 C 
ENDROOT
BRANCH   1  11
ATOM     11  N   LIG    1        1.943   1.153   3.868  0.00  0.00    -0.640 N 
ATOM     12  H   LIG    1        1.428   1.540   4.644  0.00  0.00    +0.430 HD
ATOM     13  H   LIG    1        2.588   1.844   3.514  0.00  0.00    +0.440 HD
ATOM     14  H   LIG    1        2.456   0.341   4.175  0.00  0.00    +0.440 HD
ENDBRANCH   1  11
TORSDOF 1
