REMARK  Name = ZINCtV00000tRPcy.0
REMARK                            x       y       z     vdW  Elec       q    Type
REMARK                         _______ _______ _______ _____ _____    ______ ____
ROOT
ATOM      1  C   LIG    1       -0.128   5.967  -1.368  0.00  0.00    +0.310 C 
ENDROOT
BRANCH   1   2
ATOM      2  C   LIG    1       -0.436   7.426  -1.154  0.00  0.00    -0.110 A 
ATOM      3  C   LIG    1        0.532   8.268  -0.638  0.00  0.00    +0.070 A 
ATOM      4  C   LIG    1        0.252   9.608  -0.447  0.00  0.00    -0.010 A 
ATOM      5  C   LIG    1       -1.002  10.105  -0.761  0.00  0.00    +0.110 A 
ATOM      6  C   LIG    1       -1.972   9.259  -1.271  0.00  0.00    -0.010 A 
ATOM      7  F   LIG    1       -1.278  11.413  -0.568  0.00  0.00    -0.140 F 
ATOM      8  C   LIG    1       -1.688   7.921  -1.467  0.00  0.00    +0.070 A 
ENDBRANCH   1   2
BRANCH   1  11
ATOM      9  O   LIG    1       -0.161   4.528  -3.652  0.00  0.00    -0.500 OA
ATOM     10  C   LIG    1        0.904   5.048  -3.375  0.00  0.00    +0.610 C 
ATOM     11  N   LIG    1        1.005   5.837  -2.287  0.00  0.00    -0.560 N 
BRANCH  11  12
ATOM     12  C   LIG    1        2.193   6.532  -2.036  0.00  0.00    +0.140 A 
ATOM     13  C   LIG    1        2.985   6.186  -0.949  0.00  0.00    +0.000 A 
ATOM     14  C   LIG    1        4.159   6.871  -0.706  0.00  0.00    +0.020 A 
ATOM     15  C   LIG    1        4.542   7.907  -1.538  0.00  0.00    +0.020 A 
ATOM     16  C   LIG    1        3.753   8.257  -2.619  0.00  0.00    +0.030 A 
ATOM     17  C   LIG    1        2.579   7.573  -2.869  0.00  0.00    +0.020 A 
ENDBRANCH  11  12
BRANCH  10  18
ATOM     18  C   LIG    1        2.076   4.816  -4.225  0.00  0.00    -0.080 A 
ATOM     19  C   LIG    1        2.088   4.131  -5.406  0.00  0.00    +0.040 A 
ATOM     20  C   LIG    1        3.411   4.159  -5.875  0.00  0.00    -0.070 A 
ATOM     21  C   LIG    1        4.141   4.842  -4.966  0.00  0.00    +0.200 A 
ATOM     22  O   LIG    1        3.333   5.236  -3.973  0.00  0.00    -0.150 OA
ENDBRANCH  10  18
ENDBRANCH   1  11
BRANCH   1  23
ATOM     23  C   LIG    1        0.225   5.318  -0.028  0.00  0.00    +0.080 C 
BRANCH  23  24
ATOM     24  C   LIG    1        0.335   3.826  -0.206  0.00  0.00    -0.080 A 
ATOM     25  C   LIG    1        1.507   3.271  -0.686  0.00  0.00    +0.000 A 
ATOM     26  C   LIG    1        1.608   1.902  -0.849  0.00  0.00    +0.000 A 
ATOM     27  C   LIG    1        0.537   1.088  -0.533  0.00  0.00    +0.000 A 
ATOM     28  C   LIG    1       -0.637   1.643  -0.058  0.00  0.00    +0.000 A 
ATOM     29  C   LIG    1       -0.736   3.011   0.110  0.00  0.00    +0.010 A 
ENDBRANCH  23  24
ENDBRANCH   1  23
TORSDOF 6
