REMARK  Name = ZINCc70000001mM1.0
REMARK                            x       y       z     vdW  Elec       q    Type
REMARK                         _______ _______ _______ _____ _____    ______ ____
ROOT
ATOM      1  N   LIG    1        0.105   1.083   2.526  0.00  0.00    -0.390 N 
ATOM      2  C   LIG    1        0.166  -0.367   2.755  0.00  0.00    +0.210 C 
ATOM      3  C   LIG    1        1.188  -0.664   3.856  0.00  0.00    +0.240 C 
ATOM      4  O   LIG    1        0.818   0.041   5.045  0.00  0.00    -0.360 OA
ATOM      5  C   LIG    1        0.722   1.456   4.866  0.00  0.00    +0.280 C 
ATOM      6  C   LIG    1       -0.300   1.758   3.767  0.00  0.00    +0.170 C 
ATOM      7  H   LIG    1        1.013   1.417   2.242  0.00  0.00    +0.410 HD
ENDROOT
BRANCH   1   9
ATOM      8  C   LIG    1       -0.395   0.763   0.150  0.00  0.00    +0.080 C 
ATOM      9  C   LIG    1       -0.875   1.370   1.470  0.00  0.00    +0.240 C 
ENDBRANCH   1   9
BRANCH   6  10
ATOM     10  C   LIG    1       -0.365   3.268   3.529  0.00  0.00    -0.040 C 
BRANCH  10  11
ATOM     11  C   LIG    1       -0.916   3.946   4.756  0.00  0.00    +0.500 C 
ATOM     12  O   LIG    1       -0.946   5.163   4.819  0.00  0.00    -0.670 OA
ATOM     13  O   LIG    1       -1.333   3.278   5.687  0.00  0.00    -0.680 OA
ENDBRANCH  10  11
ENDBRANCH   6  10
TORSDOF 3
