REMARK  Name = ZINCc70000001mM1.1
REMARK                            x       y       z     vdW  Elec       q    Type
REMARK                         _______ _______ _______ _____ _____    ______ ____
ROOT
ATOM      1  N   LIG    1       -2.041   1.204   1.085  0.00  0.00    -0.380 N 
ATOM      2  C   LIG    1       -2.718   2.041   0.085  0.00  0.00    +0.220 C 
ATOM      3  C   LIG    1       -2.032   1.867  -1.272  0.00  0.00    +0.240 C 
ATOM      4  O   LIG    1       -0.649   2.210  -1.149  0.00  0.00    -0.350 OA
ATOM      5  C   LIG    1        0.049   1.437  -0.169  0.00  0.00    +0.280 C 
ATOM      6  C   LIG    1       -0.632   1.610   1.191  0.00  0.00    +0.160 C 
ATOM      7  H   LIG    1       -2.091   0.236   0.803  0.00  0.00    +0.410 HD
ENDROOT
BRANCH   1   9
ATOM      8  C   LIG    1       -4.121   0.814   2.316  0.00  0.00    +0.080 C 
ATOM      9  C   LIG    1       -2.698   1.369   2.388  0.00  0.00    +0.250 C 
ENDBRANCH   1   9
BRANCH   6  10
ATOM     10  C   LIG    1       -0.555   3.078   1.616  0.00  0.00    -0.040 C 
BRANCH  10  11
ATOM     11  C   LIG    1        0.884   3.458   1.851  0.00  0.00    +0.500 C 
ATOM     12  O   LIG    1        1.179   4.619   2.077  0.00  0.00    -0.670 OA
ATOM     13  O   LIG    1        1.754   2.604   1.815  0.00  0.00    -0.690 OA
ENDBRANCH  10  11
ENDBRANCH   6  10
TORSDOF 3
