REMARK  Name = ZINCpe00000gMTNO.0
REMARK                            x       y       z     vdW  Elec       q    Type
REMARK                         _______ _______ _______ _____ _____    ______ ____
ROOT
ATOM      1  C   LIG    1       -0.013   1.086   0.008  0.00  0.00    +0.370 C 
ENDROOT
BRANCH   1   2
ATOM      2  N   LIG    1       -0.721   1.571  -1.179  0.00  0.00    -0.530 N 
ATOM      3  C   LIG    1       -0.382   2.759  -1.723  0.00  0.00    +0.570 A 
ATOM      4  C   LIG    1       -1.112   3.220  -2.915  0.00  0.00    -0.190 A 
ATOM      5  C   LIG    1       -2.111   2.412  -3.419  0.00  0.00    +0.430 A 
ATOM      6  N   LIG    1       -2.384   1.230  -2.805  0.00  0.00    -0.490 N 
ATOM      7  O   LIG    1        0.507   3.433  -1.238  0.00  0.00    -0.490 OA
ATOM      8  C   LIG    1       -1.701   0.828  -1.722  0.00  0.00    +0.710 A 
ATOM      9  O   LIG    1       -1.980  -0.240  -1.212  0.00  0.00    -0.520 OA
BRANCH   6  10
ATOM     10  C   LIG    1       -3.444   0.373  -3.341  0.00  0.00    +0.220 C 
ATOM     11  C   LIG    1       -4.054   0.763  -4.689  0.00  0.00    +0.060 C 
ATOM     12  C   LIG    1       -4.859   0.952  -3.402  0.00  0.00    +0.060 C 
ENDBRANCH   6  10
BRANCH   4  13
ATOM     13  C   LIG    1       -0.794   4.472  -3.534  0.00  0.00    +0.280 C 
ATOM     14  N   LIG    1       -0.542   5.465  -4.026  0.00  0.00    -0.400 NA
ENDBRANCH   4  13
ENDBRANCH   1   2
BRANCH   1  17
ATOM     15  N   LIG    1       -0.242   1.246   2.466  0.00  0.00    -0.720 N 
ATOM     16  H   LIG    1        0.555   0.699   2.544  0.00  0.00    +0.400 HD
ATOM     17  C   LIG    1       -0.718   1.572   1.248  0.00  0.00    +0.510 C 
ATOM     18  O   LIG    1       -1.714   2.256   1.150  0.00  0.00    -0.530 OA
BRANCH  15  19
ATOM     19  C   LIG    1       -0.927   1.718   3.671  0.00  0.00    +0.320 C 
BRANCH  19  26
ATOM     20  C   LIG    1        1.464   3.064   4.577  0.00  0.00    +0.090 C 
ATOM     21  C   LIG    1        0.946   1.863   5.326  0.00  0.00    -0.060 A 
ATOM     22  C   LIG    1        1.611   1.408   6.448  0.00  0.00    +0.000 A 
ATOM     23  C   LIG    1        1.139   0.303   7.132  0.00  0.00    +0.010 A 
ATOM     24  C   LIG    1       -0.002  -0.344   6.695  0.00  0.00    -0.010 A 
ATOM     25  C   LIG    1       -0.670   0.114   5.575  0.00  0.00    +0.030 A 
ATOM     26  C   LIG    1       -0.198   1.219   4.892  0.00  0.00    -0.120 A 
ENDBRANCH  19  26
ENDBRANCH  15  19
ENDBRANCH   1  17
TORSDOF 6
