REMARK  Name = ZINCrD000000AtzJ.0
REMARK                            x       y       z     vdW  Elec       q    Type
REMARK                         _______ _______ _______ _____ _____    ______ ____
ROOT
ATOM      1  O   LIG    1       -0.506  -0.623   0.913  0.00  0.00    -0.490 OA
ATOM      2  C   LIG    1        0.002  -0.004   0.002  0.00  0.00    +0.540 C 
ATOM      3  N   LIG    1        0.585  -0.664  -1.018  0.00  0.00    -0.640 N 
ATOM      4  H   LIG    1        0.992  -0.170  -1.747  0.00  0.00    +0.410 HD
ENDROOT
BRANCH   3   5
ATOM      5  C   LIG    1        0.604  -2.059  -1.026  0.00  0.00    +0.300 A 
ATOM      6  C   LIG    1        0.075  -2.876  -0.074  0.00  0.00    -0.100 A 
ATOM      7  C   LIG    1        0.309  -4.197  -0.465  0.00  0.00    +0.250 A 
ATOM      8  N   LIG    1        0.953  -4.180  -1.604  0.00  0.00    -0.280 NA
ATOM      9  N   LIG    1        1.147  -2.846  -1.983  0.00  0.00    -0.380 N 
BRANCH   9  10
ATOM     10  C   LIG    1        1.821  -2.384  -3.199  0.00  0.00    +0.250 C 
ATOM     11  C   LIG    1        1.116  -2.959  -4.445  0.00  0.00    +0.030 C 
ATOM     12  C   LIG    1        2.274  -3.260  -5.430  0.00  0.00    +0.020 C 
ATOM     13  C   LIG    1        3.393  -3.781  -4.494  0.00  0.00    +0.020 C 
ATOM     14  C   LIG    1        3.268  -2.906  -3.230  0.00  0.00    +0.030 C 
ENDBRANCH   9  10
ENDBRANCH   3   5
BRANCH   2  15
ATOM     15  C   LIG    1       -0.018   1.503   0.010  0.00  0.00    +0.120 C 
BRANCH  15  16
ATOM     16  S   LIG    1       -0.866   2.087   1.500  0.00  0.00    +0.140 S 
BRANCH  16  17
ATOM     17  C   LIG    1       -0.747   3.828   1.257  0.00  0.00    +0.200 A 
ATOM     18  N   LIG    1       -0.173   4.440   0.242  0.00  0.00    -0.330 NA
ATOM     19  N   LIG    1       -0.266   5.713   0.374  0.00  0.00    -0.020 NA
ATOM     20  N   LIG    1       -0.886   6.011   1.464  0.00  0.00    -0.060 NA
ATOM     21  N   LIG    1       -1.225   4.797   2.086  0.00  0.00    -0.320 N 
BRANCH  21  22
ATOM     22  C   LIG    1       -1.908   4.621   3.298  0.00  0.00    +0.130 A 
ATOM     23  C   LIG    1       -1.715   5.516   4.341  0.00  0.00    +0.060 A 
ATOM     24  C   LIG    1       -2.389   5.341   5.534  0.00  0.00    +0.070 A 
ATOM     25  C   LIG    1       -3.255   4.275   5.691  0.00  0.00    +0.060 A 
ATOM     26  C   LIG    1       -3.451   3.381   4.652  0.00  0.00    -0.010 A 
ATOM     27 CL   LIG    1       -4.540   2.044   4.853  0.00  0.00    -0.040 Cl
ATOM     28  C   LIG    1       -2.782   3.554   3.455  0.00  0.00    +0.040 A 
ENDBRANCH  21  22
ENDBRANCH  16  17
ENDBRANCH  15  16
ENDBRANCH   2  15
TORSDOF 6
