REMARK  Name = ZINCqH0000008yhm.0
REMARK                            x       y       z     vdW  Elec       q    Type
REMARK                         _______ _______ _______ _____ _____    ______ ____
ROOT
ATOM      1  N   LIG    1       -1.499   5.718  -0.539  0.00  0.00    -0.610 N 
ATOM      2  C   LIG    1       -1.526   6.498  -1.637  0.00  0.00    +0.710 C 
ATOM      3  N   LIG    1       -2.706   6.885  -2.161  0.00  0.00    -0.740 N 
ATOM      4  H   LIG    1       -3.536   6.601  -1.748  0.00  0.00    +0.400 HD
ATOM      5  O   LIG    1       -0.485   6.854  -2.155  0.00  0.00    -0.590 OA
ATOM      6  C   LIG    1       -2.753   5.289   0.086  0.00  0.00    +0.280 C 
ENDROOT
BRANCH   1   8
ATOM      7  C   LIG    1       -0.106   5.807   1.470  0.00  0.00    +0.040 C 
ATOM      8  C   LIG    1       -0.217   5.298   0.031  0.00  0.00    +0.330 C 
BRANCH   8   9
ATOM      9  C   LIG    1       -0.132   3.793   0.023  0.00  0.00    +0.120 A 
ATOM     10  C   LIG    1        1.106   3.179   0.008  0.00  0.00    -0.020 A 
ATOM     11  C   LIG    1        1.173   1.794   0.001  0.00  0.00    +0.070 A 
ATOM     12  C   LIG    1       -0.013   1.076   0.008  0.00  0.00    -0.040 A 
ATOM     13  C   LIG    1       -1.214   1.759   0.017  0.00  0.00    +0.260 A 
ATOM     14  N   LIG    1       -1.240   3.078   0.030  0.00  0.00    -0.470 NA
ENDBRANCH   8   9
ENDBRANCH   1   8
BRANCH   3  15
ATOM     15  C   LIG    1       -2.734   7.733  -3.355  0.00  0.00    +0.300 C 
ATOM     16  C   LIG    1       -2.605   9.200  -2.941  0.00  0.00    +0.040 C 
BRANCH  15  17
ATOM     17  C   LIG    1       -4.037   7.530  -4.084  0.00  0.00    -0.100 A 
ATOM     18  C   LIG    1       -5.213   7.392  -3.370  0.00  0.00    +0.040 A 
ATOM     19  C   LIG    1       -6.410   7.210  -4.036  0.00  0.00    -0.010 A 
ATOM     20  C   LIG    1       -6.429   7.157  -5.423  0.00  0.00    +0.160 A 
ATOM     21  C   LIG    1       -5.246   7.291  -6.137  0.00  0.00    +0.030 A 
ATOM     22  C   LIG    1       -4.054   7.477  -5.466  0.00  0.00    +0.060 A 
BRANCH  20  23
ATOM     23  N   LIG    1       -7.641   6.969  -6.102  0.00  0.00    -0.330 N 
ATOM     24  C   LIG    1       -8.858   6.819  -5.531  0.00  0.00    +0.230 A 
ATOM     25  C   LIG    1       -9.763   6.666  -6.526  0.00  0.00    -0.100 A 
ATOM     26  C   LIG    1       -9.077   6.715  -7.744  0.00  0.00    +0.250 A 
ATOM     27  N   LIG    1       -7.806   6.896  -7.491  0.00  0.00    -0.290 NA
ENDBRANCH  20  23
ENDBRANCH  15  17
ENDBRANCH   3  15
TORSDOF 5
