REMARK  Name = ZINCnE00000rhmYR.0
REMARK                            x       y       z     vdW  Elec       q    Type
REMARK                         _______ _______ _______ _____ _____    ______ ____
ROOT
ATOM      1  C   LIG    1       -3.361  -5.559  -1.839  0.00  0.00    +0.100 A 
ATOM      2  N   LIG    1       -2.179  -5.407  -2.334  0.00  0.00    -0.280 NA
ATOM      3  N   LIG    1       -1.581  -4.308  -1.701  0.00  0.00    -0.490 NA
ATOM      4  C   LIG    1       -2.492  -3.836  -0.798  0.00  0.00    +0.450 A 
ATOM      5  N   LIG    1       -2.336  -2.810   0.011  0.00  0.00    -0.660 NA
ATOM      6  O   LIG    1       -3.585  -4.619  -0.900  0.00  0.00    -0.280 OA
ENDROOT
BRANCH   5   7
ATOM      7  C   LIG    1       -1.163  -2.105   0.003  0.00  0.00    +0.220 A 
ATOM      8  C   LIG    1        0.061  -2.779  -0.013  0.00  0.00    -0.020 A 
ATOM      9  C   LIG    1        1.239  -2.061  -0.021  0.00  0.00    +0.020 A 
ATOM     10  C   LIG    1        1.211  -0.678  -0.013  0.00  0.00    -0.020 A 
ATOM     11  C   LIG    1        0.002  -0.004   0.002  0.00  0.00    -0.160 A 
ATOM     12  C   LIG    1       -1.184  -0.708   0.015  0.00  0.00    +0.000 A 
BRANCH  11  13
ATOM     13  C   LIG    1       -0.018   1.503   0.010  0.00  0.00    +0.510 C 
ATOM     14  F   LIG    1       -0.673   1.954   1.161  0.00  0.00    -0.180 F 
ATOM     15  F   LIG    1       -0.695   1.966  -1.123  0.00  0.00    -0.180 F 
ATOM     16  F   LIG    1        1.294   1.987   0.000  0.00  0.00    -0.180 F 
ENDBRANCH  11  13
ENDBRANCH   5   7
BRANCH   1  17
ATOM     17  C   LIG    1       -4.343  -6.627  -2.248  0.00  0.00    +0.250 C 
BRANCH  17  23
ATOM     18  C   LIG    1       -1.689 -10.261  -4.632  0.00  0.00    +0.150 C 
ATOM     19  C   LIG    1       -2.576  -9.069  -4.380  0.00  0.00    +0.070 A 
ATOM     20  N   LIG    1       -3.156  -8.337  -5.296  0.00  0.00    -0.300 NA
ATOM     21  N   LIG    1       -3.894  -7.335  -4.654  0.00  0.00    -0.470 N 
ATOM     22  H   LIG    1       -4.428  -6.652  -5.088  0.00  0.00    +0.440 HD
ATOM     23  C   LIG    1       -3.730  -7.487  -3.323  0.00  0.00    +0.120 A 
ATOM     24  C   LIG    1       -2.922  -8.555  -3.127  0.00  0.00    -0.110 A 
ENDBRANCH  17  23
ENDBRANCH   1  17
TORSDOF 4
