REMARK  Name = ZINCnE00000rhmYR.1
REMARK                            x       y       z     vdW  Elec       q    Type
REMARK                         _______ _______ _______ _____ _____    ______ ____
ROOT
ATOM      1  C   LIG    1       -3.361  -5.559  -1.839  0.00  0.00    +0.100 A 
ATOM      2  N   LIG    1       -2.179  -5.407  -2.334  0.00  0.00    -0.280 NA
ATOM      3  N   LIG    1       -1.581  -4.308  -1.701  0.00  0.00    -0.490 NA
ATOM      4  C   LIG    1       -2.492  -3.836  -0.798  0.00  0.00    +0.450 A 
ATOM      5  N   LIG    1       -2.336  -2.810   0.011  0.00  0.00    -0.660 NA
ATOM      6  O   LIG    1       -3.585  -4.619  -0.900  0.00  0.00    -0.280 OA
ENDROOT
BRANCH   5   7
ATOM      7  C   LIG    1       -1.163  -2.105   0.003  0.00  0.00    +0.230 A 
ATOM      8  C   LIG    1        0.061  -2.779  -0.013  0.00  0.00    -0.020 A 
ATOM      9  C   LIG    1        1.239  -2.061  -0.021  0.00  0.00    +0.020 A 
ATOM     10  C   LIG    1        1.211  -0.678  -0.013  0.00  0.00    -0.030 A 
ATOM     11  C   LIG    1        0.002  -0.004   0.002  0.00  0.00    -0.160 A 
ATOM     12  C   LIG    1       -1.184  -0.708   0.015  0.00  0.00    +0.000 A 
BRANCH  11  13
ATOM     13  C   LIG    1       -0.018   1.503   0.010  0.00  0.00    +0.510 C 
ATOM     14  F   LIG    1       -0.673   1.954   1.161  0.00  0.00    -0.180 F 
ATOM     15  F   LIG    1       -0.695   1.966  -1.123  0.00  0.00    -0.180 F 
ATOM     16  F   LIG    1        1.294   1.987   0.000  0.00  0.00    -0.180 F 
ENDBRANCH  11  13
ENDBRANCH   5   7
BRANCH   1  17
ATOM     17  C   LIG    1       -4.343  -6.627  -2.248  0.00  0.00    +0.270 C 
BRANCH  17  21
ATOM     18  C   LIG    1       -2.656 -10.690  -4.813  0.00  0.00    +0.140 C 
ATOM     19  C   LIG    1       -2.998  -9.273  -4.431  0.00  0.00    +0.070 A 
ATOM     20  C   LIG    1       -3.594  -8.879  -3.281  0.00  0.00    -0.110 A 
ATOM     21  C   LIG    1       -3.730  -7.487  -3.323  0.00  0.00    +0.090 A 
ATOM     22  N   LIG    1       -3.239  -7.062  -4.458  0.00  0.00    -0.250 NA
ATOM     23  N   LIG    1       -2.765  -8.171  -5.173  0.00  0.00    -0.480 N 
ATOM     24  H   LIG    1       -2.348  -8.149  -6.048  0.00  0.00    +0.430 HD
ENDBRANCH  17  21
ENDBRANCH   1  17
TORSDOF 4
