REMARK  Name = ZINCwl0000000jQj.0
REMARK                            x       y       z     vdW  Elec       q    Type
REMARK                         _______ _______ _______ _____ _____    ______ ____
ROOT
ATOM      1  N   LIG    1       -1.203  -0.684   0.010  0.00  0.00    -0.460 N 
ATOM      2  C   LIG    1       -1.293  -1.609  -1.127  0.00  0.00    +0.220 C 
ATOM      3  C   LIG    1       -2.554  -2.469  -0.984  0.00  0.00    +0.290 C 
ATOM      4  N   LIG    1       -3.711  -1.577  -0.815  0.00  0.00    -0.580 N 
ATOM      5  C   LIG    1       -3.639  -0.531   0.217  0.00  0.00    +0.310 C 
ATOM      6  C   LIG    1       -4.808  -1.713  -1.586  0.00  0.00    +0.510 C 
ATOM      7  O   LIG    1       -5.753  -0.968  -1.434  0.00  0.00    -0.520 OA
ATOM      8  C   LIG    1       -2.335   0.252   0.026  0.00  0.00    +0.230 C 
ENDROOT
BRANCH   1  13
ATOM      9  C   LIG    1        4.710  -0.105  -0.045  0.00  0.00    +0.170 A 
ATOM     10  C   LIG    1        3.516  -0.792  -0.037  0.00  0.00    -0.040 A 
ATOM     11  C   LIG    1        2.310  -0.079  -0.021  0.00  0.00    +0.230 A 
ATOM     12  N   LIG    1        1.121  -0.702  -0.013  0.00  0.00    -0.560 NA
ATOM     13  C   LIG    1        0.002  -0.004   0.002  0.00  0.00    +0.530 A 
ATOM     14  N   LIG    1       -0.016   1.326   0.009  0.00  0.00    -0.630 NA
ATOM     15  C   LIG    1        1.105   2.032   0.002  0.00  0.00    +0.500 A 
ATOM     16  C   LIG    1        2.338   1.337  -0.013  0.00  0.00    -0.210 A 
ATOM     17  C   LIG    1        3.566   2.011  -0.022  0.00  0.00    +0.000 A 
ATOM     18  C   LIG    1        4.730   1.296  -0.038  0.00  0.00    +0.100 A 
BRANCH  15  19
ATOM     19  N   LIG    1        1.071   3.411   0.010  0.00  0.00    -0.820 N 
ATOM     20  H   LIG    1        1.899   3.917   0.004  0.00  0.00    +0.410 HD
ATOM     21  H   LIG    1        0.220   3.876   0.020  0.00  0.00    +0.410 HD
ENDBRANCH  15  19
BRANCH   9  23
ATOM     22  C   LIG    1        5.795  -2.220  -0.069  0.00  0.00    +0.250 C 
ATOM     23  O   LIG    1        5.881  -0.794  -0.061  0.00  0.00    -0.300 OA
ENDBRANCH   9  23
BRANCH  18  24
ATOM     24  O   LIG    1        5.922   1.952  -0.047  0.00  0.00    -0.300 OA
ATOM     25  C   LIG    1        5.876   3.380  -0.038  0.00  0.00    +0.250 C 
ENDBRANCH  18  24
ENDBRANCH   1  13
BRANCH   6  26
ATOM     26  C   LIG    1       -4.860  -2.792  -2.637  0.00  0.00    +0.220 C 
BRANCH  26  27
ATOM     27  C   LIG    1       -5.198  -4.109  -1.989  0.00  0.00    -0.210 C 
ATOM     28  C   LIG    1       -4.322  -5.083  -2.000  0.00  0.00    +0.080 C 
ATOM     29  C   LIG    1       -4.643  -6.407  -1.350  0.00  0.00    +0.120 C 
ATOM     30  C   LIG    1       -5.306  -6.140   0.010  0.00  0.00    -0.040 C 
ATOM     31  C   LIG    1       -6.831  -6.440   0.141  0.00  0.00    +0.040 C 
ATOM     32  C   LIG    1       -6.337  -4.997   0.018  0.00  0.00    -0.040 C 
ATOM     33  C   LIG    1       -6.545  -4.300  -1.336  0.00  0.00    +0.110 C 
ENDBRANCH  26  27
BRANCH  26  34
ATOM     34  N   LIG    1       -5.889  -2.457  -3.631  0.00  0.00    -0.620 N 
ATOM     35  H   LIG    1       -6.787  -2.388  -3.175  0.00  0.00    +0.440 HD
ATOM     36  H   LIG    1       -5.925  -3.179  -4.335  0.00  0.00    +0.440 HD
ATOM     37  H   LIG    1       -5.663  -1.575  -4.065  0.00  0.00    +0.440 HD
ENDBRANCH  26  34
ENDBRANCH   6  26
TORSDOF 7
