REMARK  Name = ZINCpe00000gMwgi.0
REMARK                            x       y       z     vdW  Elec       q    Type
REMARK                         _______ _______ _______ _____ _____    ______ ____
ROOT
ATOM      1  C   LIG    1        2.424   0.035  -0.396  0.00  0.00    +0.240 C 
ATOM      2  C   LIG    1        2.432   1.333   0.421  0.00  0.00    +0.030 C 
ATOM      3  C   LIG    1        1.225   2.175   0.002  0.00  0.00    +0.090 C 
ATOM      4  C   LIG    1       -0.016   1.329   0.009  0.00  0.00    +0.520 C 
ATOM      5  N   LIG    1        0.002  -0.004   0.002  0.00  0.00    -0.710 N 
ATOM      6  H   LIG    1       -0.848  -0.470  -0.026  0.00  0.00    +0.400 HD
ATOM      7  O   LIG    1       -1.092   1.889   0.017  0.00  0.00    -0.550 OA
ATOM      8  C   LIG    1        1.219  -0.805   0.032  0.00  0.00    +0.310 C 
ENDROOT
BRANCH   8   9
ATOM      9  C   LIG    1        1.069  -1.975  -0.905  0.00  0.00    -0.260 A 
ATOM     10  C   LIG    1        1.499  -3.238  -0.678  0.00  0.00    +0.260 A 
ATOM     11  N   LIG    1        1.172  -3.984  -1.754  0.00  0.00    -0.370 N 
ATOM     12  N   LIG    1        0.528  -3.150  -2.677  0.00  0.00    -0.290 NA
ATOM     13  C   LIG    1        1.447  -5.412  -1.929  0.00  0.00    +0.360 C 
ATOM     14  C   LIG    1        0.467  -1.946  -2.167  0.00  0.00    +0.250 A 
ENDBRANCH   8   9
BRANCH   1  16
ATOM     15  C   LIG    1        4.768  -0.442  -0.860  0.00  0.00    +0.580 C 
ATOM     16  N   LIG    1        3.658  -0.713  -0.144  0.00  0.00    -0.700 N 
ATOM     17  H   LIG    1        3.678  -1.402   0.538  0.00  0.00    +0.410 HD
ATOM     18  O   LIG    1        4.744   0.422  -1.715  0.00  0.00    -0.510 OA
BRANCH  15  25
ATOM     19  C   LIG    1        7.161  -0.915  -1.356  0.00  0.00    +0.150 A 
ATOM     20  C   LIG    1        8.326  -1.633  -1.099  0.00  0.00    -0.030 A 
ATOM     21  C   LIG    1        8.297  -2.605  -0.115  0.00  0.00    -0.070 A 
ATOM     22  C   LIG    1        7.122  -2.832   0.585  0.00  0.00    +0.230 A 
ATOM     23  N   LIG    1        6.035  -2.139   0.329  0.00  0.00    -0.420 NA
ATOM     24  C   LIG    1        9.533  -3.410   0.194  0.00  0.00    +0.110 C 
ATOM     25  C   LIG    1        6.014  -1.196  -0.606  0.00  0.00    +0.030 A 
BRANCH  19  27
ATOM     26  C   LIG    1        8.354   0.269  -3.035  0.00  0.00    +0.250 C 
ATOM     27  O   LIG    1        7.140   0.044  -2.315  0.00  0.00    -0.270 OA
ENDBRANCH  19  27
ENDBRANCH  15  25
ENDBRANCH   1  16
TORSDOF 4
