REMARK  Name = ZINCrH000004umPW.0
REMARK                            x       y       z     vdW  Elec       q    Type
REMARK                         _______ _______ _______ _____ _____    ______ ____
ROOT
ATOM      1  O   LIG    1       -7.912   1.761  -2.910  0.00  0.00    -0.510 OA
ATOM      2  C   LIG    1       -8.583   2.277  -2.042  0.00  0.00    +0.520 C 
ATOM      3  N   LIG    1       -7.992   3.024  -1.088  0.00  0.00    -0.730 N 
ATOM      4  H   LIG    1       -8.529   3.436  -0.393  0.00  0.00    +0.400 HD
ENDROOT
BRANCH   2   5
ATOM      5  C   LIG    1      -10.077   2.082  -2.029  0.00  0.00    +0.180 C 
ATOM      6  C   LIG    1      -10.509   1.235  -0.808  0.00  0.00    +0.110 C 
ATOM      7  C   LIG    1      -11.645   0.409  -1.389  0.00  0.00    -0.160 A 
ATOM      8  C   LIG    1      -12.643  -0.332  -0.797  0.00  0.00    +0.080 A 
ATOM      9  C   LIG    1      -13.582  -0.979  -1.583  0.00  0.00    -0.060 A 
ATOM     10  C   LIG    1      -13.512  -0.877  -2.961  0.00  0.00    +0.080 A 
ATOM     11  C   LIG    1      -12.509  -0.138  -3.555  0.00  0.00    +0.020 A 
ATOM     12 CL   LIG    1      -14.843  -1.914  -0.842  0.00  0.00    -0.060 Cl
ATOM     13  C   LIG    1      -11.559   0.512  -2.771  0.00  0.00    +0.110 A 
ATOM     14  O   LIG    1      -10.495   1.276  -3.144  0.00  0.00    -0.270 OA
ENDBRANCH   2   5
BRANCH   3  15
ATOM     15  C   LIG    1       -6.540   3.213  -1.101  0.00  0.00    +0.280 C 
BRANCH  15  16
ATOM     16  C   LIG    1       -6.130   4.095   0.081  0.00  0.00    +0.130 C 
BRANCH  16  17
ATOM     17  C   LIG    1       -4.636   4.290   0.068  0.00  0.00    -0.010 A 
ATOM     18  C   LIG    1       -3.991   5.471   0.067  0.00  0.00    +0.160 A 
ATOM     19  O   LIG    1       -2.670   5.205   0.053  0.00  0.00    -0.190 OA
ATOM     20  C   LIG    1       -2.522   3.869   0.045  0.00  0.00    +0.240 A 
ATOM     21  N   LIG    1       -3.712   3.317   0.049  0.00  0.00    -0.460 NA
BRANCH  20  22
ATOM     22  C   LIG    1       -1.234   3.144   0.030  0.00  0.00    -0.030 A 
ATOM     23  C   LIG    1       -1.217   1.748   0.017  0.00  0.00    +0.110 A 
ATOM     24  C   LIG    1       -0.013   1.076   0.008  0.00  0.00    +0.000 A 
ATOM     25  C   LIG    1        1.179   1.784   0.000  0.00  0.00    +0.120 A 
ATOM     26  C   LIG    1        1.167   3.170   0.007  0.00  0.00    +0.000 A 
ATOM     27  F   LIG    1        2.356   1.121  -0.014  0.00  0.00    -0.130 F 
ATOM     28  C   LIG    1       -0.031   3.852   0.022  0.00  0.00    +0.080 A 
ENDBRANCH  20  22
ENDBRANCH  16  17
ENDBRANCH  15  16
ENDBRANCH   3  15
TORSDOF 5
