REMARK  Name = ZINCkj000005mdix.1
REMARK                            x       y       z     vdW  Elec       q    Type
REMARK                         _______ _______ _______ _____ _____    ______ ____
ROOT
ATOM      1  O   LIG    1       -3.223   5.062   6.294  0.00  0.00    -0.480 OA
ATOM      2  C   LIG    1       -2.397   4.173   6.358  0.00  0.00    +0.640 C 
ATOM      3  O   LIG    1       -1.454   3.985   5.427  0.00  0.00    -0.320 OA
ATOM      4  C   LIG    1       -0.627   2.843   5.797  0.00  0.00    +0.190 C 
ATOM      5  C   LIG    1       -1.233   2.360   7.129  0.00  0.00    +0.300 C 
ATOM      6  N   LIG    1       -2.346   3.292   7.366  0.00  0.00    -0.560 N 
ENDROOT
BRANCH   6   7
ATOM      7  C   LIG    1       -3.212   3.263   8.465  0.00  0.00    +0.160 A 
ATOM      8  C   LIG    1       -3.059   2.292   9.446  0.00  0.00    -0.020 A 
ATOM      9  C   LIG    1       -3.912   2.269  10.532  0.00  0.00    +0.040 A 
ATOM     10  C   LIG    1       -4.924   3.205  10.638  0.00  0.00    +0.000 A 
ATOM     11  C   LIG    1       -5.082   4.170   9.661  0.00  0.00    +0.040 A 
ATOM     12  C   LIG    1       -4.229   4.202   8.575  0.00  0.00    +0.010 A 
ENDBRANCH   6   7
BRANCH   4  13
ATOM     13  C   LIG    1       -0.722   1.746   4.735  0.00  0.00    +0.290 C 
BRANCH  13  14
ATOM     14  N   LIG    1       -0.033   2.185   3.514  0.00  0.00    -0.390 N 
ATOM     15  C   LIG    1       -0.758   3.326   2.917  0.00  0.00    +0.270 C 
ATOM     16  C   LIG    1       -0.626   3.123   1.387  0.00  0.00    +0.090 C 
ATOM     17  C   LIG    1       -0.729   1.579   1.267  0.00  0.00    +0.000 C 
ATOM     18  C   LIG    1       -0.006   1.082   2.536  0.00  0.00    +0.270 C 
ATOM     19  H   LIG    1        0.911   2.462   3.737  0.00  0.00    +0.430 HD
BRANCH  17  20
ATOM     20  C   LIG    1       -0.013   1.086   0.008  0.00  0.00    +0.200 C 
BRANCH  20  21
ATOM     21  O   LIG    1       -0.704   1.559  -1.150  0.00  0.00    -0.570 OA
ATOM     22  H   LIG    1       -0.304   1.284  -1.986  0.00  0.00    +0.400 HD
ENDBRANCH  20  21
ENDBRANCH  17  20
ENDBRANCH  13  14
ENDBRANCH   4  13
TORSDOF 5
