REMARK  Name = ZINCkj000005mdix.0
REMARK                            x       y       z     vdW  Elec       q    Type
REMARK                         _______ _______ _______ _____ _____    ______ ____
ROOT
ATOM      1  O   LIG    1        0.191   4.525  -2.787  0.00  0.00    -0.470 OA
ATOM      2  C   LIG    1       -0.025   3.374  -2.460  0.00  0.00    +0.640 C 
ATOM      3  O   LIG    1       -0.655   3.043  -1.327  0.00  0.00    -0.320 OA
ATOM      4  C   LIG    1       -0.753   1.593  -1.232  0.00  0.00    +0.190 C 
ATOM      5  C   LIG    1       -0.066   1.087  -2.515  0.00  0.00    +0.300 C 
ATOM      6  N   LIG    1        0.348   2.322  -3.200  0.00  0.00    -0.560 N 
ENDROOT
BRANCH   6   7
ATOM      7  C   LIG    1        1.021   2.386  -4.425  0.00  0.00    +0.160 A 
ATOM      8  C   LIG    1        1.359   1.218  -5.096  0.00  0.00    -0.020 A 
ATOM      9  C   LIG    1        2.018   1.284  -6.308  0.00  0.00    +0.040 A 
ATOM     10  C   LIG    1        2.352   2.513  -6.848  0.00  0.00    +0.000 A 
ATOM     11  C   LIG    1        2.022   3.678  -6.180  0.00  0.00    +0.040 A 
ATOM     12  C   LIG    1        1.358   3.618  -4.971  0.00  0.00    +0.010 A 
ENDBRANCH   6   7
BRANCH   4  13
ATOM     13  C   LIG    1       -0.013   1.086   0.008  0.00  0.00    +0.290 C 
BRANCH  13  14
ATOM     14  N   LIG    1       -0.700   1.560   1.217  0.00  0.00    -0.390 N 
ATOM     15  C   LIG    1       -2.030   0.929   1.310  0.00  0.00    +0.250 C 
ATOM     16  C   LIG    1       -2.074   0.150   2.642  0.00  0.00    +0.090 C 
ATOM     17  C   LIG    1       -0.977   0.846   3.490  0.00  0.00    +0.010 C 
ATOM     18  C   LIG    1        0.083   1.186   2.413  0.00  0.00    +0.280 C 
ATOM     19  H   LIG    1       -0.802   2.563   1.179  0.00  0.00    +0.440 HD
BRANCH  17  20
ATOM     20  C   LIG    1       -0.406  -0.110   4.539  0.00  0.00    +0.210 C 
BRANCH  20  21
ATOM     21  O   LIG    1       -1.418  -0.425   5.498  0.00  0.00    -0.570 OA
ATOM     22  H   LIG    1       -1.126  -1.028   6.195  0.00  0.00    +0.400 HD
ENDBRANCH  20  21
ENDBRANCH  17  20
ENDBRANCH  13  14
ENDBRANCH   4  13
TORSDOF 5
