REMARK  Name = ZINCqH0000035S48.0
REMARK                            x       y       z     vdW  Elec       q    Type
REMARK                         _______ _______ _______ _____ _____    ______ ____
ROOT
ATOM      1  C   LIG    1        0.533  -2.993   1.397  0.00  0.00    +0.520 C 
ATOM      2  N   LIG    1        1.671  -3.678   1.628  0.00  0.00    -0.610 N 
ATOM      3  C   LIG    1        2.417  -4.259   0.509  0.00  0.00    +0.280 C 
ATOM      4  O   LIG    1       -0.084  -2.512   2.324  0.00  0.00    -0.520 OA
ENDROOT
BRANCH   1   5
ATOM      5  C   LIG    1        0.029  -2.824  -0.013  0.00  0.00    +0.120 C 
BRANCH   5  11
ATOM      6  C   LIG    1       -1.198  -0.636   0.010  0.00  0.00    +0.180 A 
ATOM      7  C   LIG    1       -2.373   0.107   0.031  0.00  0.00    -0.080 A 
ATOM      8  C   LIG    1       -3.592  -0.532   0.034  0.00  0.00    +0.110 A 
ATOM      9  C   LIG    1       -3.643  -1.931   0.026  0.00  0.00    -0.210 A 
ATOM     10  C   LIG    1       -2.454  -2.670   0.011  0.00  0.00    +0.130 A 
ATOM     11  C   LIG    1       -1.249  -2.026   0.003  0.00  0.00    -0.110 A 
BRANCH   9  12
ATOM     12  C   LIG    1       -4.939  -2.622   0.035  0.00  0.00    +0.400 C 
ATOM     13  O   LIG    1       -4.981  -3.834   0.028  0.00  0.00    -0.460 OA
ATOM     14  C   LIG    1       -6.218  -1.824   0.051  0.00  0.00    +0.070 C 
ENDBRANCH   9  12
BRANCH   6  16
ATOM     15  C   LIG    1       -0.017   1.425   0.010  0.00  0.00    +0.240 C 
ATOM     16  O   LIG    1        0.002  -0.004   0.002  0.00  0.00    -0.310 OA
ENDBRANCH   6  16
ENDBRANCH   5  11
ENDBRANCH   1   5
BRANCH   2  17
ATOM     17  C   LIG    1        2.161  -3.842   2.999  0.00  0.00    +0.410 C 
BRANCH  17  18
ATOM     18  C   LIG    1        1.581  -5.099   3.593  0.00  0.00    +0.060 A 
ATOM     19  N   LIG    1        2.127  -6.253   3.511  0.00  0.00    -0.460 NA
ATOM     20  C   LIG    1        1.497  -7.291   4.093  0.00  0.00    +0.080 A 
ATOM     21  C   LIG    1        1.870  -8.648   4.160  0.00  0.00    +0.070 A 
ATOM     22  C   LIG    1        1.077  -9.551   4.802  0.00  0.00    +0.030 A 
ATOM     23  C   LIG    1       -0.108  -9.153   5.403  0.00  0.00    +0.040 A 
ATOM     24  C   LIG    1       -0.498  -7.833   5.355  0.00  0.00    +0.060 A 
ATOM     25  C   LIG    1        0.300  -6.896   4.702  0.00  0.00    -0.190 A 
ATOM     26  S   LIG    1        0.109  -5.163   4.454  0.00  0.00    +0.140 S 
ENDBRANCH  17  18
ENDBRANCH   2  17
TORSDOF 6
