REMARK  Name = ZINCtV00000L6jQP.1
REMARK                            x       y       z     vdW  Elec       q    Type
REMARK                         _______ _______ _______ _____ _____    ______ ____
ROOT
ATOM      1  C   LIG    1        8.240   3.753   4.274  0.00  0.00    -0.050 A 
ATOM      2  C   LIG    1        9.062   3.118   5.196  0.00  0.00    +0.010 A 
ATOM      3  C   LIG    1        9.043   1.740   5.300  0.00  0.00    +0.100 A 
ATOM      4  C   LIG    1        8.205   0.987   4.488  0.00  0.00    -0.140 A 
ATOM      5  S   LIG    1        8.206  -0.767   4.643  0.00  0.00    +0.040 S 
ATOM      6  C   LIG    1        7.458  -1.310   3.144  0.00  0.00    -0.130 A 
ATOM      7  C   LIG    1        7.620  -2.630   2.741  0.00  0.00    +0.060 A 
ATOM      8  C   LIG    1        7.044  -3.074   1.567  0.00  0.00    +0.020 A 
ATOM      9  C   LIG    1        6.303  -2.204   0.789  0.00  0.00    +0.030 A 
ATOM     10  C   LIG    1        6.136  -0.890   1.183  0.00  0.00    +0.050 A 
ATOM     11  C   LIG    1        6.711  -0.432   2.364  0.00  0.00    +0.140 A 
ATOM     12  N   LIG    1        6.519   0.899   2.733  0.00  0.00    -0.490 N 
ATOM     13  C   LIG    1        5.431   1.533   2.253  0.00  0.00    +0.520 C 
ATOM     14  O   LIG    1        4.697   0.969   1.469  0.00  0.00    -0.480 OA
ATOM     15  C   LIG    1        7.380   1.619   3.560  0.00  0.00    +0.170 A 
ATOM     16  C   LIG    1        7.400   3.004   3.462  0.00  0.00    +0.000 A 
ENDROOT
BRANCH   1  18
ATOM     17  C   LIG    1        9.489   6.000   5.381  0.00  0.00    +0.140 C 
ATOM     18  S   LIG    1        8.262   5.509   4.138  0.00  0.00    -0.100 S 
ENDBRANCH   1  18
BRANCH  13  19
ATOM     19  C   LIG    1        5.127   2.943   2.691  0.00  0.00    +0.230 C 
BRANCH  19  20
ATOM     20  N   LIG    1        3.674   3.160   2.666  0.00  0.00    -0.670 NA
ATOM     21  H   LIG    1        3.294   2.960   1.753  0.00  0.00    +0.360 HD
BRANCH  20  22
ATOM     22  C   LIG    1        3.339   4.527   3.088  0.00  0.00    +0.190 C 
ATOM     23  C   LIG    1        3.256   4.584   4.614  0.00  0.00    +0.050 C 
BRANCH  22  24
ATOM     24  C   LIG    1        2.011   4.923   2.497  0.00  0.00    -0.080 A 
ATOM     25  C   LIG    1        0.978   4.006   2.441  0.00  0.00    +0.050 A 
ATOM     26  C   LIG    1       -0.241   4.369   1.899  0.00  0.00    +0.020 A 
ATOM     27  C   LIG    1       -0.428   5.649   1.413  0.00  0.00    +0.020 A 
ATOM     28  C   LIG    1        0.604   6.570   1.475  0.00  0.00    -0.030 A 
ATOM     29 CL   LIG    1        0.367   8.181   0.873  0.00  0.00    -0.070 Cl
ATOM     30  C   LIG    1        1.825   6.204   2.012  0.00  0.00    +0.030 A 
ENDBRANCH  22  24
ENDBRANCH  20  22
ENDBRANCH  19  20
ENDBRANCH  13  19
TORSDOF 5
