REMARK  Name = ZINCqH0000008adA.0
REMARK                            x       y       z     vdW  Elec       q    Type
REMARK                         _______ _______ _______ _____ _____    ______ ____
ROOT
ATOM      1  C   LIG    1       -0.348  -2.734   0.975  0.00  0.00    +0.030 C 
ATOM      2  C   LIG    1       -1.194  -2.006  -0.071  0.00  0.00    +0.180 C 
ENDROOT
BRANCH   2   3
ATOM      3  N   LIG    1       -2.566  -2.531  -0.043  0.00  0.00    -0.510 NA
ATOM      4  C   LIG    1       -3.308  -2.003   1.109  0.00  0.00    +0.180 C 
ATOM      5  C   LIG    1       -4.769  -2.453   1.026  0.00  0.00    +0.030 C 
ATOM      6  C   LIG    1       -4.826  -3.983   1.017  0.00  0.00    +0.230 C 
ATOM      7  C   LIG    1       -4.005  -4.510  -0.164  0.00  0.00    +0.030 C 
ATOM      8  C   LIG    1       -2.567  -4.000  -0.047  0.00  0.00    +0.190 C 
BRANCH   6   9
ATOM      9  N   LIG    1       -6.217  -4.420   0.879  0.00  0.00    -0.600 N 
ATOM     10  C   LIG    1       -6.780  -5.252   1.936  0.00  0.00    +0.250 C 
ATOM     11  C   LIG    1       -8.310  -5.215   1.886  0.00  0.00    +0.010 C 
ATOM     12  C   LIG    1       -8.758  -5.530   0.454  0.00  0.00    +0.020 C 
ATOM     13  C   LIG    1       -8.332  -4.372  -0.452  0.00  0.00    +0.060 C 
ATOM     14  C   LIG    1       -6.888  -4.037  -0.208  0.00  0.00    +0.510 C 
ATOM     15  O   LIG    1       -6.301  -3.383  -1.044  0.00  0.00    -0.540 OA
ENDBRANCH   6   9
ENDBRANCH   2   3
BRANCH   2  16
ATOM     16  C   LIG    1       -0.600  -2.225  -1.439  0.00  0.00    +0.520 C 
ATOM     17  N   LIG    1        0.530  -1.583  -1.793  0.00  0.00    -0.680 N 
ATOM     18  H   LIG    1        1.004  -1.041  -1.143  0.00  0.00    +0.410 HD
ATOM     19  O   LIG    1       -1.140  -2.979  -2.220  0.00  0.00    -0.490 OA
BRANCH  17  20
ATOM     20  C   LIG    1        1.021  -1.699  -3.099  0.00  0.00    +0.170 A 
ATOM     21  C   LIG    1        0.140  -1.831  -4.164  0.00  0.00    +0.040 A 
ATOM     22  C   LIG    1        0.626  -1.945  -5.452  0.00  0.00    +0.070 A 
ATOM     23  C   LIG    1        1.990  -1.929  -5.682  0.00  0.00    -0.050 A 
ATOM     24  C   LIG    1        2.872  -1.798  -4.621  0.00  0.00    -0.010 A 
ATOM     25 CL   LIG    1        4.583  -1.778  -4.913  0.00  0.00    -0.040 Cl
ATOM     26 CL   LIG    1        2.598  -2.073  -7.301  0.00  0.00    -0.050 Cl
ATOM     27  C   LIG    1        2.390  -1.676  -3.332  0.00  0.00    +0.020 A 
ENDBRANCH  17  20
ENDBRANCH   2  16
TORSDOF 4
