REMARK  Name = ZINCrD000000BL9P.0
REMARK                            x       y       z     vdW  Elec       q    Type
REMARK                         _______ _______ _______ _____ _____    ______ ____
ROOT
ATOM      1  O   LIG    1       -3.785  -0.919   2.647  0.00  0.00    -0.580 OA
ATOM      2  C   LIG    1       -3.806   0.260   2.942  0.00  0.00    +0.740 C 
ATOM      3  N   LIG    1       -4.889   0.783   3.551  0.00  0.00    -0.660 N 
ATOM      4  C   LIG    1       -5.284   2.112   4.049  0.00  0.00    +0.260 C 
ATOM      5  C   LIG    1       -6.202   1.401   5.034  0.00  0.00    -0.120 C 
ATOM      6  C   LIG    1       -7.500   2.032   5.532  0.00  0.00    +0.040 C 
ATOM      7  C   LIG    1       -7.313   1.192   6.809  0.00  0.00    +0.010 C 
ATOM      8  C   LIG    1       -5.806   1.171   6.489  0.00  0.00    +0.050 C 
ATOM      9  C   LIG    1       -6.196   0.277   4.002  0.00  0.00    +0.280 C 
ATOM     10  N   LIG    1       -2.746   1.044   2.662  0.00  0.00    -0.720 N 
ATOM     11  H   LIG    1       -2.763   1.985   2.897  0.00  0.00    +0.400 HD
ENDROOT
BRANCH  10  12
ATOM     12  C   LIG    1       -1.569   0.476   2.000  0.00  0.00    +0.280 C 
ATOM     13  C   LIG    1       -0.354   0.317   2.935  0.00  0.00    -0.040 C 
ATOM     14  C   LIG    1       -0.733   0.495   4.421  0.00  0.00    +0.010 C 
ATOM     15  C   LIG    1       -0.480   1.986   4.711  0.00  0.00    +0.190 C 
ATOM     16  O   LIG    1       -0.447   2.647   3.438  0.00  0.00    -0.360 OA
ATOM     17  C   LIG    1        0.098   1.720   2.469  0.00  0.00    +0.160 C 
ATOM     18  C   LIG    1       -0.751   1.503   1.223  0.00  0.00    -0.090 C 
ATOM     19  C   LIG    1       -0.010   0.971  -0.009  0.00  0.00    +0.040 C 
ATOM     20  C   LIG    1       -0.781   1.491  -1.238  0.00  0.00    +0.020 C 
ATOM     21  C   LIG    1       -1.975   2.305  -0.696  0.00  0.00    +0.010 C 
ATOM     22  C   LIG    1       -1.534   2.733   0.727  0.00  0.00    +0.040 C 
ENDBRANCH  10  12
BRANCH   9  23
ATOM     23  C   LIG    1       -7.298   0.409   2.949  0.00  0.00    -0.010 C 
ATOM     24  C   LIG    1       -8.571  -0.282   3.449  0.00  0.00    +0.010 C 
ATOM     25  C   LIG    1       -9.642  -0.216   2.357  0.00  0.00    +0.210 C 
ATOM     26  O   LIG    1       -9.144  -0.825   1.164  0.00  0.00    -0.380 OA
ATOM     27  C   LIG    1       -7.983  -0.190   0.624  0.00  0.00    +0.200 C 
ATOM     28  C   LIG    1       -6.845  -0.258   1.646  0.00  0.00    +0.010 C 
ENDBRANCH   9  23
TORSDOF 2
