REMARK  Name = ZINCtV00000L6jMU.0
REMARK                            x       y       z     vdW  Elec       q    Type
REMARK                         _______ _______ _______ _____ _____    ______ ____
ROOT
ATOM      1  C   LIG    1        0.155  -0.759   0.259  0.00  0.00    -0.350 A 
ATOM      2  C   LIG    1       -1.089  -1.304  -0.014  0.00  0.00    +0.040 A 
ATOM      3  C   LIG    1       -2.526  -0.791  -0.089  0.00  0.00    +0.110 C 
ATOM      4  C   LIG    1       -3.291  -1.859  -0.894  0.00  0.00    +0.030 C 
ATOM      5  C   LIG    1       -2.478  -3.134  -0.604  0.00  0.00    +0.090 C 
ATOM      6  C   LIG    1       -1.060  -2.643  -0.315  0.00  0.00    -0.240 A 
ATOM      7  C   LIG    1        0.199  -3.205  -0.279  0.00  0.00    +0.120 A 
ATOM      8  S   LIG    1        1.394  -1.994   0.142  0.00  0.00    +0.210 S 
ENDROOT
BRANCH   1  10
ATOM      9  O   LIG    1       -0.525   1.400   0.553  0.00  0.00    -0.460 OA
ATOM     10  C   LIG    1        0.390   0.596   0.590  0.00  0.00    +0.470 C 
BRANCH  10  11
ATOM     11  C   LIG    1        1.748   1.038   0.974  0.00  0.00    -0.150 A 
ATOM     12  C   LIG    1        2.610   0.157   1.630  0.00  0.00    +0.040 A 
ATOM     13  C   LIG    1        3.876   0.567   1.982  0.00  0.00    +0.020 A 
ATOM     14  C   LIG    1        4.294   1.867   1.694  0.00  0.00    -0.020 A 
ATOM     15  C   LIG    1        3.431   2.750   1.044  0.00  0.00    +0.010 A 
ATOM     16  C   LIG    1        2.167   2.339   0.686  0.00  0.00    +0.080 A 
BRANCH  14  17
ATOM     17  C   LIG    1        5.655   2.310   2.080  0.00  0.00    -0.050 A 
ATOM     18  C   LIG    1        6.077   3.606   1.789  0.00  0.00    +0.020 A 
ATOM     19  C   LIG    1        7.344   4.015   2.155  0.00  0.00    +0.010 A 
ATOM     20  C   LIG    1        8.197   3.138   2.800  0.00  0.00    +0.010 A 
ATOM     21  C   LIG    1        7.785   1.849   3.087  0.00  0.00    +0.010 A 
ATOM     22  C   LIG    1        6.519   1.431   2.730  0.00  0.00    +0.020 A 
ENDBRANCH  14  17
ENDBRANCH  10  11
ENDBRANCH   1  10
BRANCH   7  23
ATOM     23  N   LIG    1        0.479  -4.535  -0.538  0.00  0.00    -0.640 N 
ATOM     24  H   LIG    1       -0.246  -5.166  -0.672  0.00  0.00    +0.420 HD
BRANCH  23  25
ATOM     25  C   LIG    1        1.805  -4.969  -0.607  0.00  0.00    +0.150 A 
ATOM     26  C   LIG    1        2.770  -4.168  -1.204  0.00  0.00    -0.030 A 
ATOM     27  C   LIG    1        4.080  -4.598  -1.267  0.00  0.00    +0.050 A 
ATOM     28  C   LIG    1        4.431  -5.830  -0.745  0.00  0.00    -0.010 A 
ATOM     29  C   LIG    1        3.472  -6.633  -0.154  0.00  0.00    +0.040 A 
ATOM     30  C   LIG    1        2.160  -6.206  -0.084  0.00  0.00    -0.010 A 
ENDBRANCH  23  25
ENDBRANCH   7  23
TORSDOF 5
