REMARK  Name = ZINCrg000000syNd.0
REMARK                            x       y       z     vdW  Elec       q    Type
REMARK                         _______ _______ _______ _____ _____    ______ ____
ROOT
ATOM      1  C   LIG    1       -1.173  -0.894   0.009  0.00  0.00    +0.610 C 
ATOM      2  N   LIG    1       -2.411  -0.375   0.125  0.00  0.00    -0.590 N 
ATOM      3  C   LIG    1       -2.615   1.080   0.136  0.00  0.00    +0.290 C 
ATOM      4  C   LIG    1       -3.643   1.442  -0.940  0.00  0.00    +0.020 C 
ATOM      5  C   LIG    1       -4.919   0.628  -0.716  0.00  0.00    +0.020 C 
ATOM      6  C   LIG    1       -4.601  -0.865  -0.835  0.00  0.00    +0.270 C 
ATOM      7  C   LIG    1       -3.584  -1.253   0.237  0.00  0.00    +0.270 C 
ATOM      8  O   LIG    1       -1.027  -2.094  -0.130  0.00  0.00    -0.530 OA
ENDROOT
BRANCH   6   9
ATOM      9  N   LIG    1       -5.829  -1.642  -0.652  0.00  0.00    -0.980 NA
ATOM     10  C   LIG    1       -6.681  -1.642   0.539  0.00  0.00    +0.240 C 
ATOM     11  C   LIG    1       -7.922  -2.531   0.409  0.00  0.00    +0.090 C 
ATOM     12  C   LIG    1       -7.548  -3.655  -0.598  0.00  0.00    -0.310 C 
ATOM     13  S   LIG    1       -6.511  -2.684  -1.769  0.00  0.00    +2.560 S 
ATOM     14  O   LIG    1       -5.431  -3.458  -2.272  0.00  0.00    -0.950 OA
ATOM     15  O   LIG    1       -7.307  -1.863  -2.613  0.00  0.00    -0.950 OA
ENDBRANCH   6   9
BRANCH   1  18
ATOM     16  C   LIG    1        1.791  -1.756  -0.513  0.00  0.00    +0.210 C 
ATOM     17  C   LIG    1        1.297  -0.373  -0.176  0.00  0.00    +0.040 A 
ATOM     18  C   LIG    1        0.005  -0.008   0.049  0.00  0.00    -0.070 A 
ATOM     19  N   LIG    1        0.002   1.324   0.319  0.00  0.00    -0.460 NA
ATOM     20  C   LIG    1        1.236   1.759   0.262  0.00  0.00    +0.290 A 
ATOM     21  O   LIG    1        2.049   0.732  -0.041  0.00  0.00    -0.190 OA
BRANCH  20  22
ATOM     22  C   LIG    1        1.665   3.155   0.494  0.00  0.00    -0.180 A 
ATOM     23  C   LIG    1        2.948   3.627   0.439  0.00  0.00    +0.300 A 
ATOM     24  N   LIG    1        2.908   4.945   0.708  0.00  0.00    -0.360 N 
ATOM     25  N   LIG    1        1.575   5.307   0.937  0.00  0.00    -0.290 NA
ATOM     26  C   LIG    1        4.062   5.846   0.755  0.00  0.00    +0.370 C 
ATOM     27  C   LIG    1        0.826   4.246   0.805  0.00  0.00    +0.300 A 
ENDBRANCH  20  22
ENDBRANCH   1  18
TORSDOF 3
