REMARK  Name = ZINCrg00000SjSCQ.0
REMARK                            x       y       z     vdW  Elec       q    Type
REMARK                         _______ _______ _______ _____ _____    ______ ____
ROOT
ATOM      1  C   LIG    1       -0.052   0.801   0.093  0.00  0.00    +0.240 C 
ATOM      2  C   LIG    1       -0.470   1.609  -1.142  0.00  0.00    +0.030 C 
ATOM      3  C   LIG    1       -1.947   1.324  -1.429  0.00  0.00    +0.080 C 
ATOM      4  C   LIG    1       -2.750   1.470  -0.168  0.00  0.00    +0.510 C 
ATOM      5  N   LIG    1       -2.212   1.463   1.052  0.00  0.00    -0.570 N 
ATOM      6  O   LIG    1       -3.952   1.600  -0.265  0.00  0.00    -0.530 OA
ATOM      7  C   LIG    1       -0.779   1.360   1.317  0.00  0.00    +0.320 C 
ENDROOT
BRANCH   7   8
ATOM      8  C   LIG    1       -0.549   0.446   2.493  0.00  0.00    -0.040 A 
ATOM      9  C   LIG    1        0.023   0.776   3.666  0.00  0.00    +0.170 A 
ATOM     10  N   LIG    1        0.039  -0.317   4.443  0.00  0.00    -0.490 NA
ATOM     11  C   LIG    1       -0.501  -1.313   3.795  0.00  0.00    +0.400 A 
ATOM     12  N   LIG    1       -0.886  -0.878   2.576  0.00  0.00    -0.440 N 
ATOM     13  C   LIG    1       -1.541  -1.675   1.535  0.00  0.00    +0.320 C 
ENDBRANCH   7   8
BRANCH   1  15
ATOM     14  C   LIG    1        2.230   0.084  -0.370  0.00  0.00    +0.590 C 
ATOM     15  N   LIG    1        1.396   0.914   0.287  0.00  0.00    -0.710 N 
ATOM     16  H   LIG    1        1.754   1.586   0.887  0.00  0.00    +0.420 HD
ATOM     17  O   LIG    1        1.780  -0.817  -1.052  0.00  0.00    -0.550 OA
BRANCH  14  22
ATOM     18  C   LIG    1        7.891   0.837   0.093  0.00  0.00    +0.140 C 
ATOM     19  C   LIG    1        6.403   0.633  -0.035  0.00  0.00    +0.200 A 
ATOM     20  C   LIG    1        5.930  -0.297  -0.903  0.00  0.00    -0.090 A 
ATOM     21  C   LIG    1        4.556  -0.502  -1.030  0.00  0.00    +0.220 A 
ATOM     22  C   LIG    1        3.686   0.267  -0.261  0.00  0.00    -0.290 A 
ATOM     23  C   LIG    1        4.228   1.226   0.633  0.00  0.00    +0.540 A 
ATOM     24  O   LIG    1        3.487   1.909   1.320  0.00  0.00    -0.540 OA
ATOM     25  N   LIG    1        5.562   1.381   0.720  0.00  0.00    -0.600 N 
ATOM     26  H   LIG    1        5.928   2.038   1.332  0.00  0.00    +0.420 HD
ENDBRANCH  14  22
ENDBRANCH   1  15
BRANCH   5  27
ATOM     27  C   LIG    1       -3.115   1.564   2.201  0.00  0.00    +0.190 C 
ATOM     28  C   LIG    1       -4.557   1.087   2.010  0.00  0.00    +0.040 C 
ATOM     29  C   LIG    1       -4.253   2.584   2.117  0.00  0.00    +0.010 C 
ENDBRANCH   5  27
TORSDOF 4
