REMARK  Name = ZINCrD0000074rbR.0
REMARK                            x       y       z     vdW  Elec       q    Type
REMARK                         _______ _______ _______ _____ _____    ______ ____
ROOT
ATOM      1  C   LIG    1        4.112   0.392   5.434  0.00  0.00    +0.150 A 
ATOM      2  N   LIG    1        3.585   1.130   6.383  0.00  0.00    -0.280 NA
ATOM      3  N   LIG    1        4.297   1.042   7.450  0.00  0.00    -0.280 NA
ATOM      4  C   LIG    1        5.311   0.250   7.247  0.00  0.00    +0.190 A 
ATOM      5  N   LIG    1        5.227  -0.198   5.957  0.00  0.00    -0.430 N 
ENDROOT
BRANCH   5   6
ATOM      6  C   LIG    1        6.144  -1.116   5.277  0.00  0.00    +0.190 C 
ATOM      7  C   LIG    1        6.093  -1.163   3.749  0.00  0.00    +0.070 C 
ATOM      8  C   LIG    1        5.534  -2.328   4.570  0.00  0.00    +0.060 C 
ENDBRANCH   5   6
BRANCH   1   9
ATOM      9  S   LIG    1        3.493   0.193   3.796  0.00  0.00    +0.060 S 
BRANCH   9  10
ATOM     10  C   LIG    1        2.031   1.256   3.881  0.00  0.00    -0.020 C 
ATOM     11  C   LIG    1        2.467   2.708   4.091  0.00  0.00    +0.090 C 
BRANCH  10  12
ATOM     12  C   LIG    1        1.254   1.147   2.595  0.00  0.00    +0.420 C 
ATOM     13  O   LIG    1        1.818   0.821   1.572  0.00  0.00    -0.430 OA
BRANCH  12  18
ATOM     14  C   LIG    1       -4.383   2.272   2.536  0.00  0.00    +0.100 C 
ATOM     15  C   LIG    1       -2.906   1.977   2.552  0.00  0.00    -0.040 A 
ATOM     16  C   LIG    1       -2.281   1.532   1.400  0.00  0.00    +0.000 A 
ATOM     17  C   LIG    1       -0.930   1.254   1.408  0.00  0.00    -0.020 A 
ATOM     18  C   LIG    1       -0.190   1.435   2.580  0.00  0.00    -0.170 A 
ATOM     19  C   LIG    1       -0.827   1.891   3.738  0.00  0.00    +0.070 A 
ATOM     20  C   LIG    1       -0.253   0.763   0.154  0.00  0.00    +0.110 C 
ATOM     21  C   LIG    1       -2.180   2.158   3.716  0.00  0.00    -0.110 A 
ATOM     22  C   LIG    1       -2.869   2.649   4.963  0.00  0.00    +0.090 C 
ENDBRANCH  12  18
ENDBRANCH  10  12
ENDBRANCH   9  10
ENDBRANCH   1   9
BRANCH   4  23
ATOM     23  C   LIG    1        6.376  -0.112   8.249  0.00  0.00    +0.180 C 
BRANCH  23  24
ATOM     24  C   LIG    1        5.946  -1.359   9.024  0.00  0.00    +0.070 C 
BRANCH  24  25
ATOM     25  C   LIG    1        7.011  -1.721  10.026  0.00  0.00    +0.520 C 
ATOM     26  O   LIG    1        8.016  -1.047  10.113  0.00  0.00    -0.540 OA
ATOM     27  N   LIG    1        6.847  -2.793  10.827  0.00  0.00    -0.860 N 
ATOM     28  H   LIG    1        7.533  -3.026  11.472  0.00  0.00    +0.400 HD
ATOM     29  H   LIG    1        6.044  -3.332  10.757  0.00  0.00    +0.400 HD
ENDBRANCH  24  25
ENDBRANCH  23  24
ENDBRANCH   4  23
TORSDOF 8
