REMARK  Name = ZINCrD000000C0yH.0
REMARK                            x       y       z     vdW  Elec       q    Type
REMARK                         _______ _______ _______ _____ _____    ______ ____
ROOT
ATOM      1  O   LIG    1        2.511   4.070  -0.102  0.00  0.00    -0.510 OA
ATOM      2  C   LIG    1        3.568   3.475  -0.115  0.00  0.00    +0.520 C 
ATOM      3  N   LIG    1        3.585   2.131  -0.021  0.00  0.00    -0.670 N 
ATOM      4  H   LIG    1        4.431   1.660   0.046  0.00  0.00    +0.410 HD
ENDROOT
BRANCH   2   5
ATOM      5  C   LIG    1        4.862   4.238  -0.237  0.00  0.00    +0.000 C 
ATOM      6  C   LIG    1        4.564   5.738  -0.323  0.00  0.00    +0.040 C 
ATOM      7  C   LIG    1        5.886   6.509  -0.386  0.00  0.00    +0.040 C 
ATOM      8  C   LIG    1        6.728   6.171   0.847  0.00  0.00    +0.190 C 
ATOM      9  N   LIG    1        6.985   4.725   0.883  0.00  0.00    -0.470 N 
ATOM     10  C   LIG    1        5.734   3.965   0.991  0.00  0.00    +0.230 C 
BRANCH   9  11
ATOM     11  C   LIG    1        7.856   4.400   1.916  0.00  0.00    +0.260 A 
ATOM     12  C   LIG    1        9.105   5.013   1.996  0.00  0.00    +0.210 A 
ATOM     13  N   LIG    1        9.928   4.702   2.979  0.00  0.00    -0.420 NA
ATOM     14  C   LIG    1        9.570   3.810   3.887  0.00  0.00    +0.190 A 
ATOM     15  C   LIG    1        8.332   3.199   3.811  0.00  0.00    +0.250 A 
ATOM     16  N   LIG    1        7.499   3.509   2.832  0.00  0.00    -0.480 NA
ENDBRANCH   9  11
ENDBRANCH   2   5
BRANCH   3  17
ATOM     17  C   LIG    1        2.381   1.413  -0.019  0.00  0.00    +0.120 A 
ATOM     18  C   LIG    1        2.272   0.243   0.721  0.00  0.00    +0.010 A 
ATOM     19  C   LIG    1        1.086  -0.464   0.723  0.00  0.00    +0.010 A 
ATOM     20  C   LIG    1        0.003  -0.005  -0.015  0.00  0.00    +0.100 A 
ATOM     21  C   LIG    1        0.112   1.165  -0.755  0.00  0.00    -0.020 A 
ATOM     22  C   LIG    1        1.298   1.872  -0.756  0.00  0.00    +0.040 A 
BRANCH  20  23
ATOM     23  N   LIG    1       -1.199  -0.722  -0.013  0.00  0.00    -0.490 N 
ATOM     24  C   LIG    1       -0.983  -2.112  -0.434  0.00  0.00    +0.180 C 
ATOM     25  C   LIG    1       -2.285  -2.901  -0.282  0.00  0.00    +0.020 C 
ATOM     26  C   LIG    1       -3.374  -2.251  -1.141  0.00  0.00    +0.010 C 
ATOM     27  C   LIG    1       -3.545  -0.790  -0.714  0.00  0.00    +0.020 C 
ATOM     28  C   LIG    1       -2.206  -0.063  -0.855  0.00  0.00    +0.180 C 
ENDBRANCH  20  23
ENDBRANCH   3  17
TORSDOF 4
