REMARK  Name = ZINCnE000004RdxR.0
REMARK                            x       y       z     vdW  Elec       q    Type
REMARK                         _______ _______ _______ _____ _____    ______ ____
ROOT
ATOM      1  C   LIG    1        0.167   2.502   4.803  0.00  0.00    +0.100 C 
ATOM      2  C   LIG    1       -0.632   2.252   3.550  0.00  0.00    -0.100 A 
ATOM      3  C   LIG    1        0.001   1.805   2.403  0.00  0.00    +0.040 A 
ATOM      4  C   LIG    1       -0.718   1.572   1.248  0.00  0.00    -0.100 A 
ATOM      5  C   LIG    1       -2.091   1.790   1.225  0.00  0.00    +0.130 A 
ATOM      6  N   LIG    1       -3.036   1.630   0.218  0.00  0.00    -0.640 N 
ATOM      7  H   LIG    1       -2.831   1.326  -0.681  0.00  0.00    +0.420 HD
ATOM      8  C   LIG    1       -4.268   1.955   0.644  0.00  0.00    +0.540 C 
ATOM      9  C   LIG    1       -4.166   2.365   2.055  0.00  0.00    -0.070 C 
ATOM     10  N   LIG    1       -5.140   2.759   2.846  0.00  0.00    -0.090 NA
ATOM     11  O   LIG    1       -5.288   1.918  -0.019  0.00  0.00    -0.520 OA
ATOM     12  C   LIG    1       -2.729   2.237   2.389  0.00  0.00    -0.040 A 
ATOM     13  C   LIG    1       -0.013   1.086   0.008  0.00  0.00    +0.090 C 
ATOM     14  C   LIG    1       -1.996   2.469   3.548  0.00  0.00    +0.070 A 
ENDROOT
BRANCH  10  15
ATOM     15  N   LIG    1       -6.349   2.817   2.400  0.00  0.00    -0.460 N 
ATOM     16  H   LIG    1       -6.540   2.570   1.482  0.00  0.00    +0.410 HD
BRANCH  15  17
ATOM     17  C   LIG    1       -7.382   3.235   3.240  0.00  0.00    +0.120 A 
ATOM     18  C   LIG    1       -7.109   3.584   4.558  0.00  0.00    -0.010 A 
ATOM     19  C   LIG    1       -8.129   4.004   5.393  0.00  0.00    +0.010 A 
ATOM     20  C   LIG    1       -9.426   4.070   4.927  0.00  0.00    +0.040 A 
ATOM     21  C   LIG    1       -9.712   3.717   3.605  0.00  0.00    -0.110 A 
ATOM     22  C   LIG    1       -8.683   3.298   2.761  0.00  0.00    +0.030 A 
BRANCH  21  23
ATOM     23  C   LIG    1      -11.099   3.786   3.104  0.00  0.00    +0.520 C 
ATOM     24  O   LIG    1      -11.999   4.153   3.846  0.00  0.00    -0.680 OA
ATOM     25  O   LIG    1      -11.347   3.476   1.948  0.00  0.00    -0.680 OA
ENDBRANCH  21  23
ENDBRANCH  15  17
ENDBRANCH  10  15
TORSDOF 3
