REMARK  Name = ZINCkj000005i5fd.0
REMARK                            x       y       z     vdW  Elec       q    Type
REMARK                         _______ _______ _______ _____ _____    ______ ____
ROOT
ATOM      1  N   LIG    1        3.137   2.185  -1.744  0.00  0.00    -0.730 N 
ATOM      2  H   LIG    1        3.519   2.724  -1.034  0.00  0.00    +0.410 HD
ATOM      3  C   LIG    1        3.838   1.962  -2.873  0.00  0.00    +0.570 C 
ATOM      4  O   LIG    1        3.359   1.287  -3.763  0.00  0.00    -0.520 OA
ENDROOT
BRANCH   3   5
ATOM      5  C   LIG    1        5.191   2.539  -3.029  0.00  0.00    -0.120 A 
ATOM      6  C   LIG    1        5.741   3.319  -2.011  0.00  0.00    +0.000 A 
ATOM      7  C   LIG    1        7.006   3.852  -2.158  0.00  0.00    +0.050 A 
ATOM      8  C   LIG    1        7.727   3.624  -3.315  0.00  0.00    -0.080 A 
ATOM      9  C   LIG    1        7.185   2.854  -4.335  0.00  0.00    +0.120 A 
ATOM     10  C   LIG    1        9.104   4.215  -3.470  0.00  0.00    +0.110 C 
ATOM     11  C   LIG    1        5.920   2.310  -4.196  0.00  0.00    +0.000 A 
BRANCH   9  12
ATOM     12  O   LIG    1        7.898   2.633  -5.471  0.00  0.00    -0.310 OA
ATOM     13  C   LIG    1        7.280   1.832  -6.480  0.00  0.00    +0.250 C 
ENDBRANCH   9  12
ENDBRANCH   3   5
BRANCH   1  14
ATOM     14  C   LIG    1        1.797   1.614  -1.590  0.00  0.00    +0.280 C 
BRANCH  14  15
ATOM     15  C   LIG    1        1.225   2.015  -0.229  0.00  0.00    +0.250 C 
BRANCH  15  16
ATOM     16  N   LIG    1       -0.119   1.443  -0.074  0.00  0.00    -0.380 N 
ATOM     17  C   LIG    1       -0.025  -0.023  -0.039  0.00  0.00    +0.340 C 
ATOM     18  H   LIG    1       -0.696   1.724  -0.852  0.00  0.00    +0.440 HD
BRANCH  16  19
ATOM     19  C   LIG    1       -0.716   1.925   1.179  0.00  0.00    +0.290 C 
BRANCH  19  20
ATOM     20  C   LIG    1       -0.961   3.432   1.080  0.00  0.00    +0.190 C 
BRANCH  20  22
ATOM     21  C   LIG    1       -2.238   5.076  -0.108  0.00  0.00    +0.240 C 
ATOM     22  O   LIG    1       -1.935   3.690   0.067  0.00  0.00    -0.400 OA
ENDBRANCH  20  22
ENDBRANCH  19  20
ENDBRANCH  16  19
ENDBRANCH  15  16
ENDBRANCH  14  15
ENDBRANCH   1  14
TORSDOF 8
