REMARK  Name = ZINCkj000005i5fd.1
REMARK                            x       y       z     vdW  Elec       q    Type
REMARK                         _______ _______ _______ _____ _____    ______ ____
ROOT
ATOM      1  N   LIG    1       -1.407  -1.999   0.131  0.00  0.00    -0.730 N 
ATOM      2  H   LIG    1       -0.564  -2.472   0.047  0.00  0.00    +0.410 HD
ATOM      3  C   LIG    1       -2.559  -2.689   0.239  0.00  0.00    +0.570 C 
ATOM      4  O   LIG    1       -3.615  -2.096   0.344  0.00  0.00    -0.520 OA
ENDROOT
BRANCH   3   5
ATOM      5  C   LIG    1       -2.539  -4.168   0.231  0.00  0.00    -0.120 A 
ATOM      6  C   LIG    1       -1.329  -4.851   0.105  0.00  0.00    +0.000 A 
ATOM      7  C   LIG    1       -1.313  -6.231   0.103  0.00  0.00    +0.050 A 
ATOM      8  C   LIG    1       -2.495  -6.940   0.214  0.00  0.00    -0.080 A 
ATOM      9  C   LIG    1       -3.704  -6.269   0.335  0.00  0.00    +0.120 A 
ATOM     10  C   LIG    1       -2.470  -8.447   0.205  0.00  0.00    +0.110 C 
ATOM     11  C   LIG    1       -3.731  -4.885   0.344  0.00  0.00    +0.000 A 
BRANCH   9  12
ATOM     12  O   LIG    1       -4.863  -6.971   0.444  0.00  0.00    -0.310 OA
ATOM     13  C   LIG    1       -6.070  -6.216   0.565  0.00  0.00    +0.250 C 
ENDBRANCH   9  12
ENDBRANCH   3   5
BRANCH   1  14
ATOM     14  C   LIG    1       -1.427  -0.534   0.139  0.00  0.00    +0.280 C 
BRANCH  14  15
ATOM     15  C   LIG    1        0.002  -0.004   0.002  0.00  0.00    +0.260 C 
BRANCH  15  16
ATOM     16  N   LIG    1       -0.018   1.465   0.010  0.00  0.00    -0.380 N 
ATOM     17  C   LIG    1       -0.728   1.951  -1.180  0.00  0.00    +0.330 C 
ATOM     18  H   LIG    1       -0.490   1.790   0.840  0.00  0.00    +0.440 HD
BRANCH  16  19
ATOM     19  C   LIG    1        1.360   1.973  -0.000  0.00  0.00    +0.290 C 
BRANCH  19  20
ATOM     20  C   LIG    1        1.343   3.497   0.134  0.00  0.00    +0.210 C 
BRANCH  20  22
ATOM     21  C   LIG    1        0.757   5.266   1.641  0.00  0.00    +0.240 C 
ATOM     22  O   LIG    1        0.817   3.857   1.413  0.00  0.00    -0.400 OA
ENDBRANCH  20  22
ENDBRANCH  19  20
ENDBRANCH  16  19
ENDBRANCH  15  16
ENDBRANCH  14  15
ENDBRANCH   1  14
TORSDOF 8
