REMARK  Name = ZINCrD000000Atmu.0
REMARK                            x       y       z     vdW  Elec       q    Type
REMARK                         _______ _______ _______ _____ _____    ______ ____
ROOT
ATOM      1  O   LIG    1        1.239   8.126  -0.677  0.00  0.00    -0.520 OA
ATOM      2  C   LIG    1        1.086   7.355  -1.601  0.00  0.00    +0.530 C 
ATOM      3  N   LIG    1        0.847   6.051  -1.358  0.00  0.00    -0.720 N 
ATOM      4  H   LIG    1        0.725   5.435  -2.097  0.00  0.00    +0.410 HD
ENDROOT
BRANCH   3   5
ATOM      5  C   LIG    1        0.771   5.565   0.022  0.00  0.00    +0.340 C 
BRANCH   5   6
ATOM      6  C   LIG    1        0.496   4.083   0.018  0.00  0.00    -0.100 A 
ATOM      7  C   LIG    1       -0.808   3.624   0.028  0.00  0.00    +0.050 A 
ATOM      8  C   LIG    1       -1.065   2.265   0.019  0.00  0.00    +0.040 A 
ATOM      9  C   LIG    1       -0.016   1.361   0.009  0.00  0.00    +0.040 A 
ATOM     10  O   LIG    1        0.002  -0.004   0.002  0.00  0.00    -0.310 OA
ATOM     11  C   LIG    1        1.336  -0.373   0.399  0.00  0.00    +0.440 C 
ATOM     12  O   LIG    1        2.139   0.749  -0.014  0.00  0.00    -0.310 OA
ATOM     13  C   LIG    1        1.297   1.824  -0.001  0.00  0.00    +0.030 A 
ATOM     14  C   LIG    1        1.548   3.186   0.004  0.00  0.00    +0.060 A 
ENDBRANCH   5   6
ENDBRANCH   3   5
BRANCH   2  15
ATOM     15  C   LIG    1        1.164   7.855  -3.020  0.00  0.00    +0.100 C 
BRANCH  15  16
ATOM     16  S   LIG    1        1.495   9.635  -3.015  0.00  0.00    +0.070 S 
BRANCH  16  17
ATOM     17  C   LIG    1        1.534   9.943  -4.750  0.00  0.00    +0.190 A 
ATOM     18  C   LIG    1        1.772  11.251  -5.246  0.00  0.00    -0.140 A 
ATOM     19  C   LIG    1        1.791  11.430  -6.625  0.00  0.00    +0.100 A 
ATOM     20  S   LIG    1        2.101  13.116  -6.997  0.00  0.00    +0.200 S 
ATOM     21  C   LIG    1        2.198  13.552  -5.291  0.00  0.00    -0.190 A 
ATOM     22  C   LIG    1        2.438  14.802  -4.450  0.00  0.00    +0.130 C 
ATOM     23  C   LIG    1        1.925  14.436  -3.043  0.00  0.00    +0.050 C 
ATOM     24  C   LIG    1        2.098  12.904  -3.041  0.00  0.00    +0.110 C 
ATOM     25  N   LIG    1        1.586  10.371  -7.423  0.00  0.00    -0.490 NA
ATOM     26  C   LIG    1        1.370   9.178  -6.918  0.00  0.00    +0.540 A 
ATOM     27  C   LIG    1        2.009  12.497  -4.511  0.00  0.00    -0.090 A 
ATOM     28  N   LIG    1        1.347   8.957  -5.616  0.00  0.00    -0.540 NA
ENDBRANCH  16  17
ENDBRANCH  15  16
ENDBRANCH   2  15
TORSDOF 5
