REMARK  Name = ZINCpk000000ohYT.0
REMARK                            x       y       z     vdW  Elec       q    Type
REMARK                         _______ _______ _______ _____ _____    ______ ____
ROOT
ATOM      1  N   LIG    1       -4.905   3.520   4.773  0.00  0.00    -0.540 N 
ATOM      2  C   LIG    1       -4.074   3.019   5.705  0.00  0.00    +0.710 A 
ATOM      3  N   LIG    1       -2.893   2.473   5.365  0.00  0.00    -0.660 N 
ATOM      4  H   LIG    1       -2.312   2.118   6.056  0.00  0.00    +0.430 HD
ATOM      5  C   LIG    1       -2.507   2.413   4.075  0.00  0.00    +0.570 A 
ATOM      6  C   LIG    1       -3.352   2.928   3.074  0.00  0.00    -0.160 A 
ATOM      7  O   LIG    1       -1.435   1.916   3.778  0.00  0.00    -0.520 OA
ATOM      8  O   LIG    1       -4.397   3.060   6.877  0.00  0.00    -0.530 OA
ATOM      9  C   LIG    1       -4.557   3.490   3.442  0.00  0.00    +0.500 A 
ENDROOT
BRANCH   6  10
ATOM     10  N   LIG    1       -2.969   2.877   1.716  0.00  0.00    -0.530 N 
ATOM     11  C   LIG    1       -2.712   4.019   1.044  0.00  0.00    +0.510 C 
ATOM     12  O   LIG    1       -2.891   5.092   1.581  0.00  0.00    -0.520 OA
ATOM     13  C   LIG    1       -2.850   1.585   1.037  0.00  0.00    +0.300 C 
BRANCH  11  14
ATOM     14  C   LIG    1       -2.203   3.961  -0.373  0.00  0.00    +0.110 C 
BRANCH  14  15
ATOM     15  C   LIG    1       -1.999   5.361  -0.891  0.00  0.00    -0.070 A 
ATOM     16  C   LIG    1       -2.992   5.977  -1.629  0.00  0.00    +0.020 A 
ATOM     17  C   LIG    1       -2.802   7.259  -2.109  0.00  0.00    -0.010 A 
ATOM     18  C   LIG    1       -1.618   7.925  -1.852  0.00  0.00    +0.010 A 
ATOM     19  C   LIG    1       -0.625   7.309  -1.114  0.00  0.00    +0.000 A 
ATOM     20  C   LIG    1       -0.815   6.027  -0.634  0.00  0.00    -0.070 A 
ATOM     21  C   LIG    1        0.268   5.355   0.170  0.00  0.00    +0.080 C 
ENDBRANCH  14  15
ENDBRANCH  11  14
ENDBRANCH   6  10
BRANCH   9  22
ATOM     22  N   LIG    1       -5.403   4.008   2.491  0.00  0.00    -0.820 N 
ATOM     23  H   LIG    1       -6.277   4.340   2.748  0.00  0.00    +0.410 HD
ATOM     24  H   LIG    1       -5.125   4.041   1.562  0.00  0.00    +0.420 HD
ENDBRANCH   9  22
BRANCH   1  25
ATOM     25  C   LIG    1       -6.184   4.107   5.178  0.00  0.00    +0.300 C 
BRANCH  25  26
ATOM     26  C   LIG    1       -5.997   5.601   5.448  0.00  0.00    +0.010 C 
BRANCH  26  28
ATOM     27  C   LIG    1       -7.145   7.709   6.142  0.00  0.00    +0.030 C 
ATOM     28  C   LIG    1       -7.333   6.215   5.871  0.00  0.00    +0.010 C 
ENDBRANCH  26  28
ENDBRANCH  25  26
ENDBRANCH   1  25
TORSDOF 7
