REMARK  Name = ZINCrD00000hQ71l.0
REMARK                            x       y       z     vdW  Elec       q    Type
REMARK                         _______ _______ _______ _____ _____    ______ ____
ROOT
ATOM      1  C   LIG    1        3.693   2.666  -2.199  0.00  0.00    +0.320 A 
ATOM      2  N   LIG    1        4.600   1.752  -1.914  0.00  0.00    -0.510 NA
ATOM      3  C   LIG    1        4.264   0.644  -1.277  0.00  0.00    +0.330 A 
ATOM      4  C   LIG    1        2.938   0.447  -0.906  0.00  0.00    -0.180 A 
ATOM      5  C   LIG    1        2.573  -0.824  -0.191  0.00  0.00    +0.100 C 
ATOM      6  C   LIG    1        1.240  -0.668   0.542  0.00  0.00    +0.300 C 
ATOM      7  N   LIG    1        0.280  -0.049  -0.386  0.00  0.00    -0.620 N 
ATOM      8  C   LIG    1        0.565   1.316  -0.844  0.00  0.00    +0.360 C 
ATOM      9  C   LIG    1       -0.819  -0.711  -0.799  0.00  0.00    +0.600 C 
ATOM     10  O   LIG    1       -0.972  -1.881  -0.505  0.00  0.00    -0.510 OA
ATOM     11  C   LIG    1        2.021   1.428  -1.214  0.00  0.00    +0.160 A 
ATOM     12  N   LIG    1        2.430   2.514  -1.859  0.00  0.00    -0.510 NA
ENDROOT
BRANCH   9  13
ATOM     13  C   LIG    1       -1.833  -0.018  -1.606  0.00  0.00    +0.000 A 
ATOM     14  C   LIG    1       -2.777  -0.623  -2.375  0.00  0.00    +0.080 A 
ATOM     15  C   LIG    1       -3.552   0.391  -2.984  0.00  0.00    -0.130 A 
ATOM     16  C   LIG    1       -4.647   0.370  -3.866  0.00  0.00    +0.170 A 
ATOM     17  C   LIG    1       -5.200   1.560  -4.293  0.00  0.00    -0.090 A 
ATOM     18  C   LIG    1       -4.682   2.772  -3.860  0.00  0.00    +0.100 A 
ATOM     19  C   LIG    1       -3.609   2.810  -2.997  0.00  0.00    -0.030 A 
ATOM     20  C   LIG    1       -3.032   1.625  -2.549  0.00  0.00    +0.150 A 
ATOM     21  N   LIG    1       -1.984   1.353  -1.701  0.00  0.00    -0.580 N 
ATOM     22  H   LIG    1       -1.438   2.014  -1.246  0.00  0.00    +0.420 HD
BRANCH  16  23
ATOM     23  O   LIG    1       -5.157  -0.813  -4.293  0.00  0.00    -0.310 OA
BRANCH  23  24
ATOM     24  C   LIG    1       -6.270  -0.754  -5.188  0.00  0.00    +0.590 C 
ATOM     25  F   LIG    1       -5.900  -0.064  -6.347  0.00  0.00    -0.200 F 
ATOM     26  F   LIG    1       -7.332  -0.089  -4.567  0.00  0.00    -0.200 F 
ENDBRANCH  23  24
ENDBRANCH  16  23
ENDBRANCH   9  13
BRANCH   1  28
ATOM     27  C   LIG    1        3.994   3.685  -4.439  0.00  0.00    +0.050 C 
ATOM     28  C   LIG    1        4.113   3.914  -2.931  0.00  0.00    +0.120 C 
ENDBRANCH   1  28
TORSDOF 4
