REMARK  Name = ZINCrH000004rsRl.0
REMARK                            x       y       z     vdW  Elec       q    Type
REMARK                         _______ _______ _______ _____ _____    ______ ____
ROOT
ATOM      1  N   LIG    1        4.490   0.411  -1.389  0.00  0.00    -0.610 N 
ATOM      2  C   LIG    1        4.204  -0.905  -1.346  0.00  0.00    +0.560 C 
ATOM      3  O   LIG    1        3.848  -1.416  -0.302  0.00  0.00    -0.500 OA
ATOM      4  C   LIG    1        4.771   1.058  -2.674  0.00  0.00    +0.290 C 
ENDROOT
BRANCH   2   5
ATOM      5  C   LIG    1        4.323  -1.728  -2.569  0.00  0.00    -0.000 A 
ATOM      6  C   LIG    1        3.618  -2.945  -2.700  0.00  0.00    -0.190 A 
ATOM      7  C   LIG    1        2.729  -3.656  -1.866  0.00  0.00    +0.290 A 
ATOM      8  N   LIG    1        2.362  -4.743  -2.483  0.00  0.00    -0.230 NA
ATOM      9  N   LIG    1        2.979  -4.808  -3.737  0.00  0.00    -0.380 N 
ATOM     10  C   LIG    1        3.764  -3.694  -3.885  0.00  0.00    +0.310 A 
ATOM     11  N   LIG    1        4.553  -3.257  -4.857  0.00  0.00    -0.490 NA
ATOM     12  C   LIG    1        5.219  -2.128  -4.758  0.00  0.00    +0.190 A 
ATOM     13  C   LIG    1        6.098  -1.692  -5.903  0.00  0.00    +0.140 C 
ATOM     14  C   LIG    1        5.129  -1.326  -3.631  0.00  0.00    -0.040 A 
BRANCH   9  15
ATOM     15  C   LIG    1        2.814  -5.879  -4.722  0.00  0.00    +0.270 C 
ATOM     16  C   LIG    1        1.341  -5.981  -5.123  0.00  0.00    +0.050 C 
ATOM     17  C   LIG    1        3.269  -7.207  -4.113  0.00  0.00    +0.050 C 
ENDBRANCH   9  15
ENDBRANCH   2   5
BRANCH   1  18
ATOM     18  C   LIG    1        4.520   1.196  -0.152  0.00  0.00    +0.320 C 
BRANCH  18  19
ATOM     19  C   LIG    1        3.128   1.768   0.122  0.00  0.00    +0.170 C 
BRANCH  19  20
ATOM     20  O   LIG    1        2.214   0.699   0.375  0.00  0.00    -0.290 OA
BRANCH  20  25
ATOM     21  C   LIG    1       -3.129   2.105   1.467  0.00  0.00    +0.090 C 
ATOM     22  C   LIG    1       -1.699   1.728   1.175  0.00  0.00    -0.130 A 
ATOM     23  C   LIG    1       -1.326   0.397   1.155  0.00  0.00    +0.050 A 
ATOM     24  C   LIG    1       -0.015   0.050   0.893  0.00  0.00    -0.020 A 
ATOM     25  C   LIG    1        0.925   1.038   0.639  0.00  0.00    +0.130 A 
ATOM     26  C   LIG    1        0.547   2.373   0.654  0.00  0.00    -0.090 A 
ATOM     27  C   LIG    1       -0.764   2.715   0.923  0.00  0.00    +0.040 A 
ENDBRANCH  20  25
ENDBRANCH  19  20
ENDBRANCH  18  19
ENDBRANCH   1  18
TORSDOF 6
