REMARK  Name = ZINCpk00000xIhnk.0
REMARK                            x       y       z     vdW  Elec       q    Type
REMARK                         _______ _______ _______ _____ _____    ______ ____
ROOT
ATOM      1  C   LIG    1        6.556   2.661  -0.853  0.00  0.00    +0.510 C 
ATOM      2  N   LIG    1        5.947   3.082   0.273  0.00  0.00    -0.600 N 
ATOM      3  C   LIG    1        6.412   2.608   1.579  0.00  0.00    +0.300 C 
ATOM      4  O   LIG    1        6.170   3.053  -1.934  0.00  0.00    -0.490 OA
ENDROOT
BRANCH   1   5
ATOM      5  C   LIG    1        7.716   1.703  -0.770  0.00  0.00    +0.270 C 
BRANCH   5   6
ATOM      6  N   LIG    1        8.491   1.765  -2.011  0.00  0.00    -0.740 N 
ATOM      7  H   LIG    1        9.426   2.022  -1.986  0.00  0.00    +0.400 HD
ATOM      8  C   LIG    1        7.906   1.466  -3.187  0.00  0.00    +0.710 C 
ATOM      9  O   LIG    1        6.734   1.143  -3.218  0.00  0.00    -0.560 OA
ATOM     10  N   LIG    1        8.619   1.523  -4.329  0.00  0.00    -0.870 N 
ATOM     11  H   LIG    1        8.198   1.308  -5.176  0.00  0.00    +0.420 HD
ATOM     12  H   LIG    1        9.554   1.780  -4.304  0.00  0.00    +0.390 HD
ENDBRANCH   5   6
BRANCH   5  13
ATOM     13  C   LIG    1        7.189   0.281  -0.569  0.00  0.00    +0.080 C 
BRANCH  13  14
ATOM     14  C   LIG    1        8.366  -0.674  -0.359  0.00  0.00    +0.080 C 
BRANCH  14  16
ATOM     15  C   LIG    1        9.258  -3.329   0.108  0.00  0.00    +0.140 C 
ATOM     16  S   LIG    1        7.741  -2.361  -0.120  0.00  0.00    -0.250 S 
ENDBRANCH  14  16
ENDBRANCH  13  14
ENDBRANCH   5  13
ENDBRANCH   1   5
BRANCH   2  17
ATOM     17  C   LIG    1        4.819   4.013   0.191  0.00  0.00    +0.330 C 
BRANCH  17  18
ATOM     18  C   LIG    1        3.532   3.236   0.086  0.00  0.00    +0.490 C 
ATOM     19  N   LIG    1        2.356   3.889  -0.001  0.00  0.00    -0.670 N 
ATOM     20  H   LIG    1        2.341   4.857  -0.061  0.00  0.00    +0.410 HD
ATOM     21  O   LIG    1        3.554   2.023   0.080  0.00  0.00    -0.500 OA
BRANCH  19  22
ATOM     22  C   LIG    1        1.155   3.170  -0.003  0.00  0.00    +0.150 A 
ATOM     23  C   LIG    1        1.091   1.924  -0.614  0.00  0.00    +0.020 A 
ATOM     24  C   LIG    1       -0.095   1.217  -0.615  0.00  0.00    +0.030 A 
ATOM     25  C   LIG    1       -1.220   1.751  -0.013  0.00  0.00    -0.010 A 
ATOM     26  C   LIG    1       -1.158   2.988   0.601  0.00  0.00    -0.070 A 
ATOM     27  C   LIG    1       -2.385   3.563   1.261  0.00  0.00    +0.090 C 
ATOM     28  C   LIG    1        0.025   3.700   0.605  0.00  0.00    -0.110 A 
ATOM     29  C   LIG    1        0.090   5.051   1.270  0.00  0.00    +0.090 C 
ENDBRANCH  19  22
ENDBRANCH  17  18
ENDBRANCH   2  17
TORSDOF 8
