REMARK  Name = ZINCrH000004qfvp.0
REMARK                            x       y       z     vdW  Elec       q    Type
REMARK                         _______ _______ _______ _____ _____    ______ ____
ROOT
ATOM      1  C   LIG    1       -0.944  -1.440  -0.099  0.00  0.00    +0.430 C 
ENDROOT
BRANCH   1   2
ATOM      2  C   LIG    1        0.416  -0.793  -0.157  0.00  0.00    +0.170 A 
ATOM      3  N   LIG    1        1.569  -1.410  -0.238  0.00  0.00    -0.450 NA
ATOM      4  C   LIG    1        2.503  -0.432  -0.264  0.00  0.00    +0.210 A 
ATOM      5  N   LIG    1        1.869   0.709  -0.198  0.00  0.00    -0.360 NA
ATOM      6  O   LIG    1        0.672   0.519  -0.137  0.00  0.00    +0.100 OA
BRANCH   4   7
ATOM      7  C   LIG    1        3.972  -0.620  -0.350  0.00  0.00    -0.030 A 
ATOM      8  C   LIG    1        4.510  -1.904  -0.414  0.00  0.00    +0.110 A 
ATOM      9  C   LIG    1        5.878  -2.073  -0.494  0.00  0.00    +0.030 A 
ATOM     10  C   LIG    1        6.714  -0.971  -0.512  0.00  0.00    +0.100 A 
ATOM     11  C   LIG    1        6.185   0.306  -0.449  0.00  0.00    -0.180 A 
ATOM     12  C   LIG    1        4.819   0.486  -0.374  0.00  0.00    +0.110 A 
BRANCH  11  13
ATOM     13  C   LIG    1        7.101   1.502  -0.468  0.00  0.00    +0.510 C 
ATOM     14  F   LIG    1        6.926   2.243   0.705  0.00  0.00    -0.170 F 
ATOM     15  F   LIG    1        6.800   2.303  -1.575  0.00  0.00    -0.170 F 
ATOM     16  F   LIG    1        8.429   1.070  -0.553  0.00  0.00    -0.170 F 
ENDBRANCH  11  13
ENDBRANCH   4   7
ENDBRANCH   1   2
BRANCH   1  17
ATOM     17  N   LIG    1       -1.307  -1.687   1.299  0.00  0.00    -0.750 N 
ATOM     18  H   LIG    1       -0.697  -1.435   2.010  0.00  0.00    +0.410 HD
BRANCH  17  21
ATOM     19  C   LIG    1       -1.926  -2.138   4.037  0.00  0.00    +0.110 C 
ATOM     20  C   LIG    1       -2.874  -2.522   2.930  0.00  0.00    -0.090 A 
ATOM     21  C   LIG    1       -2.532  -2.284   1.608  0.00  0.00    +0.210 A 
ATOM     22  C   LIG    1       -3.406  -2.644   0.588  0.00  0.00    -0.040 A 
ATOM     23  C   LIG    1       -4.619  -3.235   0.888  0.00  0.00    +0.050 A 
ATOM     24  C   LIG    1       -4.971  -3.471   2.202  0.00  0.00    -0.010 A 
ATOM     25  C   LIG    1       -4.100  -3.113   3.233  0.00  0.00    -0.100 A 
BRANCH  25  26
ATOM     26  C   LIG    1       -4.475  -3.365   4.641  0.00  0.00    +0.560 C 
ATOM     27  O   LIG    1       -3.769  -2.952   5.540  0.00  0.00    -0.530 OA
ATOM     28  N   LIG    1       -5.598  -4.052   4.927  0.00  0.00    -0.850 N 
ATOM     29  H   LIG    1       -5.844  -4.218   5.850  0.00  0.00    +0.410 HD
ATOM     30  H   LIG    1       -6.161  -4.382   4.209  0.00  0.00    +0.400 HD
ENDBRANCH  25  26
ENDBRANCH  17  21
ENDBRANCH   1  17
TORSDOF 6
