REMARK  Name = ZINCpk00000Fe8Fx.0
REMARK                            x       y       z     vdW  Elec       q    Type
REMARK                         _______ _______ _______ _____ _____    ______ ____
ROOT
ATOM      1  C   LIG    1       -1.842   6.423   1.054  0.00  0.00    +0.230 C 
ENDROOT
BRANCH   1   2
ATOM      2  O   LIG    1       -3.264   6.501   1.173  0.00  0.00    -0.540 OA
ATOM      3  H   LIG    1       -3.587   6.437   2.082  0.00  0.00    +0.370 HD
ENDBRANCH   1   2
BRANCH   1   4
ATOM      4  C   LIG    1       -1.356   5.085   1.614  0.00  0.00    +0.130 C 
BRANCH   4   7
ATOM      5  C   LIG    1       -1.234   2.184   0.020  0.00  0.00    +0.080 C 
ATOM      6  C   LIG    1       -0.932   3.657  -0.309  0.00  0.00    +0.190 C 
ATOM      7  N   LIG    1       -1.875   3.990   0.785  0.00  0.00    -0.460 NA
ATOM      8  C   LIG    1       -1.629   2.678   1.424  0.00  0.00    +0.190 C 
BRANCH   5  11
ATOM      9  C   LIG    1        2.036   0.556  -0.014  0.00  0.00    -0.030 A 
ATOM     10  C   LIG    1        1.335   1.715  -0.002  0.00  0.00    -0.040 A 
ATOM     11  C   LIG    1       -0.016   1.298   0.009  0.00  0.00    +0.020 A 
ATOM     12  N   LIG    1        0.002  -0.004   0.002  0.00  0.00    -0.350 NA
ATOM     13  O   LIG    1        1.132  -0.434  -0.011  0.00  0.00    +0.110 OA
BRANCH   9  14
ATOM     14  C   LIG    1        3.536   0.408  -0.029  0.00  0.00    +0.320 C 
BRANCH  14  15
ATOM     15  O   LIG    1        4.022   0.354   1.313  0.00  0.00    -0.570 OA
ATOM     16  H   LIG    1        4.982   0.260   1.381  0.00  0.00    +0.390 HD
ENDBRANCH  14  15
ENDBRANCH   9  14
ENDBRANCH   5  11
ENDBRANCH   4   7
ENDBRANCH   1   4
BRANCH   1  17
ATOM     17  C   LIG    1       -1.202   7.569   1.841  0.00  0.00    +0.170 C 
BRANCH  17  18
ATOM     18  O   LIG    1       -1.564   8.816   1.246  0.00  0.00    -0.300 OA
BRANCH  18  19
ATOM     19  C   LIG    1       -1.074   9.942   1.828  0.00  0.00    +0.180 A 
ATOM     20  C   LIG    1       -1.386  11.201   1.301  0.00  0.00    -0.140 A 
ATOM     21  C   LIG    1       -2.189  11.657   0.164  0.00  0.00    -0.030 A 
ATOM     22  C   LIG    1       -2.123  12.997   0.149  0.00  0.00    +0.210 A 
ATOM     23  N   LIG    1       -1.342  13.437   1.184  0.00  0.00    -0.590 N 
ATOM     24  H   LIG    1       -1.146  14.367   1.379  0.00  0.00    +0.420 HD
ATOM     25  C   LIG    1       -0.876  12.362   1.908  0.00  0.00    +0.130 A 
ATOM     26  C   LIG    1       -0.063  12.246   3.031  0.00  0.00    -0.050 A 
ATOM     27  C   LIG    1        0.237  11.001   3.540  0.00  0.00    +0.070 A 
ATOM     28  C   LIG    1       -0.270   9.853   2.948  0.00  0.00    -0.120 A 
ENDBRANCH  18  19
ENDBRANCH  17  18
ENDBRANCH   1  17
TORSDOF 9
