REMARK  Name = ZINCtV00000nQTiJ.0
REMARK                            x       y       z     vdW  Elec       q    Type
REMARK                         _______ _______ _______ _____ _____    ______ ____
ROOT
ATOM      1  C   LIG    1       -1.374   2.035   0.061  0.00  0.00    +0.290 C 
ENDROOT
BRANCH   1   2
ATOM      2  C   LIG    1       -0.047   1.322   0.040  0.00  0.00    -0.090 A 
ATOM      3  C   LIG    1        1.126   2.050  -0.034  0.00  0.00    +0.040 A 
ATOM      4  C   LIG    1        2.344   1.398  -0.060  0.00  0.00    +0.010 A 
ATOM      5  C   LIG    1        2.389   0.012  -0.010  0.00  0.00    +0.090 A 
ATOM      6  C   LIG    1        1.210  -0.716   0.064  0.00  0.00    +0.000 A 
ATOM      7  C   LIG    1       -0.005  -0.059   0.089  0.00  0.00    +0.040 A 
BRANCH   5   8
ATOM      8  O   LIG    1        3.586  -0.632  -0.034  0.00  0.00    -0.260 OA
BRANCH   8   9
ATOM      9  C   LIG    1        3.885  -1.380  -1.128  0.00  0.00    +0.120 A 
ATOM     10  C   LIG    1        3.039  -1.375  -2.227  0.00  0.00    -0.060 A 
ATOM     11  C   LIG    1        3.349  -2.133  -3.340  0.00  0.00    +0.050 A 
ATOM     12  C   LIG    1        4.496  -2.905  -3.354  0.00  0.00    -0.020 A 
ATOM     13  C   LIG    1        5.338  -2.916  -2.258  0.00  0.00    +0.050 A 
ATOM     14  C   LIG    1        5.036  -2.156  -1.145  0.00  0.00    -0.020 A 
ENDBRANCH   8   9
ENDBRANCH   5   8
ENDBRANCH   1   2
BRANCH   1  15
ATOM     15  N   LIG    1       -1.273   3.230   0.903  0.00  0.00    -0.740 N 
ATOM     16  H   LIG    1       -0.412   3.654   1.042  0.00  0.00    +0.400 HD
BRANCH  15  17
ATOM     17  C   LIG    1       -2.426   3.764   1.510  0.00  0.00    +0.070 A 
ATOM     18  C   LIG    1       -3.687   3.273   1.400  0.00  0.00    +0.140 A 
ATOM     19  N   LIG    1       -4.504   4.073   2.136  0.00  0.00    -0.380 N 
ATOM     20  N   LIG    1       -3.716   5.080   2.709  0.00  0.00    -0.270 NA
ATOM     21  C   LIG    1       -5.950   3.911   2.299  0.00  0.00    +0.350 C 
ATOM     22  C   LIG    1       -2.475   4.893   2.340  0.00  0.00    +0.050 A 
BRANCH  22  23
ATOM     23  C   LIG    1       -1.299   5.747   2.737  0.00  0.00    +0.070 C 
ATOM     24  C   LIG    1       -1.177   5.797   4.274  0.00  0.00    +0.020 C 
ATOM     25  C   LIG    1       -0.723   7.248   4.572  0.00  0.00    +0.020 C 
ATOM     26  C   LIG    1       -1.519   8.075   3.532  0.00  0.00    +0.010 C 
ATOM     27  C   LIG    1       -1.516   7.195   2.265  0.00  0.00    +0.020 C 
ENDBRANCH  22  23
ENDBRANCH  15  17
ENDBRANCH   1  15
BRANCH   1  28
ATOM     28  C   LIG    1       -1.756   2.445  -1.363  0.00  0.00    +0.010 C 
BRANCH  28  30
ATOM     29  C   LIG    1       -3.540   3.467  -2.782  0.00  0.00    +0.000 C 
ATOM     30  C   LIG    1       -3.158   3.058  -1.359  0.00  0.00    +0.010 C 
ENDBRANCH  28  30
ENDBRANCH   1  28
TORSDOF 8
