REMARK  Name = ZINCkj000005hlCs.0
REMARK                            x       y       z     vdW  Elec       q    Type
REMARK                         _______ _______ _______ _____ _____    ______ ____
ROOT
ATOM      1  N   LIG    1       -4.327  -1.710  -0.230  0.00  0.00    -0.750 N 
ATOM      2  H   LIG    1       -3.994  -1.742   0.680  0.00  0.00    +0.400 HD
ATOM      3  C   LIG    1       -5.420  -2.420  -0.573  0.00  0.00    +0.700 C 
ATOM      4  N   LIG    1       -6.050  -3.175   0.349  0.00  0.00    -0.740 N 
ATOM      5  H   LIG    1       -5.716  -3.207   1.260  0.00  0.00    +0.400 HD
ATOM      6  O   LIG    1       -5.838  -2.381  -1.714  0.00  0.00    -0.580 OA
ENDROOT
BRANCH   1   7
ATOM      7  C   LIG    1       -3.642  -0.890  -1.233  0.00  0.00    +0.300 C 
BRANCH   7  14
ATOM      8  C   LIG    1        0.245   1.920  -2.196  0.00  0.00    +0.320 C 
ATOM      9  N   LIG    1       -0.725   1.571  -1.149  0.00  0.00    -0.380 N 
ATOM     10  C   LIG    1       -0.013   1.086   0.008  0.00  0.00    +0.240 C 
ATOM     11  C   LIG    1       -0.748   1.589   1.261  0.00  0.00    +0.050 C 
ATOM     12  C   LIG    1       -1.874   0.745   1.641  0.00  0.00    +0.030 C 
ATOM     13  C   LIG    1       -2.940   0.699   0.518  0.00  0.00    +0.030 C 
ATOM     14  C   LIG    1       -2.442  -0.193  -0.588  0.00  0.00    -0.020 C 
ATOM     15  C   LIG    1       -1.665   0.562  -1.682  0.00  0.00    +0.260 C 
ATOM     16  H   LIG    1       -1.242   2.399  -0.893  0.00  0.00    +0.420 HD
ENDBRANCH   7  14
ENDBRANCH   1   7
BRANCH   4  17
ATOM     17  C   LIG    1       -7.237  -3.947  -0.023  0.00  0.00    +0.330 C 
BRANCH  17  18
ATOM     18  C   LIG    1       -7.746  -4.698   1.181  0.00  0.00    -0.140 C 
ATOM     19  C   LIG    1       -8.687  -4.162   1.900  0.00  0.00    -0.040 C 
ATOM     20  C   LIG    1       -9.259  -4.827   3.120  0.00  0.00    +0.260 C 
ATOM     21  O   LIG    1       -8.893  -6.207   3.147  0.00  0.00    -0.370 OA
ATOM     22  C   LIG    1       -7.489  -6.418   2.948  0.00  0.00    +0.210 C 
ATOM     23  C   LIG    1       -7.142  -6.036   1.507  0.00  0.00    +0.050 C 
ENDBRANCH  17  18
ENDBRANCH   4  17
TORSDOF 4
