REMARK  Name = ZINCkj000005hlCs.1
REMARK                            x       y       z     vdW  Elec       q    Type
REMARK                         _______ _______ _______ _____ _____    ______ ____
ROOT
ATOM      1  N   LIG    1       -0.375   2.505   3.475  0.00  0.00    -0.750 N 
ATOM      2  H   LIG    1       -1.338   2.624   3.465  0.00  0.00    +0.400 HD
ATOM      3  C   LIG    1        0.339   2.883   4.554  0.00  0.00    +0.700 C 
ATOM      4  N   LIG    1       -0.284   3.426   5.619  0.00  0.00    -0.740 N 
ATOM      5  H   LIG    1       -1.247   3.545   5.608  0.00  0.00    +0.400 HD
ATOM      6  O   LIG    1        1.546   2.733   4.567  0.00  0.00    -0.580 OA
ENDROOT
BRANCH   1   7
ATOM      7  C   LIG    1        0.302   1.914   2.318  0.00  0.00    +0.300 C 
BRANCH   7  14
ATOM      8  C   LIG    1        0.198   1.639  -2.311  0.00  0.00    +0.330 C 
ATOM      9  N   LIG    1       -0.737   1.580  -1.179  0.00  0.00    -0.370 N 
ATOM     10  C   LIG    1       -1.824   0.780  -1.537  0.00  0.00    +0.220 C 
ATOM     11  C   LIG    1       -2.902   0.743  -0.434  0.00  0.00    +0.060 C 
ATOM     12  C   LIG    1       -2.461  -0.204   0.653  0.00  0.00    +0.020 C 
ATOM     13  C   LIG    1       -1.703   0.516   1.787  0.00  0.00    +0.050 C 
ATOM     14  C   LIG    1       -0.730   1.578   1.240  0.00  0.00    -0.040 C 
ATOM     15  C   LIG    1       -0.013   1.086   0.008  0.00  0.00    +0.280 C 
ATOM     16  H   LIG    1       -1.073   2.512  -0.989  0.00  0.00    +0.420 HD
ENDBRANCH   7  14
ENDBRANCH   1   7
BRANCH   4  17
ATOM     17  C   LIG    1        0.492   3.836   6.791  0.00  0.00    +0.330 C 
BRANCH  17  18
ATOM     18  C   LIG    1       -0.435   4.409   7.832  0.00  0.00    -0.140 C 
ATOM     19  C   LIG    1       -0.875   3.628   8.774  0.00  0.00    -0.040 C 
ATOM     20  C   LIG    1       -1.809   4.098   9.853  0.00  0.00    +0.260 C 
ATOM     21  O   LIG    1       -1.830   5.527   9.897  0.00  0.00    -0.370 OA
ATOM     22  C   LIG    1       -2.048   6.123   8.612  0.00  0.00    +0.210 C 
ATOM     23  C   LIG    1       -0.811   5.862   7.746  0.00  0.00    +0.050 C 
ENDBRANCH  17  18
ENDBRANCH   4  17
TORSDOF 4
