REMARK  Name = ZINCpe00000ys8P0.0
REMARK                            x       y       z     vdW  Elec       q    Type
REMARK                         _______ _______ _______ _____ _____    ______ ____
ROOT
ATOM      1  C   LIG    1       -1.422   2.759   0.706  0.00  0.00    +0.220 C 
ATOM      2  C   LIG    1       -1.876   2.372  -0.724  0.00  0.00    +0.070 C 
ATOM      3  C   LIG    1       -0.682   1.545  -1.254  0.00  0.00    +0.150 C 
ATOM      4  C   LIG    1        0.056   1.051   0.005  0.00  0.00    +0.190 C 
ATOM      5  N   LIG    1       -0.698   1.548   1.177  0.00  0.00    -0.470 NA
ENDROOT
BRANCH   1  12
ATOM      6  N   LIG    1       -3.595   3.968   1.325  0.00  0.00    -0.550 N 
ATOM      7  C   LIG    1       -4.488   3.932   2.335  0.00  0.00    +0.650 A 
ATOM      8  N   LIG    1       -4.068   2.997   3.212  0.00  0.00    -0.550 N 
ATOM      9  H   LIG    1       -4.508   2.746   4.040  0.00  0.00    +0.460 HD
ATOM     10  N   LIG    1       -2.881   2.451   2.703  0.00  0.00    -0.250 NA
ATOM     11  O   LIG    1       -5.489   4.618   2.436  0.00  0.00    -0.550 OA
ATOM     12  C   LIG    1       -2.613   3.043   1.584  0.00  0.00    +0.280 A 
BRANCH   6  14
ATOM     13  C   LIG    1       -4.442   4.145  -0.962  0.00  0.00    +0.040 C 
ATOM     14  C   LIG    1       -3.661   4.843   0.153  0.00  0.00    +0.310 C 
ENDBRANCH   6  14
ENDBRANCH   1  12
BRANCH   3  15
ATOM     15  O   LIG    1       -1.147   0.435  -2.023  0.00  0.00    -0.370 OA
ATOM     16  C   LIG    1       -0.226  -0.007  -3.022  0.00  0.00    +0.210 C 
ENDBRANCH   3  15
BRANCH   5  17
ATOM     17  C   LIG    1        0.209   1.869   2.288  0.00  0.00    +0.350 C 
BRANCH  17  18
ATOM     18  C   LIG    1        1.107   3.011   1.889  0.00  0.00    +0.230 A 
ATOM     19  N   LIG    1        2.213   2.913   1.197  0.00  0.00    -0.530 NA
ATOM     20  C   LIG    1        2.748   4.122   1.026  0.00  0.00    +0.420 A 
ATOM     21  N   LIG    1        1.991   5.008   1.617  0.00  0.00    -0.310 NA
ATOM     22  N   LIG    1        0.915   4.308   2.186  0.00  0.00    -0.370 N 
BRANCH  22  23
ATOM     23  C   LIG    1       -0.196   4.877   2.953  0.00  0.00    +0.310 C 
BRANCH  23  24
ATOM     24  C   LIG    1        0.220   5.029   4.418  0.00  0.00    -0.030 C 
ATOM     25  C   LIG    1       -0.978   5.506   5.241  0.00  0.00    +0.040 C 
ATOM     26  C   LIG    1        1.351   6.054   4.522  0.00  0.00    +0.030 C 
ENDBRANCH  23  24
ENDBRANCH  22  23
ENDBRANCH  17  18
ENDBRANCH   5  17
TORSDOF 7
