REMARK  Name = ZINCtV000002q50Z.0
REMARK                            x       y       z     vdW  Elec       q    Type
REMARK                         _______ _______ _______ _____ _____    ______ ____
ROOT
ATOM      1  C   LIG    1       -3.573  -2.136  -0.125  0.00  0.00    +0.300 C 
ATOM      2  C   LIG    1       -3.913  -1.666  -1.541  0.00  0.00    +0.040 C 
ENDROOT
BRANCH   1   3
ATOM      3  C   LIG    1       -2.238  -2.835  -0.135  0.00  0.00    -0.080 A 
ATOM      4  C   LIG    1       -2.179  -4.210  -0.256  0.00  0.00    +0.030 A 
ATOM      5  C   LIG    1       -0.953  -4.854  -0.259  0.00  0.00    +0.080 A 
ATOM      6  C   LIG    1        0.215  -4.120  -0.147  0.00  0.00    +0.030 A 
ATOM      7  C   LIG    1        0.160  -2.744  -0.031  0.00  0.00    -0.020 A 
ATOM      8  F   LIG    1       -0.897  -6.199  -0.372  0.00  0.00    -0.130 F 
ATOM      9  C   LIG    1       -1.067  -2.098  -0.028  0.00  0.00    +0.120 A 
BRANCH   9  10
ATOM     10  O   LIG    1       -1.124  -0.745   0.086  0.00  0.00    -0.250 OA
BRANCH  10  11
ATOM     11  C   LIG    1        0.047  -0.056   0.085  0.00  0.00    +0.110 A 
ATOM     12  C   LIG    1        0.449   0.634   1.220  0.00  0.00    +0.010 A 
ATOM     13  C   LIG    1        1.639   1.335   1.217  0.00  0.00    +0.080 A 
ATOM     14  C   LIG    1        2.432   1.351   0.085  0.00  0.00    -0.010 A 
ATOM     15  C   LIG    1        2.034   0.663  -1.050  0.00  0.00    +0.120 A 
ATOM     16  F   LIG    1        2.810   0.680  -2.156  0.00  0.00    -0.130 F 
ATOM     17  C   LIG    1        0.843  -0.040  -1.052  0.00  0.00    -0.040 A 
ENDBRANCH  10  11
ENDBRANCH   9  10
ENDBRANCH   1   3
BRANCH   1  18
ATOM     18  N   LIG    1       -4.607  -3.063   0.343  0.00  0.00    -0.740 N 
ATOM     19  H   LIG    1       -4.481  -4.019   0.244  0.00  0.00    +0.400 HD
BRANCH  18  22
ATOM     20  C   LIG    1       -7.910  -2.951   1.958  0.00  0.00    +0.190 A 
ATOM     21  C   LIG    1       -6.753  -3.446   1.374  0.00  0.00    -0.060 A 
ATOM     22  C   LIG    1       -5.773  -2.569   0.931  0.00  0.00    +0.230 A 
ATOM     23  C   LIG    1       -5.952  -1.199   1.077  0.00  0.00    -0.090 A 
ATOM     24  C   LIG    1       -7.107  -0.709   1.655  0.00  0.00    +0.070 A 
ATOM     25  C   LIG    1       -8.085  -1.580   2.097  0.00  0.00    -0.180 A 
ATOM     26  C   LIG    1       -9.341  -1.042   2.732  0.00  0.00    +0.080 C 
BRANCH  20  29
ATOM     27  C   LIG    1       -9.983  -6.056   2.434  0.00  0.00    +0.100 C 
ATOM     28  C   LIG    1       -9.004  -5.062   1.865  0.00  0.00    +0.510 C 
ATOM     29  N   LIG    1       -8.900  -3.833   2.407  0.00  0.00    -0.670 N 
ATOM     30  H   LIG    1       -9.511  -3.558   3.108  0.00  0.00    +0.410 HD
ATOM     31  O   LIG    1       -8.309  -5.368   0.919  0.00  0.00    -0.520 OA
ENDBRANCH  20  29
ENDBRANCH  18  22
ENDBRANCH   1  18
TORSDOF 6
