REMARK  Name = ZINCrD00000F5Lz2.0
REMARK                            x       y       z     vdW  Elec       q    Type
REMARK                         _______ _______ _______ _____ _____    ______ ____
ROOT
ATOM      1  N   LIG    1        3.084   7.910   0.013  0.00  0.00    -0.580 NA
ATOM      2  C   LIG    1        3.365   9.212   0.017  0.00  0.00    +0.380 A 
ATOM      3  S   LIG    1        4.927   9.937   0.012  0.00  0.00    +0.170 S 
ATOM      4  C   LIG    1        4.320  11.602   0.019  0.00  0.00    -0.080 A 
ATOM      5  C   LIG    1        2.997  11.497   0.031  0.00  0.00    +0.250 A 
ATOM      6  N   LIG    1        2.481  10.239   0.030  0.00  0.00    -0.470 N 
ENDROOT
BRANCH   1   8
ATOM      7  O   LIG    1        5.235   7.386  -0.010  0.00  0.00    -0.530 OA
ATOM      8  C   LIG    1        4.074   7.013  -0.001  0.00  0.00    +0.570 C 
BRANCH   8   9
ATOM      9  C   LIG    1        3.762   5.569  -0.005  0.00  0.00    +0.040 A 
ATOM     10  C   LIG    1        4.725   4.619  -0.018  0.00  0.00    -0.020 A 
ATOM     11  S   LIG    1        3.988   3.076  -0.012  0.00  0.00    +0.250 S 
ATOM     12  C   LIG    1        2.393   3.819  -0.001  0.00  0.00    +0.070 A 
ATOM     13  N   LIG    1        2.521   5.112   0.005  0.00  0.00    -0.360 NA
BRANCH  12  14
ATOM     14  C   LIG    1        1.108   3.087   0.008  0.00  0.00    +0.390 A 
ATOM     15  N   LIG    1        1.118   1.760   0.001  0.00  0.00    -0.510 NA
ATOM     16  C   LIG    1       -0.013   1.076   0.008  0.00  0.00    +0.340 A 
ATOM     17  C   LIG    1       -1.219   1.761   0.017  0.00  0.00    -0.070 A 
ATOM     18  C   LIG    1       -1.194   3.148   0.029  0.00  0.00    +0.330 A 
ATOM     19  N   LIG    1       -0.029   3.772   0.021  0.00  0.00    -0.480 NA
ENDBRANCH  12  14
ENDBRANCH   8   9
ENDBRANCH   1   8
BRANCH   6  20
ATOM     20  C   LIG    1        1.035  10.004   0.043  0.00  0.00    +0.370 C 
BRANCH  20  21
ATOM     21  C   LIG    1        0.553   9.917   1.468  0.00  0.00    -0.150 A 
ATOM     22  C   LIG    1        0.322   8.684   2.046  0.00  0.00    +0.100 A 
ATOM     23  C   LIG    1       -0.114   8.604   3.355  0.00  0.00    +0.000 A 
ATOM     24  C   LIG    1       -0.331   9.758   4.085  0.00  0.00    +0.050 A 
ATOM     25  C   LIG    1       -0.105  10.993   3.508  0.00  0.00    -0.020 A 
ATOM     26  C   LIG    1        0.338  11.074   2.198  0.00  0.00    +0.110 A 
ATOM     27  F   LIG    1        0.558  12.281   1.633  0.00  0.00    -0.140 F 
ENDBRANCH  20  21
ENDBRANCH   6  20
TORSDOF 5
