REMARK  Name = ZINCrH000004rFb3.0
REMARK                            x       y       z     vdW  Elec       q    Type
REMARK                         _______ _______ _______ _____ _____    ______ ____
ROOT
ATOM      1  C   LIG    1       -2.453   1.332  -0.084  0.00  0.00    -0.190 A 
ATOM      2  C   LIG    1       -2.455  -0.064  -0.053  0.00  0.00    +0.190 A 
ATOM      3  C   LIG    1       -3.650  -0.751  -0.072  0.00  0.00    -0.710 A 
ATOM      4  C   LIG    1       -4.851  -0.062  -0.132  0.00  0.00    +0.200 A 
ATOM      5  C   LIG    1       -4.863   1.318  -0.168  0.00  0.00    -0.090 A 
ATOM      6  C   LIG    1       -3.670   2.025  -0.144  0.00  0.00    +0.240 A 
ENDROOT
BRANCH   1  17
ATOM      7  C   LIG    1        4.915   4.174   0.213  0.00  0.00    +0.090 C 
ATOM      8  C   LIG    1        3.587   3.468   0.299  0.00  0.00    -0.100 A 
ATOM      9  C   LIG    1        2.544   3.857  -0.522  0.00  0.00    +0.020 A 
ATOM     10  C   LIG    1        1.327   3.211  -0.442  0.00  0.00    +0.030 A 
ATOM     11  C   LIG    1        1.150   2.170   0.462  0.00  0.00    +0.150 A 
ATOM     12  C   LIG    1        2.196   1.778   1.283  0.00  0.00    -0.110 A 
ATOM     13  C   LIG    1        2.043   0.652   2.270  0.00  0.00    +0.080 C 
ATOM     14  C   LIG    1        0.566   0.408   2.579  0.00  0.00    +0.020 C 
ATOM     15  C   LIG    1       -0.199   0.257   1.258  0.00  0.00    +0.270 C 
ATOM     16  N   LIG    1       -0.094   1.529   0.530  0.00  0.00    -0.550 N 
ATOM     17  C   LIG    1       -1.178   2.073  -0.058  0.00  0.00    +0.570 C 
ATOM     18  O   LIG    1       -1.105   3.175  -0.567  0.00  0.00    -0.490 OA
ATOM     19  C   LIG    1        3.413   2.433   1.197  0.00  0.00    +0.020 A 
ENDBRANCH   1  17
BRANCH   3  20
ATOM     20  S   LIG    1       -3.651  -2.512  -0.026  0.00  0.00    +2.500 S 
ATOM     21  O   LIG    1       -4.952  -2.850   0.433  0.00  0.00    -0.930 OA
ATOM     22  O   LIG    1       -2.497  -2.843   0.734  0.00  0.00    -0.930 OA
ATOM     23  C   LIG    1       -3.438  -3.010  -1.758  0.00  0.00    -0.260 C 
ENDBRANCH   3  20
BRANCH   6  24
ATOM     24  O   LIG    1       -3.681   3.381  -0.180  0.00  0.00    -0.270 OA
BRANCH  24  25
ATOM     25  C   LIG    1       -4.959   4.020  -0.172  0.00  0.00    +0.150 C 
ATOM     26  C   LIG    1       -4.833   5.421  -0.775  0.00  0.00    +0.070 C 
ATOM     27  C   LIG    1       -5.465   4.129   1.268  0.00  0.00    +0.030 C 
ENDBRANCH  24  25
ENDBRANCH   6  24
TORSDOF 4
