REMARK  Name = ZINCnE000007MrHU.0
REMARK                            x       y       z     vdW  Elec       q    Type
REMARK                         _______ _______ _______ _____ _____    ______ ____
ROOT
ATOM      1  C   LIG    1        1.295  -2.091  -0.240  0.00  0.00    -0.030 C 
ATOM      2  C   LIG    1        0.557  -2.649   0.979  0.00  0.00    +0.010 C 
ATOM      3  C   LIG    1        0.585  -4.179   0.937  0.00  0.00    +0.000 C 
ATOM      4  C   LIG    1        2.038  -4.661   0.988  0.00  0.00    +0.250 C 
ATOM      5  N   LIG    1        2.789  -4.014  -0.096  0.00  0.00    -0.600 N 
ATOM      6  C   LIG    1        3.496  -4.751  -0.977  0.00  0.00    +0.510 C 
ATOM      7  O   LIG    1        4.039  -4.213  -1.918  0.00  0.00    -0.530 OA
ATOM      8  C   LIG    1        2.756  -2.549  -0.203  0.00  0.00    +0.280 C 
ENDROOT
BRANCH   6   9
ATOM      9  C   LIG    1        3.610  -6.242  -0.791  0.00  0.00    +0.000 C 
ATOM     10  C   LIG    1        4.869  -6.560   0.017  0.00  0.00    +0.060 C 
ATOM     11  C   LIG    1        4.985  -8.074   0.206  0.00  0.00    +0.020 C 
ATOM     12  C   LIG    1        5.072  -8.753  -1.163  0.00  0.00    +0.020 C 
ATOM     13  C   LIG    1        3.813  -8.435  -1.971  0.00  0.00    +0.040 C 
ATOM     14  C   LIG    1        3.697  -6.921  -2.159  0.00  0.00    +0.010 C 
BRANCH  14  15
ATOM     15  C   LIG    1        2.438  -6.602  -2.968  0.00  0.00    +0.450 C 
ATOM     16  F   LIG    1        1.306  -6.963  -2.229  0.00  0.00    -0.190 F 
ATOM     17  F   LIG    1        2.459  -7.321  -4.168  0.00  0.00    -0.190 F 
ATOM     18  F   LIG    1        2.396  -5.232  -3.246  0.00  0.00    -0.160 F 
ENDBRANCH  14  15
ENDBRANCH   6   9
BRANCH   1  19
ATOM     19  C   LIG    1        1.239  -0.562  -0.214  0.00  0.00    +0.040 C 
BRANCH  19  20
ATOM     20  C   LIG    1       -0.211  -0.102  -0.375  0.00  0.00    -0.070 C 
BRANCH  20  22
ATOM     21  O   LIG    1        0.759   2.049  -0.216  0.00  0.00    -0.700 OA
ATOM     22  C   LIG    1       -0.267   1.404  -0.350  0.00  0.00    +0.490 C 
ATOM     23  O   LIG    1       -1.337   1.977  -0.469  0.00  0.00    -0.710 OA
ENDBRANCH  20  22
ENDBRANCH  19  20
ENDBRANCH   1  19
TORSDOF 5
