REMARK  Name = ZINCpe00000GSQtt.0
REMARK                            x       y       z     vdW  Elec       q    Type
REMARK                         _______ _______ _______ _____ _____    ______ ____
ROOT
ATOM      1  N   LIG    1       -0.698   1.576  -1.169  0.00  0.00    -0.520 NA
ATOM      2  C   LIG    1       -1.011   3.008  -1.276  0.00  0.00    +0.160 C 
ATOM      3  C   LIG    1       -1.687   3.475   0.016  0.00  0.00    +0.230 C 
ATOM      4  O   LIG    1       -0.831   3.189   1.126  0.00  0.00    -0.370 OA
ATOM      5  C   LIG    1       -0.505   1.803   1.261  0.00  0.00    +0.150 C 
ATOM      6  C   LIG    1        0.181   1.319  -0.019  0.00  0.00    +0.160 C 
ENDROOT
BRANCH   1   7
ATOM      7  C   LIG    1       -0.099   1.073  -2.413  0.00  0.00    +0.210 C 
BRANCH   7  14
ATOM      8  C   LIG    1        0.411  -3.069  -7.110  0.00  0.00    +0.020 C 
ATOM      9  C   LIG    1        0.919  -2.487  -5.790  0.00  0.00    -0.020 C 
ATOM     10  C   LIG    1        0.165  -3.132  -4.625  0.00  0.00    +0.020 C 
ATOM     11  C   LIG    1        0.700  -2.573  -3.303  0.00  0.00    +0.270 C 
ATOM     12  N   LIG    1        0.613  -1.106  -3.340  0.00  0.00    -0.610 N 
ATOM     13  C   LIG    1        1.222  -0.391  -4.470  0.00  0.00    +0.260 C 
ATOM     14  C   LIG    1       -0.018  -0.431  -2.360  0.00  0.00    +0.520 C 
ATOM     15  O   LIG    1       -0.522  -1.033  -1.435  0.00  0.00    -0.520 OA
ATOM     16  C   LIG    1        0.686  -0.975  -5.776  0.00  0.00    +0.020 C 
ENDBRANCH   7  14
ENDBRANCH   1   7
BRANCH   5  17
ATOM     17  C   LIG    1        0.439   1.613   2.450  0.00  0.00    +0.310 C 
BRANCH  17  18
ATOM     18  N   LIG    1       -0.260   1.964   3.689  0.00  0.00    -0.600 N 
ATOM     19  C   LIG    1       -1.001   0.939   4.427  0.00  0.00    +0.300 C 
BRANCH  18  20
ATOM     20  C   LIG    1       -0.218   3.270   4.164  0.00  0.00    +0.350 A 
ATOM     21  C   LIG    1        0.402   4.269   3.414  0.00  0.00    -0.010 A 
ATOM     22  C   LIG    1        0.412   5.556   3.930  0.00  0.00    +0.050 A 
ATOM     23  C   LIG    1       -0.188   5.769   5.163  0.00  0.00    +0.150 A 
ATOM     24  N   LIG    1       -0.748   4.764   5.806  0.00  0.00    -0.210 NA
ATOM     25  N   LIG    1       -0.765   3.571   5.333  0.00  0.00    -0.310 NA
ENDBRANCH  18  20
ENDBRANCH  17  18
ENDBRANCH   5  17
TORSDOF 5
