REMARK  Name = ZINCvU0000000C88.0
REMARK                            x       y       z     vdW  Elec       q    Type
REMARK                         _______ _______ _______ _____ _____    ______ ____
ROOT
ATOM      1  C   LIG    1        1.198  -0.712   2.003  0.00  0.00    +0.540 C 
ATOM      2  N   LIG    1        0.022  -0.500   1.381  0.00  0.00    -0.610 N 
ATOM      3  C   LIG    1       -1.237  -0.765   2.082  0.00  0.00    +0.300 C 
ATOM      4  O   LIG    1        2.240  -0.492   1.423  0.00  0.00    -0.520 OA
ENDROOT
BRANCH   1   5
ATOM      5  C   LIG    1        1.218  -1.222   3.421  0.00  0.00    +0.100 C 
BRANCH   5   6
ATOM      6  S   LIG    1        2.933  -1.403   3.973  0.00  0.00    +0.150 S 
BRANCH   6  10
ATOM      7  C   LIG    1        2.969  -2.714   7.621  0.00  0.00    +0.180 A 
ATOM      8  N   LIG    1        1.692  -2.641   7.379  0.00  0.00    -0.250 NA
ATOM      9  N   LIG    1        1.505  -2.212   6.180  0.00  0.00    -0.290 NA
ATOM     10  C   LIG    1        2.666  -1.995   5.611  0.00  0.00    +0.120 A 
ATOM     11  O   LIG    1        3.617  -2.314   6.509  0.00  0.00    -0.200 OA
BRANCH   7  12
ATOM     12  C   LIG    1        3.606  -3.170   8.908  0.00  0.00    +0.310 C 
BRANCH  12  16
ATOM     13  C   LIG    1        2.220  -7.899   8.322  0.00  0.00    +0.180 C 
ATOM     14  C   LIG    1        3.183  -6.770   8.589  0.00  0.00    +0.050 A 
ATOM     15  N   LIG    1        2.865  -5.520   8.612  0.00  0.00    -0.460 NA
ATOM     16  C   LIG    1        3.833  -4.659   8.856  0.00  0.00    +0.060 A 
ATOM     17  C   LIG    1        5.031  -5.215   9.060  0.00  0.00    -0.070 A 
ATOM     18  S   LIG    1        4.851  -6.961   8.910  0.00  0.00    +0.140 S 
ENDBRANCH  12  16
ENDBRANCH   7  12
ENDBRANCH   6  10
ENDBRANCH   5   6
ENDBRANCH   1   5
BRANCH   2  19
ATOM     19  C   LIG    1        0.002  -0.004   0.002  0.00  0.00    +0.420 C 
BRANCH  19  20
ATOM     20  C   LIG    1       -0.018   1.503   0.010  0.00  0.00    -0.040 A 
ATOM     21  C   LIG    1        1.065   2.303   0.004  0.00  0.00    -0.010 A 
ATOM     22  C   LIG    1        0.597   3.632   0.015  0.00  0.00    -0.040 A 
ATOM     23  C   LIG    1       -0.761   3.569   0.028  0.00  0.00    +0.030 A 
ATOM     24  O   LIG    1       -1.120   2.271   0.019  0.00  0.00    -0.170 OA
BRANCH  23  25
ATOM     25  C   LIG    1       -1.683   4.724   0.042  0.00  0.00    -0.010 A 
ATOM     26  C   LIG    1       -1.177   6.025   0.049  0.00  0.00    +0.050 A 
ATOM     27  C   LIG    1       -2.042   7.099   0.058  0.00  0.00    +0.040 A 
ATOM     28  C   LIG    1       -3.411   6.888   0.069  0.00  0.00    -0.030 A 
ATOM     29  C   LIG    1       -3.919   5.600   0.067  0.00  0.00    +0.030 A 
ATOM     30 CL   LIG    1       -4.494   8.245   0.086  0.00  0.00    -0.060 Cl
ATOM     31  C   LIG    1       -3.063   4.518   0.054  0.00  0.00    +0.050 A 
ENDBRANCH  23  25
ENDBRANCH  19  20
ENDBRANCH   2  19
TORSDOF 8
