REMARK  Name = ZINCrg000000r5I1.0
REMARK                            x       y       z     vdW  Elec       q    Type
REMARK                         _______ _______ _______ _____ _____    ______ ____
ROOT
ATOM      1  C   LIG    1        4.710   1.509   0.101  0.00  0.00    +0.430 A 
ATOM      2  N   LIG    1        3.554   2.118  -0.039  0.00  0.00    -0.540 NA
ATOM      3  C   LIG    1        2.408   1.447  -0.187  0.00  0.00    +0.180 A 
ATOM      4  C   LIG    1        1.185   2.125  -0.335  0.00  0.00    +0.030 A 
ATOM      5  C   LIG    1        0.033   1.414  -0.484  0.00  0.00    +0.050 A 
ATOM      6  C   LIG    1        0.043   0.022  -0.493  0.00  0.00    +0.000 A 
ATOM      7  C   LIG    1        1.211  -0.669  -0.353  0.00  0.00    +0.050 A 
ATOM      8  C   LIG    1        2.413   0.031  -0.198  0.00  0.00    -0.120 A 
ATOM      9  C   LIG    1        3.690  -0.667  -0.043  0.00  0.00    -0.030 A 
ATOM     10  C   LIG    1        4.827   0.112   0.105  0.00  0.00    -0.040 A 
ENDROOT
BRANCH   9  11
ATOM     11  C   LIG    1        3.764  -2.145  -0.045  0.00  0.00    +0.570 C 
ATOM     12  N   LIG    1        4.479  -2.785   0.902  0.00  0.00    -0.610 N 
ATOM     13  C   LIG    1        5.100  -2.044   2.012  0.00  0.00    +0.240 C 
ATOM     14  C   LIG    1        4.705  -2.734   3.328  0.00  0.00    +0.220 C 
ATOM     15  O   LIG    1        5.019  -4.126   3.240  0.00  0.00    -0.380 OA
ATOM     16  C   LIG    1        4.298  -4.825   2.221  0.00  0.00    +0.220 C 
ATOM     17  C   LIG    1        4.668  -4.243   0.852  0.00  0.00    +0.270 C 
ATOM     18  O   LIG    1        3.180  -2.782  -0.899  0.00  0.00    -0.520 OA
ENDBRANCH   9  11
BRANCH   1  19
ATOM     19  N   LIG    1        5.856   2.277   0.251  0.00  0.00    -0.720 N 
ATOM     20  H   LIG    1        5.795   3.245   0.251  0.00  0.00    +0.410 HD
BRANCH  19  21
ATOM     21  C   LIG    1        7.159   1.625   0.409  0.00  0.00    +0.260 C 
BRANCH  21  22
ATOM     22  C   LIG    1        8.248   2.690   0.553  0.00  0.00    +0.020 C 
BRANCH  22  23
ATOM     23  C   LIG    1        9.608   2.009   0.718  0.00  0.00    +0.280 C 
BRANCH  23  24
ATOM     24  N   LIG    1       10.651   3.029   0.856  0.00  0.00    -1.120 NA
ATOM     25  H   LIG    1       10.462   3.951   0.621  0.00  0.00    +0.420 HD
BRANCH  24  27
ATOM     26  C   LIG    1       12.816   1.503   0.139  0.00  0.00    -0.280 C 
ATOM     27  S   LIG    1       12.152   2.608   1.415  0.00  0.00    +2.620 S 
ATOM     28  O   LIG    1       11.891   1.887   2.612  0.00  0.00    -0.950 OA
ATOM     29  O   LIG    1       12.873   3.832   1.439  0.00  0.00    -0.960 OA
ENDBRANCH  24  27
ENDBRANCH  23  24
ENDBRANCH  22  23
ENDBRANCH  21  22
ENDBRANCH  19  21
ENDBRANCH   1  19
TORSDOF 7
