REMARK  Name = ZINCpe00000VVH0C.0
REMARK                            x       y       z     vdW  Elec       q    Type
REMARK                         _______ _______ _______ _____ _____    ______ ____
ROOT
ATOM      1  C   LIG    1       -1.526   7.453  -0.365  0.00  0.00    +0.510 C 
ATOM      2  O   LIG    1       -0.563   8.193  -0.385  0.00  0.00    -0.480 OA
ENDROOT
BRANCH   1   7
ATOM      3  C   LIG    1       -5.268   7.694  -0.512  0.00  0.00    -0.700 A 
ATOM      4  C   LIG    1       -5.449   9.064  -0.615  0.00  0.00    +0.190 A 
ATOM      5  C   LIG    1       -4.360   9.913  -0.637  0.00  0.00    -0.030 A 
ATOM      6  C   LIG    1       -3.075   9.398  -0.556  0.00  0.00    +0.240 A 
ATOM      7  C   LIG    1       -2.887   8.012  -0.452  0.00  0.00    -0.180 A 
ATOM      8  C   LIG    1       -3.998   7.164  -0.436  0.00  0.00    +0.230 A 
BRANCH   3   9
ATOM      9  S   LIG    1       -6.667   6.624  -0.486  0.00  0.00    +2.700 S 
ATOM     10  O   LIG    1       -7.763   7.408  -0.033  0.00  0.00    -0.960 OA
ATOM     11  O   LIG    1       -6.247   5.430   0.159  0.00  0.00    -0.950 OA
BRANCH   9  12
ATOM     12  N   LIG    1       -7.002   6.216  -2.055  0.00  0.00    -1.250 NA
ATOM     13  H   LIG    1       -7.746   5.626  -2.255  0.00  0.00    +0.420 HD
ATOM     14  H   LIG    1       -6.454   6.566  -2.775  0.00  0.00    +0.420 HD
ENDBRANCH   9  12
ENDBRANCH   3   9
BRANCH   6  15
ATOM     15  O   LIG    1       -2.004  10.231  -0.578  0.00  0.00    -0.470 OA
ATOM     16  H   LIG    1       -1.664  10.410  -1.465  0.00  0.00    +0.410 HD
ENDBRANCH   6  15
ENDBRANCH   1   7
BRANCH   1  17
ATOM     17  O   LIG    1       -1.350   6.121  -0.266  0.00  0.00    -0.330 OA
BRANCH  17  18
ATOM     18  C   LIG    1        0.018   5.640  -0.184  0.00  0.00    +0.270 C 
BRANCH  18  19
ATOM     19  C   LIG    1        0.017   4.137  -0.079  0.00  0.00    +0.500 C 
ATOM     20  N   LIG    1        1.183   3.467   0.009  0.00  0.00    -0.660 N 
ATOM     21  H   LIG    1        2.019   3.955   0.078  0.00  0.00    +0.420 HD
ATOM     22  O   LIG    1       -1.033   3.530  -0.072  0.00  0.00    -0.440 OA
BRANCH  20  23
ATOM     23  C   LIG    1        1.188   2.072   0.000  0.00  0.00    +0.360 A 
ATOM     24  C   LIG    1        2.398   1.389  -0.017  0.00  0.00    -0.040 A 
ATOM     25  C   LIG    1        2.390   0.005  -0.025  0.00  0.00    +0.110 A 
ATOM     26  C   LIG    1        1.165  -0.650  -0.016  0.00  0.00    -0.120 A 
ATOM     27  C   LIG    1        0.001   0.094   0.000  0.00  0.00    +0.320 A 
ATOM     28 CL   LIG    1        1.098  -2.385  -0.026  0.00  0.00    -0.050 Cl
ATOM     29  N   LIG    1        0.041   1.413   0.007  0.00  0.00    -0.460 NA
ENDBRANCH  20  23
ENDBRANCH  18  19
ENDBRANCH  17  18
ENDBRANCH   1  17
TORSDOF 8
