REMARK  Name = ZINCqH0000000xnG.0
REMARK                            x       y       z     vdW  Elec       q    Type
REMARK                         _______ _______ _______ _____ _____    ______ ____
ROOT
ATOM      1  N   LIG    1       -0.880  -0.326  -1.339  0.00  0.00    -0.690 N 
ATOM      2  H   LIG    1       -1.667   0.210  -1.528  0.00  0.00    +0.420 HD
ENDROOT
BRANCH   1   6
ATOM      3  C   LIG    1       -0.800  -4.338  -2.401  0.00  0.00    -0.230 A 
ATOM      4  C   LIG    1        0.346  -3.727  -1.876  0.00  0.00    +0.170 A 
ATOM      5  C   LIG    1        0.317  -2.406  -1.533  0.00  0.00    -0.070 A 
ATOM      6  C   LIG    1       -0.854  -1.668  -1.694  0.00  0.00    +0.310 A 
ATOM      7  C   LIG    1       -1.996  -2.272  -2.215  0.00  0.00    -0.120 A 
ATOM      8  C   LIG    1       -1.974  -3.591  -2.566  0.00  0.00    +0.210 A 
BRANCH   3  10
ATOM      9  C   LIG    1        0.492  -6.558  -2.597  0.00  0.00    +0.080 C 
ATOM     10  C   LIG    1       -0.772  -5.757  -2.776  0.00  0.00    +0.400 C 
ATOM     11  O   LIG    1       -1.766  -6.284  -3.229  0.00  0.00    -0.460 OA
ENDBRANCH   3  10
BRANCH   7  12
ATOM     12  N   LIG    1       -3.236  -1.482  -2.389  0.00  0.00    +0.030 N 
ATOM     13  O   LIG    1       -3.948  -1.672  -3.359  0.00  0.00    -0.140 OA
ATOM     14  O   LIG    1       -3.543  -0.642  -1.563  0.00  0.00    -0.170 OA
ENDBRANCH   7  12
ENDBRANCH   1   6
BRANCH   1  15
ATOM     15  C   LIG    1        0.279   0.282  -0.682  0.00  0.00    +0.390 C 
BRANCH  15  16
ATOM     16  C   LIG    1        0.200   0.037   0.803  0.00  0.00    +0.180 A 
ATOM     17  N   LIG    1       -0.867   0.179   1.541  0.00  0.00    -0.460 NA
ATOM     18  C   LIG    1       -0.568  -0.125   2.813  0.00  0.00    +0.150 A 
ATOM     19  C   LIG    1        0.733  -0.469   2.865  0.00  0.00    +0.130 A 
ATOM     20  N   LIG    1        1.219  -0.372   1.589  0.00  0.00    -0.450 N 
ATOM     21  C   LIG    1        2.590  -0.655   1.157  0.00  0.00    +0.310 C 
ENDBRANCH  15  16
BRANCH  15  22
ATOM     22  C   LIG    1        0.287   1.765  -0.947  0.00  0.00    -0.100 A 
ATOM     23  C   LIG    1       -0.898   2.476  -0.933  0.00  0.00    +0.040 A 
ATOM     24  C   LIG    1       -0.890   3.838  -1.172  0.00  0.00    +0.020 A 
ATOM     25  C   LIG    1        0.302   4.487  -1.433  0.00  0.00    +0.020 A 
ATOM     26  C   LIG    1        1.487   3.775  -1.451  0.00  0.00    +0.010 A 
ATOM     27  C   LIG    1        1.480   2.414  -1.208  0.00  0.00    +0.020 A 
ENDBRANCH  15  22
ENDBRANCH   1  15
TORSDOF 6
