REMARK  Name = ZINCkj00000y7LRj.0
REMARK                            x       y       z     vdW  Elec       q    Type
REMARK                         _______ _______ _______ _____ _____    ______ ____
ROOT
ATOM      1  N   LIG    1       -0.010  -0.139   2.447  0.00  0.00    -0.380 N 
ATOM      2  C   LIG    1       -0.018   1.328   2.595  0.00  0.00    +0.290 C 
ATOM      3  C   LIG    1        0.635   1.654   3.955  0.00  0.00    +0.190 C 
ATOM      4  C   LIG    1        0.460   0.334   4.752  0.00  0.00    +0.060 C 
ATOM      5  C   LIG    1        0.636  -0.729   3.639  0.00  0.00    +0.230 C 
ATOM      6  H   LIG    1       -0.959  -0.476   2.374  0.00  0.00    +0.430 HD
ENDROOT
BRANCH   5   7
ATOM      7  C   LIG    1       -0.049  -2.015   4.025  0.00  0.00    -0.110 A 
ATOM      8  C   LIG    1       -1.427  -2.110   3.961  0.00  0.00    -0.010 A 
ATOM      9  C   LIG    1       -2.056  -3.290   4.311  0.00  0.00    +0.080 A 
ATOM     10  C   LIG    1       -1.309  -4.373   4.734  0.00  0.00    +0.020 A 
ATOM     11  C   LIG    1        0.070  -4.277   4.803  0.00  0.00    +0.120 A 
ATOM     12  F   LIG    1        0.801  -5.335   5.216  0.00  0.00    -0.120 F 
ATOM     13  C   LIG    1        0.700  -3.096   4.448  0.00  0.00    +0.020 A 
ENDBRANCH   5   7
BRANCH   3  14
ATOM     14  O   LIG    1       -0.051   2.728   4.600  0.00  0.00    -0.540 OA
ATOM     15  H   LIG    1        0.271   2.922   5.491  0.00  0.00    +0.400 HD
ENDBRANCH   3  14
BRANCH   1  16
ATOM     16  C   LIG    1        0.742  -0.511   1.242  0.00  0.00    +0.240 C 
BRANCH  16  17
ATOM     17  C   LIG    1        0.002  -0.004   0.002  0.00  0.00    +0.220 C 
BRANCH  17  18
ATOM     18  O   LIG    1       -0.017   1.425   0.010  0.00  0.00    -0.540 OA
ATOM     19  H   LIG    1        0.861   1.830   0.004  0.00  0.00    +0.390 HD
ENDBRANCH  17  18
BRANCH  17  20
ATOM     20  C   LIG    1        0.718  -0.497  -1.257  0.00  0.00    +0.160 C 
BRANCH  20  21
ATOM     21  O   LIG    1       -0.036  -0.123  -2.412  0.00  0.00    -0.380 OA
BRANCH  21  23
ATOM     22  C   LIG    1       -0.338  -0.087  -4.809  0.00  0.00    +0.060 C 
ATOM     23  C   LIG    1        0.549  -0.538  -3.647  0.00  0.00    +0.160 C 
ENDBRANCH  21  23
ENDBRANCH  20  21
ENDBRANCH  17  20
ENDBRANCH  16  17
ENDBRANCH   1  16
TORSDOF 8
