REMARK  Name = ZINCkj00000y7LRj.1
REMARK                            x       y       z     vdW  Elec       q    Type
REMARK                         _______ _______ _______ _____ _____    ______ ____
ROOT
ATOM      1  N   LIG    1       -3.442   1.557   1.007  0.00  0.00    -0.380 N 
ATOM      2  C   LIG    1       -4.689   2.022   0.363  0.00  0.00    +0.280 C 
ATOM      3  C   LIG    1       -4.776   1.217  -0.958  0.00  0.00    +0.190 C 
ATOM      4  C   LIG    1       -3.285   1.153  -1.384  0.00  0.00    +0.060 C 
ATOM      5  C   LIG    1       -2.544   1.029  -0.036  0.00  0.00    +0.230 C 
ATOM      6  H   LIG    1       -3.654   0.829   1.673  0.00  0.00    +0.440 HD
ENDROOT
BRANCH   5   7
ATOM      7  C   LIG    1       -1.272   1.837  -0.075  0.00  0.00    -0.110 A 
ATOM      8  C   LIG    1       -1.296   3.143  -0.528  0.00  0.00    +0.010 A 
ATOM      9  C   LIG    1       -0.132   3.887  -0.558  0.00  0.00    +0.070 A 
ATOM     10  C   LIG    1        1.059   3.325  -0.141  0.00  0.00    +0.030 A 
ATOM     11  C   LIG    1        1.086   2.015   0.308  0.00  0.00    +0.120 A 
ATOM     12  F   LIG    1        2.250   1.464   0.717  0.00  0.00    -0.120 F 
ATOM     13  C   LIG    1       -0.081   1.270   0.338  0.00  0.00    +0.020 A 
ENDBRANCH   5   7
BRANCH   3  14
ATOM     14  O   LIG    1       -5.557   1.914  -1.931  0.00  0.00    -0.540 OA
ATOM     15  H   LIG    1       -5.639   1.449  -2.775  0.00  0.00    +0.410 HD
ENDBRANCH   3  14
BRANCH   1  16
ATOM     16  C   LIG    1       -2.793   2.681   1.695  0.00  0.00    +0.240 C 
BRANCH  16  17
ATOM     17  C   LIG    1       -3.655   3.118   2.882  0.00  0.00    +0.220 C 
BRANCH  17  18
ATOM     18  O   LIG    1       -3.708   2.065   3.845  0.00  0.00    -0.540 OA
ATOM     19  H   LIG    1       -2.845   1.810   4.199  0.00  0.00    +0.390 HD
ENDBRANCH  17  18
BRANCH  17  20
ATOM     20  C   LIG    1       -3.044   4.366   3.523  0.00  0.00    +0.160 C 
BRANCH  20  21
ATOM     21  O   LIG    1       -3.909   4.842   4.556  0.00  0.00    -0.380 OA
BRANCH  21  23
ATOM     22  C   LIG    1       -4.428   6.429   6.304  0.00  0.00    +0.060 C 
ATOM     23  C   LIG    1       -3.428   6.011   5.224  0.00  0.00    +0.160 C 
ENDBRANCH  21  23
ENDBRANCH  20  21
ENDBRANCH  17  20
ENDBRANCH  16  17
ENDBRANCH   1  16
TORSDOF 8
