REMARK  Name = ZINC9p0000002lsQ.0
REMARK                            x       y       z     vdW  Elec       q    Type
REMARK                         _______ _______ _______ _____ _____    ______ ____
ROOT
ATOM      1  C   LIG    1       -2.127   0.951   1.208  0.00  0.00    -0.090 C 
ATOM      2  C   LIG    1       -2.838   1.393  -0.088  0.00  0.00    +0.020 C 
ATOM      3  C   LIG    1       -4.320   1.564   0.331  0.00  0.00    +0.020 C 
ATOM      4  C   LIG    1       -4.206   2.171   1.752  0.00  0.00    +0.020 C 
ATOM      5  C   LIG    1       -2.997   1.444   2.377  0.00  0.00    +0.040 C 
ENDROOT
BRANCH   1   7
ATOM      6  C   LIG    1       -0.012   1.071   2.531  0.00  0.00    +0.020 C 
ATOM      7  C   LIG    1       -0.736   1.583   1.285  0.00  0.00    +0.020 C 
ENDBRANCH   1   7
BRANCH   1   8
ATOM      8  C   LIG    1       -2.012  -0.574   1.247  0.00  0.00    +0.280 C 
BRANCH   8   9
ATOM      9  N   LIG    1       -1.116  -1.026   0.174  0.00  0.00    -0.640 N 
ATOM     10  H   LIG    1       -1.528  -0.809  -0.721  0.00  0.00    +0.430 HD
ATOM     11  H   LIG    1       -0.978  -2.022   0.249  0.00  0.00    +0.440 HD
ATOM     12  H   LIG    1       -0.227  -0.556   0.258  0.00  0.00    +0.430 HD
ENDBRANCH   8   9
ENDBRANCH   1   8
TORSDOF 3
