REMARK  Name = ZINCrg00000BvNWu.0
REMARK                            x       y       z     vdW  Elec       q    Type
REMARK                         _______ _______ _______ _____ _____    ______ ____
ROOT
ATOM      1  O   LIG    1       -2.657   4.962  -0.037  0.00  0.00    -0.500 OA
ATOM      2  C   LIG    1       -2.585   3.752   0.045  0.00  0.00    +0.560 C 
ATOM      3  N   LIG    1       -3.710   3.016   0.150  0.00  0.00    -0.720 N 
ATOM      4  H   LIG    1       -3.653   2.050   0.216  0.00  0.00    +0.400 HD
ENDROOT
BRANCH   2   5
ATOM      5  C   LIG    1       -1.265   3.086   0.030  0.00  0.00    -0.100 A 
ATOM      6  C   LIG    1       -1.183   1.693   0.008  0.00  0.00    +0.040 A 
ATOM      7  C   LIG    1        0.052   1.078  -0.001  0.00  0.00    +0.020 A 
ATOM      8  C   LIG    1        1.207   1.839   0.001  0.00  0.00    +0.030 A 
ATOM      9  C   LIG    1        1.133   3.221   0.017  0.00  0.00    +0.030 A 
ATOM     10  C   LIG    1       -0.096   3.848   0.032  0.00  0.00    -0.060 A 
BRANCH  10  11
ATOM     11  C   LIG    1       -0.175   5.353   0.050  0.00  0.00    +0.400 C 
BRANCH  11  12
ATOM     12  N   LIG    1       -0.429   5.812   1.417  0.00  0.00    -0.270 N 
ATOM     13  C   LIG    1        0.322   6.702   2.107  0.00  0.00    +0.130 A 
ATOM     14  C   LIG    1       -0.269   6.835   3.318  0.00  0.00    +0.140 A 
ATOM     15  N   LIG    1       -1.337   6.030   3.310  0.00  0.00    -0.280 NA
ATOM     16  N   LIG    1       -1.408   5.443   2.168  0.00  0.00    -0.060 NA
ENDBRANCH  11  12
ENDBRANCH  10  11
ENDBRANCH   2   5
BRANCH   3  17
ATOM     17  C   LIG    1       -5.018   3.675   0.166  0.00  0.00    +0.260 C 
ATOM     18  C   LIG    1       -6.054   2.775   0.860  0.00  0.00    +0.050 C 
ATOM     19  C   LIG    1       -7.148   2.474  -0.186  0.00  0.00    -0.020 C 
ATOM     20  C   LIG    1       -7.045   3.648  -1.191  0.00  0.00    +0.000 C 
ATOM     21  C   LIG    1       -5.518   3.891  -1.278  0.00  0.00    +0.150 C 
BRANCH  21  22
ATOM     22  O   LIG    1       -5.247   5.227  -1.706  0.00  0.00    -0.550 OA
ATOM     23  H   LIG    1       -5.541   5.418  -2.608  0.00  0.00    +0.380 HD
ENDBRANCH  21  22
BRANCH  19  24
ATOM     24  C   LIG    1       -8.530   2.452   0.471  0.00  0.00    +0.310 C 
BRANCH  24  25
ATOM     25  N   LIG    1       -9.544   2.134  -0.537  0.00  0.00    -0.460 N 
ATOM     26  C   LIG    1       -9.986   0.885  -0.879  0.00  0.00    +0.110 A 
ATOM     27  C   LIG    1      -10.915   1.050  -1.840  0.00  0.00    +0.140 A 
ATOM     28  N   LIG    1      -11.036   2.364  -2.079  0.00  0.00    -0.500 NA
ATOM     29  C   LIG    1      -10.223   3.020  -1.297  0.00  0.00    +0.380 A 
ENDBRANCH  24  25
ENDBRANCH  19  24
ENDBRANCH   3  17
TORSDOF 7
