REMARK  Name = ZINCtV000002w0MW.0
REMARK                            x       y       z     vdW  Elec       q    Type
REMARK                         _______ _______ _______ _____ _____    ______ ____
ROOT
ATOM      1  C   LIG    1       -3.790   3.298   0.057  0.00  0.00    +0.120 A 
ATOM      2  C   LIG    1       -2.634   4.069   0.101  0.00  0.00    +0.000 A 
ATOM      3  C   LIG    1       -1.400   3.460   0.138  0.00  0.00    +0.110 A 
ATOM      4  C   LIG    1       -1.310   2.066   0.132  0.00  0.00    -0.140 A 
ATOM      5  C   LIG    1       -2.474   1.294   0.083  0.00  0.00    +0.070 A 
ATOM      6  C   LIG    1       -3.705   1.911   0.051  0.00  0.00    +0.010 A 
ENDROOT
BRANCH   4   7
ATOM      7  C   LIG    1        0.011   1.409   0.171  0.00  0.00    +0.560 C 
ATOM      8  N   LIG    1        0.096   0.064   0.165  0.00  0.00    -0.660 N 
ATOM      9  H   LIG    1       -0.710  -0.473   0.225  0.00  0.00    +0.410 HD
ATOM     10  O   LIG    1        1.024   2.082   0.204  0.00  0.00    -0.510 OA
BRANCH   8  11
ATOM     11  C   LIG    1        1.347  -0.558   0.074  0.00  0.00    +0.120 A 
ATOM     12  C   LIG    1        1.531  -1.835   0.587  0.00  0.00    +0.030 A 
ATOM     13  C   LIG    1        2.763  -2.448   0.501  0.00  0.00    +0.010 A 
ATOM     14  C   LIG    1        3.834  -1.793  -0.100  0.00  0.00    +0.090 A 
ATOM     15  O   LIG    1        5.122  -2.202  -0.272  0.00  0.00    -0.300 OA
ATOM     16  C   LIG    1        5.736  -1.412  -1.305  0.00  0.00    +0.170 C 
ATOM     17  C   LIG    1        4.959  -0.077  -1.221  0.00  0.00    +0.070 C 
ATOM     18  C   LIG    1        7.222  -1.193  -1.015  0.00  0.00    +0.070 C 
ATOM     19  C   LIG    1        3.639  -0.518  -0.618  0.00  0.00    -0.150 A 
ATOM     20  C   LIG    1        2.411   0.097  -0.536  0.00  0.00    +0.070 A 
ENDBRANCH   8  11
ENDBRANCH   4   7
BRANCH   1  21
ATOM     21  O   LIG    1       -5.005   3.902   0.021  0.00  0.00    -0.260 OA
BRANCH  21  25
ATOM     22  C   LIG    1       -6.212   5.615  -3.532  0.00  0.00    -0.110 A 
ATOM     23  C   LIG    1       -7.078   5.577  -2.455  0.00  0.00    +0.050 A 
ATOM     24  C   LIG    1       -6.676   5.004  -1.264  0.00  0.00    -0.010 A 
ATOM     25  C   LIG    1       -5.403   4.466  -1.149  0.00  0.00    +0.110 A 
ATOM     26  C   LIG    1       -4.534   4.509  -2.230  0.00  0.00    -0.060 A 
ATOM     27  C   LIG    1       -4.942   5.079  -3.421  0.00  0.00    +0.050 A 
BRANCH  22  28
ATOM     28  C   LIG    1       -6.653   6.240  -4.831  0.00  0.00    +0.060 C 
BRANCH  28  30
ATOM     29  C   LIG    1       -6.750   8.365  -6.142  0.00  0.00    +0.010 C 
ATOM     30  C   LIG    1       -6.302   7.730  -4.824  0.00  0.00    +0.000 C 
ENDBRANCH  28  30
ENDBRANCH  22  28
ENDBRANCH  21  25
ENDBRANCH   1  21
TORSDOF 6
