REMARK  Name = ZINCrH00000tj1nE.0
REMARK                            x       y       z     vdW  Elec       q    Type
REMARK                         _______ _______ _______ _____ _____    ______ ____
ROOT
ATOM      1  C   LIG    1       -4.125   1.847   0.357  0.00  0.00    +0.140 C 
ATOM      2  N   LIG    1       -2.885   1.581   0.131  0.00  0.00    -0.230 NA
ATOM      3  N   LIG    1       -2.050   1.778   1.228  0.00  0.00    -0.460 N 
ATOM      4  C   LIG    1       -2.861   2.244   2.365  0.00  0.00    +0.250 C 
ATOM      5  C   LIG    1       -0.718   1.572   1.248  0.00  0.00    +0.550 C 
ATOM      6  O   LIG    1       -0.087   1.777   2.264  0.00  0.00    -0.510 OA
ATOM      7  C   LIG    1       -0.013   1.086   0.008  0.00  0.00    +0.120 C 
ATOM      8  C   LIG    1       -4.289   2.305   1.789  0.00  0.00    +0.090 C 
ENDROOT
BRANCH   4   9
ATOM      9  C   LIG    1       -2.412   3.612   2.811  0.00  0.00    -0.100 A 
ATOM     10  C   LIG    1       -2.030   4.554   1.874  0.00  0.00    +0.010 A 
ATOM     11  C   LIG    1       -1.623   5.810   2.283  0.00  0.00    +0.000 A 
ATOM     12  C   LIG    1       -1.590   6.121   3.629  0.00  0.00    -0.080 A 
ATOM     13  C   LIG    1       -1.968   5.178   4.566  0.00  0.00    +0.010 A 
ATOM     14  C   LIG    1       -1.143   7.490   4.075  0.00  0.00    +0.090 C 
ATOM     15  C   LIG    1       -2.379   3.923   4.157  0.00  0.00    +0.030 A 
ENDBRANCH   4   9
BRANCH   1  18
ATOM     16  C   LIG    1       -5.965   1.173  -2.847  0.00  0.00    +0.150 A 
ATOM     17  C   LIG    1       -4.940   1.288  -1.926  0.00  0.00    -0.040 A 
ATOM     18  C   LIG    1       -5.215   1.724  -0.627  0.00  0.00    +0.040 A 
ATOM     19  C   LIG    1       -6.526   2.038  -0.262  0.00  0.00    -0.060 A 
ATOM     20  C   LIG    1       -7.547   1.926  -1.189  0.00  0.00    +0.150 A 
ATOM     21  C   LIG    1       -7.269   1.492  -2.482  0.00  0.00    +0.050 A 
BRANCH  16  23
ATOM     22  C   LIG    1       -4.337   0.440  -4.418  0.00  0.00    +0.250 C 
ATOM     23  O   LIG    1       -5.698   0.749  -4.111  0.00  0.00    -0.300 OA
ENDBRANCH  16  23
BRANCH  20  24
ATOM     24  O   LIG    1       -8.823   2.237  -0.836  0.00  0.00    -0.300 OA
ATOM     25  C   LIG    1       -9.036   2.676   0.507  0.00  0.00    +0.250 C 
ENDBRANCH  20  24
BRANCH  21  26
ATOM     26  O   LIG    1       -8.276   1.377  -3.390  0.00  0.00    -0.310 OA
ATOM     27  C   LIG    1       -8.948   0.118  -3.459  0.00  0.00    +0.230 C 
ENDBRANCH  21  26
ENDBRANCH   1  18
TORSDOF 5
