REMARK  Name = ZINCqH0000051jut.0
REMARK                            x       y       z     vdW  Elec       q    Type
REMARK                         _______ _______ _______ _____ _____    ______ ____
ROOT
ATOM      1  O   LIG    1       -2.534   5.085   0.055  0.00  0.00    -0.520 OA
ATOM      2  C   LIG    1       -2.522   3.870   0.048  0.00  0.00    +0.560 C 
ATOM      3  N   LIG    1       -3.683   3.185   0.055  0.00  0.00    -0.730 N 
ATOM      4  H   LIG    1       -3.673   2.215   0.049  0.00  0.00    +0.400 HD
ENDROOT
BRANCH   2   5
ATOM      5  C   LIG    1       -1.235   3.143   0.031  0.00  0.00    -0.140 A 
ATOM      6  C   LIG    1       -1.218   1.748   0.017  0.00  0.00    +0.090 A 
ATOM      7  C   LIG    1       -0.013   1.076   0.008  0.00  0.00    +0.030 A 
ATOM      8  C   LIG    1        1.177   1.782   0.000  0.00  0.00    +0.100 A 
ATOM      9  C   LIG    1        1.167   3.166   0.008  0.00  0.00    -0.190 A 
ATOM     10  C   LIG    1       -0.031   3.850   0.024  0.00  0.00    +0.140 A 
BRANCH   9  11
ATOM     11  C   LIG    1        2.467   3.927   0.001  0.00  0.00    +0.510 C 
ATOM     12  F   LIG    1        2.547   4.726   1.147  0.00  0.00    -0.170 F 
ATOM     13  F   LIG    1        2.526   4.739  -1.138  0.00  0.00    -0.170 F 
ATOM     14  F   LIG    1        3.536   3.025  -0.015  0.00  0.00    -0.170 F 
ENDBRANCH   9  11
ENDBRANCH   2   5
BRANCH   3  15
ATOM     15  C   LIG    1       -4.958   3.905   0.071  0.00  0.00    +0.290 C 
BRANCH  15  16
ATOM     16  C   LIG    1       -6.112   2.899   0.076  0.00  0.00    +0.200 C 
BRANCH  16  17
ATOM     17  C   LIG    1       -7.424   3.640   0.093  0.00  0.00    +0.160 A 
ATOM     18  N   LIG    1       -8.104   4.024  -0.950  0.00  0.00    -0.270 NA
ATOM     19  N   LIG    1       -9.174   4.627  -0.568  0.00  0.00    -0.270 NA
ATOM     20  C   LIG    1       -9.213   4.649   0.744  0.00  0.00    +0.220 A 
ATOM     21  O   LIG    1       -8.107   4.019   1.187  0.00  0.00    -0.220 OA
BRANCH  20  22
ATOM     22  C   LIG    1      -10.276   5.248   1.580  0.00  0.00    -0.030 A 
ATOM     23  C   LIG    1      -10.188   5.190   2.972  0.00  0.00    +0.050 A 
ATOM     24  C   LIG    1      -11.180   5.756   3.746  0.00  0.00    +0.010 A 
ATOM     25  C   LIG    1      -12.265   6.369   3.146  0.00  0.00    +0.040 A 
ATOM     26  C   LIG    1      -12.361   6.424   1.767  0.00  0.00    +0.020 A 
ATOM     27  C   LIG    1      -11.373   5.867   0.981  0.00  0.00    +0.080 A 
ENDBRANCH  20  22
ENDBRANCH  16  17
ENDBRANCH  15  16
ENDBRANCH   3  15
TORSDOF 6
