REMARK  Name = ZINCrH000004t3GU.1
REMARK                            x       y       z     vdW  Elec       q    Type
REMARK                         _______ _______ _______ _____ _____    ______ ____
ROOT
ATOM      1  C   LIG    1       -1.099   3.517  -0.011  0.00  0.00    -0.110 A 
ATOM      2  C   LIG    1       -1.185   2.125   0.069  0.00  0.00    +0.100 A 
ATOM      3  C   LIG    1       -0.038   1.364   0.072  0.00  0.00    -0.010 A 
ATOM      4  C   LIG    1        1.207   1.980  -0.015  0.00  0.00    +0.160 A 
ATOM      5  C   LIG    1        1.296   3.366  -0.099  0.00  0.00    +0.000 A 
ATOM      6  C   LIG    1        0.152   4.133  -0.098  0.00  0.00    +0.100 A 
ENDROOT
BRANCH   1   7
ATOM      7  C   LIG    1       -2.329   4.337  -0.009  0.00  0.00    +0.540 C 
ATOM      8  O   LIG    1       -2.252   5.552  -0.083  0.00  0.00    -0.560 OA
BRANCH   7  14
ATOM      9  C   LIG    1       -8.235   5.101   0.185  0.00  0.00    +0.370 C 
ATOM     10  N   LIG    1       -6.772   5.133   0.124  0.00  0.00    -0.390 N 
ATOM     11  C   LIG    1       -6.001   6.255   0.027  0.00  0.00    +0.350 A 
ATOM     12  C   LIG    1       -4.701   5.892  -0.004  0.00  0.00    -0.110 A 
ATOM     13  C   LIG    1       -4.633   4.484   0.076  0.00  0.00    +0.480 A 
ATOM     14  N   LIG    1       -3.527   3.747   0.075  0.00  0.00    -0.670 NA
ATOM     15  N   LIG    1       -5.924   4.018   0.151  0.00  0.00    -0.480 N 
ATOM     16  H   LIG    1       -6.197   3.089   0.212  0.00  0.00    +0.450 HD
ENDBRANCH   7  14
ENDBRANCH   1   7
BRANCH   4  17
ATOM     17  N   LIG    1        2.365   1.208  -0.017  0.00  0.00    -1.050 N 
ATOM     18  H   LIG    1        2.472   0.493   0.630  0.00  0.00    +0.430 HD
BRANCH  17  19
ATOM     19  S   LIG    1        3.559   1.511  -1.123  0.00  0.00    +2.690 S 
ATOM     20  O   LIG    1        4.535   0.493  -0.948  0.00  0.00    -0.930 OA
ATOM     21  O   LIG    1        3.856   2.897  -1.024  0.00  0.00    -0.940 OA
BRANCH  19  22
ATOM     22  C   LIG    1        2.864   1.264  -2.723  0.00  0.00    -0.660 A 
ATOM     23  C   LIG    1        2.757   2.325  -3.600  0.00  0.00    +0.170 A 
ATOM     24  C   LIG    1        2.215   2.131  -4.859  0.00  0.00    -0.050 A 
ATOM     25  C   LIG    1        1.771   0.875  -5.234  0.00  0.00    +0.110 A 
ATOM     26  C   LIG    1        1.873  -0.185  -4.354  0.00  0.00    +0.050 A 
ATOM     27 CL   LIG    1        2.087   3.463  -5.965  0.00  0.00    -0.040 Cl
ATOM     28  C   LIG    1        2.420   0.008  -3.098  0.00  0.00    +0.060 A 
ATOM     29 CL   LIG    1        2.549  -1.324  -1.992  0.00  0.00    -0.030 Cl
ENDBRANCH  19  22
ENDBRANCH  17  19
ENDBRANCH   4  17
TORSDOF 5
