REMARK  Name = ZINCrg00000yQT1z.0
REMARK                            x       y       z     vdW  Elec       q    Type
REMARK                         _______ _______ _______ _____ _____    ______ ____
ROOT
ATOM      1  N   LIG    1       -1.544  -1.867   0.560  0.00  0.00    -0.720 N 
ATOM      2  H   LIG    1       -0.816  -2.493   0.426  0.00  0.00    +0.400 HD
ATOM      3  C   LIG    1       -1.309  -0.540   0.520  0.00  0.00    +0.520 C 
ATOM      4  O   LIG    1       -2.220   0.243   0.689  0.00  0.00    -0.520 OA
ENDROOT
BRANCH   1   5
ATOM      5  C   LIG    1       -2.900  -2.363   0.806  0.00  0.00    +0.290 C 
BRANCH   5  16
ATOM      6  C   LIG    1       -1.880  -4.350   3.025  0.00  0.00    +0.320 C 
ATOM      7  N   LIG    1       -1.911  -4.479   1.566  0.00  0.00    -0.620 N 
ATOM      8  C   LIG    1       -1.023  -5.160   0.822  0.00  0.00    +0.550 C 
ATOM      9  C   LIG    1       -1.376  -5.068  -0.608  0.00  0.00    -0.160 A 
ATOM     10  C   LIG    1       -0.783  -5.590  -1.759  0.00  0.00    +0.090 A 
ATOM     11  C   LIG    1       -1.343  -5.336  -2.994  0.00  0.00    +0.020 A 
ATOM     12  C   LIG    1       -2.489  -4.568  -3.098  0.00  0.00    +0.060 A 
ATOM     13  C   LIG    1       -3.083  -4.047  -1.960  0.00  0.00    +0.030 A 
ATOM     14  C   LIG    1       -2.533  -4.293  -0.724  0.00  0.00    -0.080 A 
ATOM     15  O   LIG    1       -0.066  -5.765   1.263  0.00  0.00    -0.510 OA
ATOM     16  C   LIG    1       -2.917  -3.887   0.677  0.00  0.00    +0.280 C 
ENDBRANCH   5  16
ENDBRANCH   1   5
BRANCH   3  17
ATOM     17  C   LIG    1        0.087  -0.030   0.268  0.00  0.00    +0.310 C 
BRANCH  17  18
ATOM     18  N   LIG    1        0.079   1.435   0.273  0.00  0.00    -1.100 NA
ATOM     19  H   LIG    1       -0.760   1.916   0.202  0.00  0.00    +0.430 HD
BRANCH  18  20
ATOM     20  S   LIG    1        1.504   2.270   0.393  0.00  0.00    +2.700 S 
ATOM     21  O   LIG    1        2.220   1.689   1.474  0.00  0.00    -0.950 OA
ATOM     22  O   LIG    1        1.167   3.649   0.336  0.00  0.00    -0.950 OA
BRANCH  20  23
ATOM     23  C   LIG    1        2.435   1.925  -1.063  0.00  0.00    -0.700 A 
ATOM     24  C   LIG    1        3.308   0.854  -1.087  0.00  0.00    +0.160 A 
ATOM     25  C   LIG    1        4.035   0.579  -2.229  0.00  0.00    -0.020 A 
ATOM     26  C   LIG    1        3.896   1.383  -3.348  0.00  0.00    +0.160 A 
ATOM     27  C   LIG    1        3.025   2.459  -3.321  0.00  0.00    -0.020 A 
ATOM     28  F   LIG    1        4.610   1.119  -4.464  0.00  0.00    -0.130 F 
ATOM     29  C   LIG    1        2.295   2.729  -2.179  0.00  0.00    +0.160 A 
ENDBRANCH  20  23
ENDBRANCH  18  20
ENDBRANCH  17  18
ENDBRANCH   3  17
TORSDOF 6
