REMARK  Name = ZINCrD000000A2yh.0
REMARK                            x       y       z     vdW  Elec       q    Type
REMARK                         _______ _______ _______ _____ _____    ______ ____
ROOT
ATOM      1  C   LIG    1       -3.138  -1.699   0.023  0.00  0.00    +0.190 A 
ATOM      2  N   LIG    1       -2.283  -2.678   0.010  0.00  0.00    -0.360 NA
ATOM      3  O   LIG    1       -1.148  -2.250  -0.004  0.00  0.00    +0.100 OA
ATOM      4  C   LIG    1       -1.171  -0.909   0.009  0.00  0.00    +0.260 A 
ATOM      5  N   LIG    1       -2.441  -0.551   0.023  0.00  0.00    -0.440 NA
ENDROOT
BRANCH   4   6
ATOM      6  C   LIG    1        0.002  -0.004   0.002  0.00  0.00    +0.070 A 
ATOM      7  N   LIG    1       -0.016   1.308   0.009  0.00  0.00    -0.280 NA
ATOM      8  O   LIG    1        1.101   1.770   0.001  0.00  0.00    +0.180 OA
ATOM      9  C   LIG    1        2.040   0.808  -0.013  0.00  0.00    -0.000 A 
ATOM     10  C   LIG    1        1.370  -0.384  -0.013  0.00  0.00    +0.030 A 
BRANCH   9  11
ATOM     11  C   LIG    1        3.506   1.000  -0.026  0.00  0.00    +0.040 A 
ATOM     12  C   LIG    1        4.310   0.317   0.888  0.00  0.00    +0.070 A 
ATOM     13  C   LIG    1        5.677   0.501   0.871  0.00  0.00    +0.090 A 
ATOM     14  C   LIG    1        6.251   1.360  -0.049  0.00  0.00    +0.060 A 
ATOM     15  C   LIG    1        5.459   2.040  -0.958  0.00  0.00    +0.110 A 
ATOM     16  C   LIG    1        4.092   1.861  -0.955  0.00  0.00    -0.020 A 
BRANCH  16  17
ATOM     17  N   LIG    1        3.247   2.585  -1.931  0.00  0.00    +0.020 N 
ATOM     18  O   LIG    1        2.039   2.429  -1.924  0.00  0.00    -0.150 OA
ATOM     19  O   LIG    1        3.759   3.336  -2.742  0.00  0.00    -0.140 OA
ENDBRANCH  16  17
ENDBRANCH   9  11
ENDBRANCH   4   6
BRANCH   1  20
ATOM     20  C   LIG    1       -4.639  -1.828   0.037  0.00  0.00    +0.350 C 
BRANCH  20  21
ATOM     21  C   LIG    1       -5.122  -2.230  -1.333  0.00  0.00    -0.130 A 
ATOM     22  C   LIG    1       -5.041  -3.550  -1.734  0.00  0.00    +0.010 A 
ATOM     23  C   LIG    1       -5.487  -3.920  -2.989  0.00  0.00    +0.010 A 
ATOM     24  C   LIG    1       -6.006  -2.967  -3.846  0.00  0.00    +0.020 A 
ATOM     25  C   LIG    1       -6.082  -1.646  -3.446  0.00  0.00    +0.010 A 
ATOM     26  C   LIG    1       -5.640  -1.277  -2.190  0.00  0.00    +0.030 A 
ENDBRANCH  20  21
BRANCH  20  27
ATOM     27  N   LIG    1       -5.034  -2.851   1.015  0.00  0.00    -0.830 NA
ATOM     28  H   LIG    1       -4.634  -3.748   0.781  0.00  0.00    +0.350 HD
ATOM     29  H   LIG    1       -6.038  -2.912   1.090  0.00  0.00    +0.360 HD
ENDBRANCH  20  27
ENDBRANCH   1  20
TORSDOF 6
