REMARK  Name = ZINCqH0000001OVF.0
REMARK                            x       y       z     vdW  Elec       q    Type
REMARK                         _______ _______ _______ _____ _____    ______ ____
ROOT
ATOM      1  C   LIG    1        0.962  10.768   4.603  0.00  0.00    -0.100 A 
ATOM      2  C   LIG    1        0.875  11.637   3.531  0.00  0.00    +0.010 A 
ATOM      3  C   LIG    1        0.638  11.149   2.259  0.00  0.00    +0.030 A 
ATOM      4  C   LIG    1        0.488   9.791   2.056  0.00  0.00    +0.030 A 
ATOM      5  C   LIG    1        0.575   8.916   3.131  0.00  0.00    +0.170 A 
ATOM      6  C   LIG    1        0.808   9.409   4.407  0.00  0.00    +0.000 A 
ENDROOT
BRANCH   5   7
ATOM      7  N   LIG    1        0.423   7.539   2.928  0.00  0.00    -0.690 N 
ATOM      8  H   LIG    1        0.919   6.911   3.475  0.00  0.00    +0.410 HD
ATOM      9  C   LIG    1       -0.413   7.087   1.972  0.00  0.00    +0.710 C 
ATOM     10  N   LIG    1       -0.480   5.768   1.704  0.00  0.00    -0.730 N 
ATOM     11  H   LIG    1        0.073   5.144   2.199  0.00  0.00    +0.400 HD
ATOM     12  O   LIG    1       -1.107   7.870   1.352  0.00  0.00    -0.570 OA
BRANCH  10  13
ATOM     13  C   LIG    1       -1.389   5.277   0.665  0.00  0.00    +0.370 C 
BRANCH  13  14
ATOM     14  C   LIG    1       -1.273   3.778   0.565  0.00  0.00    +0.100 A 
ATOM     15  C   LIG    1       -2.159   2.976   1.258  0.00  0.00    -0.010 A 
ATOM     16  C   LIG    1       -2.047   1.598   1.155  0.00  0.00    +0.060 A 
ATOM     17  C   LIG    1       -1.037   1.076   0.362  0.00  0.00    -0.020 A 
ATOM     18  C   LIG    1       -0.188   1.940  -0.303  0.00  0.00    +0.260 A 
ATOM     19  N   LIG    1       -0.327   3.246  -0.185  0.00  0.00    -0.470 NA
ENDBRANCH  13  14
ENDBRANCH  10  13
ENDBRANCH   5   7
BRANCH   1  20
ATOM     20  C   LIG    1        1.221  11.304   5.988  0.00  0.00    +0.350 C 
BRANCH  20  25
ATOM     21  C   LIG    1       -0.832  10.720   7.316  0.00  0.00    +0.220 A 
ATOM     22  N   LIG    1       -1.885  11.348   7.762  0.00  0.00    -0.490 NA
ATOM     23  C   LIG    1       -1.825  12.634   7.385  0.00  0.00    +0.140 A 
ATOM     24  C   LIG    1       -0.688  12.811   6.685  0.00  0.00    +0.110 A 
ATOM     25  N   LIG    1       -0.056  11.597   6.644  0.00  0.00    -0.450 N 
BRANCH  21  27
ATOM     26  C   LIG    1       -0.433   8.962   9.020  0.00  0.00    +0.040 C 
ATOM     27  C   LIG    1       -0.529   9.258   7.521  0.00  0.00    +0.070 C 
ATOM     28  C   LIG    1       -1.647   8.414   6.905  0.00  0.00    +0.040 C 
ENDBRANCH  21  27
ENDBRANCH  20  25
ENDBRANCH   1  20
TORSDOF 6
