REMARK  Name = ZINCkj00000y7F6w.1
REMARK                            x       y       z     vdW  Elec       q    Type
REMARK                         _______ _______ _______ _____ _____    ______ ____
ROOT
ATOM      1  N   LIG    1       -0.232  -2.615  -1.212  0.00  0.00    -0.390 N 
ATOM      2  C   LIG    1       -1.039  -2.336  -2.405  0.00  0.00    +0.250 C 
ATOM      3  C   LIG    1       -1.340  -0.838  -2.483  0.00  0.00    +0.050 C 
ATOM      4  C   LIG    1       -2.112  -0.412  -1.231  0.00  0.00    +0.070 C 
ATOM      5  C   LIG    1       -1.293  -0.775   0.010  0.00  0.00    +0.010 C 
ATOM      6  C   LIG    1       -0.994  -2.276  -0.003  0.00  0.00    +0.300 C 
ATOM      7  H   LIG    1        0.612  -2.062  -1.241  0.00  0.00    +0.430 HD
ENDROOT
BRANCH   5   8
ATOM      8  C   LIG    1        0.002  -0.004   0.002  0.00  0.00    +0.520 C 
ATOM      9  N   LIG    1       -0.016   1.344   0.009  0.00  0.00    -0.680 N 
ATOM     10  H   LIG    1       -0.863   1.817   0.016  0.00  0.00    +0.410 HD
ATOM     11  O   LIG    1        1.060  -0.596  -0.011  0.00  0.00    -0.550 OA
BRANCH   9  12
ATOM     12  C   LIG    1        1.242   2.093   0.001  0.00  0.00    +0.200 C 
ATOM     13  C   LIG    1        1.356   3.294   0.943  0.00  0.00    +0.030 C 
ATOM     14  C   LIG    1        1.214   3.515  -0.564  0.00  0.00    +0.030 C 
ENDBRANCH   9  12
ENDBRANCH   5   8
BRANCH   1  15
ATOM     15  C   LIG    1        0.120  -4.041  -1.183  0.00  0.00    +0.260 C 
BRANCH  15  21
ATOM     16  C   LIG    1        4.465  -3.152  -3.310  0.00  0.00    +0.200 C 
ATOM     17  N   LIG    1        3.234  -3.954  -3.349  0.00  0.00    -0.540 NA
ATOM     18  C   LIG    1        3.541  -5.389  -3.382  0.00  0.00    +0.180 C 
ATOM     19  C   LIG    1        2.248  -6.185  -3.569  0.00  0.00    +0.040 C 
ATOM     20  C   LIG    1        1.292  -5.875  -2.413  0.00  0.00    +0.040 C 
ATOM     21  C   LIG    1        1.026  -4.367  -2.371  0.00  0.00    -0.010 C 
ATOM     22  C   LIG    1        2.356  -3.624  -2.219  0.00  0.00    +0.170 C 
ENDBRANCH  15  21
ENDBRANCH   1  15
TORSDOF 4
