REMARK  Name = ZINCkj00000y7F6w.2
REMARK                            x       y       z     vdW  Elec       q    Type
REMARK                         _______ _______ _______ _____ _____    ______ ____
ROOT
ATOM      1  N   LIG    1       -0.042   1.101  -0.073  0.00  0.00    -0.380 N 
ATOM      2  C   LIG    1       -0.638   1.614  -1.312  0.00  0.00    +0.250 C 
ATOM      3  C   LIG    1       -2.083   1.123  -1.428  0.00  0.00    +0.070 C 
ATOM      4  C   LIG    1       -2.886   1.627  -0.226  0.00  0.00    +0.060 C 
ATOM      5  C   LIG    1       -2.212   1.147   1.063  0.00  0.00    -0.010 C 
ATOM      6  C   LIG    1       -0.764   1.638   1.086  0.00  0.00    +0.290 C 
ATOM      7  H   LIG    1       -0.098   0.094  -0.066  0.00  0.00    +0.420 HD
ENDROOT
BRANCH   5   8
ATOM      8  C   LIG    1       -2.952   1.701   2.254  0.00  0.00    +0.530 C 
ATOM      9  N   LIG    1       -4.253   1.403   2.437  0.00  0.00    -0.690 N 
ATOM     10  H   LIG    1       -4.714   0.832   1.803  0.00  0.00    +0.400 HD
ATOM     11  O   LIG    1       -2.376   2.415   3.047  0.00  0.00    -0.530 OA
BRANCH   9  12
ATOM     12  C   LIG    1       -4.972   1.941   3.595  0.00  0.00    +0.210 C 
ATOM     13  C   LIG    1       -5.893   0.989   4.360  0.00  0.00    +0.020 C 
ATOM     14  C   LIG    1       -6.491   2.087   3.478  0.00  0.00    +0.030 C 
ENDBRANCH   9  12
ENDBRANCH   5   8
BRANCH   1  15
ATOM     15  C   LIG    1        1.367   1.512  -0.003  0.00  0.00    +0.250 C 
BRANCH  15  21
ATOM     16  C   LIG    1        5.701   1.248  -2.314  0.00  0.00    +0.200 C 
ATOM     17  N   LIG    1        4.355   0.672  -2.185  0.00  0.00    -0.540 NA
ATOM     18  C   LIG    1        4.423  -0.776  -1.949  0.00  0.00    +0.180 C 
ATOM     19  C   LIG    1        3.010  -1.363  -1.965  0.00  0.00    +0.040 C 
ATOM     20  C   LIG    1        2.170  -0.688  -0.877  0.00  0.00    +0.010 C 
ATOM     21  C   LIG    1        2.155   0.824  -1.119  0.00  0.00    -0.010 C 
ATOM     22  C   LIG    1        3.593   1.348  -1.128  0.00  0.00    +0.190 C 
ENDBRANCH  15  21
ENDBRANCH   1  15
TORSDOF 4
