REMARK  Name = ZINCrD000000CWIE.0
REMARK                            x       y       z     vdW  Elec       q    Type
REMARK                         _______ _______ _______ _____ _____    ______ ____
ROOT
ATOM      1  N   LIG    1        3.181   0.584  -1.536  0.00  0.00    -1.060 N 
ATOM      2  H   LIG    1        3.758   0.276  -0.820  0.00  0.00    +0.430 HD
ENDROOT
BRANCH   1   7
ATOM      3  C   LIG    1        4.870   2.841  -3.900  0.00  0.00    +0.190 A 
ATOM      4  C   LIG    1        4.168   4.020  -3.680  0.00  0.00    -0.010 A 
ATOM      5  C   LIG    1        3.145   4.053  -2.752  0.00  0.00    +0.060 A 
ATOM      6  C   LIG    1        2.812   2.915  -2.044  0.00  0.00    +0.020 A 
ATOM      7  C   LIG    1        3.514   1.734  -2.256  0.00  0.00    +0.150 A 
ATOM      8  C   LIG    1        4.542   1.697  -3.187  0.00  0.00    +0.010 A 
BRANCH   3  14
ATOM      9  O   LIG    1        6.509   0.657  -4.600  0.00  0.00    -0.500 OA
ATOM     10  C   LIG    1        6.657   1.738  -5.134  0.00  0.00    +0.640 C 
ATOM     11  O   LIG    1        7.582   1.968  -6.073  0.00  0.00    -0.320 OA
ATOM     12  C   LIG    1        7.503   3.358  -6.502  0.00  0.00    +0.260 C 
ATOM     13  C   LIG    1        6.354   3.944  -5.660  0.00  0.00    +0.260 C 
ATOM     14  N   LIG    1        5.907   2.808  -4.840  0.00  0.00    -0.570 N 
ENDBRANCH   3  14
ENDBRANCH   1   7
BRANCH   1  15
ATOM     15  S   LIG    1        1.800  -0.253  -1.905  0.00  0.00    +2.690 S 
ATOM     16  O   LIG    1        1.783  -1.393  -1.057  0.00  0.00    -0.950 OA
ATOM     17  O   LIG    1        0.750   0.704  -1.943  0.00  0.00    -0.940 OA
BRANCH  15  18
ATOM     18  C   LIG    1        1.981  -0.858  -3.550  0.00  0.00    -0.700 A 
ATOM     19  C   LIG    1        2.646  -2.049  -3.777  0.00  0.00    +0.180 A 
ATOM     20  C   LIG    1        2.794  -2.523  -5.066  0.00  0.00    -0.070 A 
ATOM     21  C   LIG    1        2.265  -1.809  -6.132  0.00  0.00    +0.170 A 
ATOM     22  C   LIG    1        1.599  -0.615  -5.901  0.00  0.00    +0.010 A 
ATOM     23  C   LIG    1        1.459  -0.142  -4.610  0.00  0.00    +0.180 A 
BRANCH  21  24
ATOM     24  O   LIG    1        2.405  -2.276  -7.400  0.00  0.00    -0.310 OA
BRANCH  24  25
ATOM     25  C   LIG    1        3.103  -3.513  -7.563  0.00  0.00    +0.600 C 
ATOM     26  F   LIG    1        4.404  -3.384  -7.064  0.00  0.00    -0.160 F 
ATOM     27  F   LIG    1        3.155  -3.844  -8.921  0.00  0.00    -0.130 F 
ATOM     28  F   LIG    1        2.433  -4.522  -6.863  0.00  0.00    -0.160 F 
ENDBRANCH  24  25
ENDBRANCH  21  24
ENDBRANCH  15  18
ENDBRANCH   1  15
TORSDOF 6
