REMARK  Name = ZINCrD000000AOm5.0
REMARK                            x       y       z     vdW  Elec       q    Type
REMARK                         _______ _______ _______ _____ _____    ______ ____
ROOT
ATOM      1  O   LIG    1        1.303  -0.040  -1.613  0.00  0.00    -0.570 OA
ATOM      2  C   LIG    1        0.489  -0.646  -0.943  0.00  0.00    +0.710 C 
ATOM      3  N   LIG    1        0.119  -1.892  -1.299  0.00  0.00    -0.660 N 
ATOM      4  H   LIG    1       -0.598  -2.340  -0.823  0.00  0.00    +0.420 HD
ATOM      5  N   LIG    1       -0.042  -0.072   0.154  0.00  0.00    -0.730 N 
ATOM      6  H   LIG    1       -0.692  -0.556   0.688  0.00  0.00    +0.410 HD
ENDROOT
BRANCH   3   7
ATOM      7  C   LIG    1        0.768  -2.540  -2.353  0.00  0.00    +0.190 A 
ATOM      8  C   LIG    1        2.017  -2.126  -2.758  0.00  0.00    +0.030 A 
ATOM      9  C   LIG    1        2.676  -2.764  -3.805  0.00  0.00    +0.040 A 
ATOM     10  C   LIG    1        2.101  -3.809  -4.461  0.00  0.00    +0.010 A 
ATOM     11  C   LIG    1        0.826  -4.259  -4.080  0.00  0.00    -0.080 A 
ATOM     12  C   LIG    1        0.204  -5.337  -4.739  0.00  0.00    +0.080 A 
ATOM     13  C   LIG    1       -1.037  -5.720  -4.317  0.00  0.00    -0.030 A 
ATOM     14  C   LIG    1       -1.650  -5.049  -3.261  0.00  0.00    +0.290 A 
ATOM     15  N   LIG    1       -1.067  -4.045  -2.651  0.00  0.00    -0.480 NA
ATOM     16  C   LIG    1        0.146  -3.621  -3.015  0.00  0.00    +0.110 A 
ENDBRANCH   3   7
BRANCH   5  17
ATOM     17  C   LIG    1        0.360   1.282   0.540  0.00  0.00    +0.340 C 
BRANCH  17  18
ATOM     18  C   LIG    1       -0.374   1.687   1.792  0.00  0.00    +0.510 C 
ATOM     19  N   LIG    1       -0.249   2.940   2.272  0.00  0.00    -0.550 N 
ATOM     20  C   LIG    1        0.701   3.881   1.664  0.00  0.00    +0.270 C 
ATOM     21  C   LIG    1        1.451   4.590   2.800  0.00  0.00    +0.020 C 
ATOM     22  C   LIG    1        0.450   5.401   3.622  0.00  0.00    +0.080 C 
ATOM     23  C   LIG    1       -0.715   4.540   4.033  0.00  0.00    -0.110 A 
ATOM     24  C   LIG    1       -1.494   4.935   5.107  0.00  0.00    +0.030 A 
ATOM     25  C   LIG    1       -2.585   4.174   5.495  0.00  0.00    -0.020 A 
ATOM     26  C   LIG    1       -2.892   3.006   4.822  0.00  0.00    +0.030 A 
ATOM     27  C   LIG    1       -2.115   2.603   3.754  0.00  0.00    +0.010 A 
ATOM     28  C   LIG    1       -1.026   3.369   3.357  0.00  0.00    +0.150 A 
ATOM     29  O   LIG    1       -1.079   0.885   2.368  0.00  0.00    -0.510 OA
ENDBRANCH  17  18
ENDBRANCH   5  17
TORSDOF 3
