REMARK  Name = ZINCtV000002K5Gz.0
REMARK                            x       y       z     vdW  Elec       q    Type
REMARK                         _______ _______ _______ _____ _____    ______ ____
ROOT
ATOM      1  C   LIG    1       -1.583   6.585  -1.598  0.00  0.00    +0.150 C 
ATOM      2  C   LIG    1       -0.173   6.517  -2.126  0.00  0.00    +0.100 A 
ATOM      3  C   LIG    1        0.849   6.065  -1.397  0.00  0.00    -0.240 A 
ATOM      4  S   LIG    1        2.304   6.148  -2.387  0.00  0.00    +0.140 S 
ATOM      5  C   LIG    1        1.397   6.791  -3.685  0.00  0.00    +0.270 A 
ATOM      6  N   LIG    1        0.151   6.905  -3.346  0.00  0.00    -0.470 NA
ENDROOT
BRANCH   5   7
ATOM      7  N   LIG    1        1.919   7.141  -4.924  0.00  0.00    -0.620 N 
ATOM      8  H   LIG    1        2.866   7.026  -5.101  0.00  0.00    +0.430 HD
ATOM      9  C   LIG    1        1.111   7.642  -5.879  0.00  0.00    +0.570 C 
ATOM     10  O   LIG    1       -0.076   7.786  -5.657  0.00  0.00    -0.420 OA
BRANCH   9  11
ATOM     11  C   LIG    1        1.667   8.015  -7.198  0.00  0.00    +0.120 A 
ATOM     12  N   LIG    1        2.965   7.860  -7.433  0.00  0.00    -0.420 NA
ATOM     13  C   LIG    1        3.499   8.174  -8.594  0.00  0.00    +0.190 A 
ATOM     14  C   LIG    1        2.721   8.694  -9.620  0.00  0.00    -0.050 A 
ATOM     15  C   LIG    1        1.361   8.878  -9.415  0.00  0.00    +0.010 A 
ATOM     16 CL   LIG    1        0.353   9.525 -10.672  0.00  0.00    +0.020 Cl
ATOM     17 CL   LIG    1        3.443   9.111 -11.142  0.00  0.00    +0.020 Cl
ATOM     18 CL   LIG    1        5.201   7.942  -8.844  0.00  0.00    +0.030 Cl
ATOM     19  C   LIG    1        0.825   8.532  -8.182  0.00  0.00    -0.020 A 
ATOM     20 CL   LIG    1       -0.871   8.739  -7.870  0.00  0.00    +0.040 Cl
ENDBRANCH   9  11
ENDBRANCH   5   7
BRANCH   3  21
ATOM     21  C   LIG    1        0.771   5.565   0.022  0.00  0.00    +0.200 C 
BRANCH  21  22
ATOM     22  C   LIG    1        0.496   4.083   0.018  0.00  0.00    -0.070 A 
ATOM     23  C   LIG    1       -0.808   3.624   0.028  0.00  0.00    +0.040 A 
ATOM     24  C   LIG    1       -1.065   2.265   0.019  0.00  0.00    +0.040 A 
ATOM     25  C   LIG    1       -0.016   1.361   0.009  0.00  0.00    +0.030 A 
ATOM     26  O   LIG    1        0.002  -0.004   0.002  0.00  0.00    -0.310 OA
ATOM     27  C   LIG    1        1.336  -0.373   0.399  0.00  0.00    +0.430 C 
ATOM     28  O   LIG    1        2.139   0.749  -0.014  0.00  0.00    -0.310 OA
ATOM     29  C   LIG    1        1.297   1.824  -0.001  0.00  0.00    +0.040 A 
ATOM     30  C   LIG    1        1.548   3.186   0.004  0.00  0.00    +0.040 A 
ENDBRANCH  21  22
ENDBRANCH   3  21
TORSDOF 4
