REMARK  Name = ZINCtV000002zBQQ.0
REMARK                            x       y       z     vdW  Elec       q    Type
REMARK                         _______ _______ _______ _____ _____    ______ ____
ROOT
ATOM      1  C   LIG    1        5.917   7.492  -0.015  0.00  0.00    +0.250 C 
ATOM      2  C   LIG    1        6.408   8.274   1.221  0.00  0.00    +0.030 C 
ATOM      3  C   LIG    1        6.584   9.725   0.708  0.00  0.00    +0.020 C 
ATOM      4  C   LIG    1        7.144   9.517  -0.721  0.00  0.00    +0.040 C 
ATOM      5  C   LIG    1        6.385   8.282  -1.249  0.00  0.00    +0.030 C 
ENDROOT
BRANCH   5   6
ATOM      6  C   LIG    1        7.302   7.432  -2.089  0.00  0.00    -0.050 A 
ATOM      7  C   LIG    1        8.481   6.948  -1.552  0.00  0.00    +0.020 A 
ATOM      8  C   LIG    1        9.320   6.164  -2.321  0.00  0.00    +0.080 A 
ATOM      9  C   LIG    1        8.986   5.871  -3.630  0.00  0.00    -0.180 A 
ATOM     10  C   LIG    1        7.811   6.359  -4.169  0.00  0.00    +0.070 A 
ATOM     11  C   LIG    1        6.968   7.139  -3.398  0.00  0.00    +0.020 A 
BRANCH   9  12
ATOM     12  C   LIG    1        9.904   5.021  -4.470  0.00  0.00    +0.510 C 
ATOM     13  F   LIG    1        9.151   4.310  -5.410  0.00  0.00    -0.180 F 
ATOM     14  F   LIG    1       10.591   4.123  -3.646  0.00  0.00    -0.180 F 
ATOM     15  F   LIG    1       10.823   5.842  -5.133  0.00  0.00    -0.180 F 
ENDBRANCH   9  12
ENDBRANCH   5   6
BRANCH   1  17
ATOM     16  C   LIG    1        3.645   8.622   0.012  0.00  0.00    +0.320 C 
ATOM     17  N   LIG    1        4.455   7.402  -0.002  0.00  0.00    -0.550 N 
BRANCH  17  18
ATOM     18  C   LIG    1        3.843   6.171  -0.002  0.00  0.00    +0.430 A 
ATOM     19  N   LIG    1        2.543   5.939   0.009  0.00  0.00    -0.530 NA
ATOM     20  C   LIG    1        2.417   4.595   0.003  0.00  0.00    +0.240 A 
ATOM     21  N   LIG    1        3.624   4.090  -0.006  0.00  0.00    -0.380 NA
ATOM     22  O   LIG    1        4.452   4.977  -0.014  0.00  0.00    +0.040 OA
BRANCH  20  23
ATOM     23  C   LIG    1        1.145   3.831   0.012  0.00  0.00    -0.010 A 
ATOM     24  C   LIG    1       -0.075   4.504   0.027  0.00  0.00    +0.070 A 
ATOM     25  C   LIG    1       -1.256   3.789   0.034  0.00  0.00    +0.030 A 
ATOM     26  C   LIG    1       -1.230   2.407   0.021  0.00  0.00    +0.050 A 
ATOM     27  C   LIG    1       -0.021   1.732   0.012  0.00  0.00    -0.040 A 
ATOM     28 CL   LIG    1        0.002  -0.004   0.002  0.00  0.00    -0.060 Cl
ATOM     29  C   LIG    1        1.166   2.438   0.004  0.00  0.00    +0.060 A 
ENDBRANCH  20  23
ENDBRANCH  17  18
ENDBRANCH   1  17
TORSDOF 5
