REMARK  Name = ZINCpk000000mN87.0
REMARK                            x       y       z     vdW  Elec       q    Type
REMARK                         _______ _______ _______ _____ _____    ______ ____
ROOT
ATOM      1  C   LIG    1       -3.184   3.464   3.078  0.00  0.00    +0.190 C 
ATOM      2  C   LIG    1       -4.411   4.012   3.805  0.00  0.00    +0.050 C 
ATOM      3  C   LIG    1       -5.274   4.802   2.819  0.00  0.00    +0.030 C 
ATOM      4  C   LIG    1       -5.749   3.875   1.698  0.00  0.00    +0.010 C 
ATOM      5  C   LIG    1       -4.533   3.326   0.944  0.00  0.00    +0.270 C 
ATOM      6  N   LIG    1       -3.626   2.691   1.910  0.00  0.00    -0.590 N 
ATOM      7  C   LIG    1       -3.211   1.421   1.729  0.00  0.00    +0.520 C 
ATOM      8  O   LIG    1       -2.387   0.941   2.478  0.00  0.00    -0.500 OA
ENDROOT
BRANCH   1   9
ATOM      9  C   LIG    1       -2.405   2.571   4.010  0.00  0.00    +0.490 C 
ATOM     10  O   LIG    1       -2.968   2.007   4.918  0.00  0.00    -0.510 OA
BRANCH   9  11
ATOM     11  O   LIG    1       -1.085   2.402   3.830  0.00  0.00    -0.340 OA
ATOM     12  C   LIG    1       -0.400   1.528   4.765  0.00  0.00    +0.250 C 
ENDBRANCH   9  11
ENDBRANCH   1   9
BRANCH   1  13
ATOM     13  C   LIG    1       -2.301   4.627   2.620  0.00  0.00    +0.080 C 
BRANCH  13  15
ATOM     14  C   LIG    1       -0.962   4.562   0.580  0.00  0.00    -0.010 C 
ATOM     15  C   LIG    1       -1.163   4.096   1.788  0.00  0.00    -0.020 C 
ENDBRANCH  13  15
ENDBRANCH   1  13
BRANCH   7  16
ATOM     16  C   LIG    1       -3.772   0.599   0.598  0.00  0.00    +0.220 C 
BRANCH  16  17
ATOM     17  C   LIG    1       -3.149  -0.773   0.617  0.00  0.00    +0.180 A 
ATOM     18  N   LIG    1       -2.058  -1.143  -0.008  0.00  0.00    -0.290 NA
ATOM     19  N   LIG    1       -1.857  -2.390   0.252  0.00  0.00    -0.130 N 
ATOM     20  N   LIG    1       -2.794  -2.816   1.025  0.00  0.00    -0.060 NA
ATOM     21  N   LIG    1       -3.605  -1.843   1.268  0.00  0.00    -0.270 NA
BRANCH  19  22
ATOM     22  C   LIG    1       -0.740  -3.193  -0.253  0.00  0.00    +0.180 C 
ATOM     23  C   LIG    1        0.581  -2.580   0.215  0.00  0.00    +0.080 C 
ATOM     24  C   LIG    1       -0.778  -3.216  -1.782  0.00  0.00    +0.080 C 
ATOM     25  C   LIG    1       -0.857  -4.622   0.282  0.00  0.00    +0.100 C 
ENDBRANCH  19  22
ENDBRANCH  16  17
ENDBRANCH   7  16
TORSDOF 7
