REMARK  Name = ZINCvU0000000J1Q.0
REMARK                            x       y       z     vdW  Elec       q    Type
REMARK                         _______ _______ _______ _____ _____    ______ ____
ROOT
ATOM      1  C   LIG    1        3.640   6.042   0.016  0.00  0.00    +0.260 C 
ENDROOT
BRANCH   1   4
ATOM      2  N   LIG    1        4.773   8.111   0.760  0.00  0.00    -0.620 N 
ATOM      3  H   LIG    1        5.614   7.629   0.723  0.00  0.00    +0.430 HD
ATOM      4  C   LIG    1        3.631   7.505   0.381  0.00  0.00    +0.520 C 
ATOM      5  O   LIG    1        2.597   8.135   0.333  0.00  0.00    -0.490 OA
BRANCH   2  12
ATOM      6  C   LIG    1        4.432  15.332   3.171  0.00  0.00    +0.110 C 
ATOM      7  C   LIG    1        4.837  13.940   2.757  0.00  0.00    -0.070 A 
ATOM      8  C   LIG    1        6.167  13.555   2.827  0.00  0.00    +0.020 A 
ATOM      9  C   LIG    1        6.549  12.291   2.454  0.00  0.00    -0.030 A 
ATOM     10  C   LIG    1        5.593  11.362   1.993  0.00  0.00    +0.100 A 
ATOM     11  N   LIG    1        5.779  10.091   1.587  0.00  0.00    -0.500 NA
ATOM     12  C   LIG    1        4.746   9.423   1.204  0.00  0.00    +0.310 A 
ATOM     13  S   LIG    1        3.299  10.415   1.315  0.00  0.00    +0.170 S 
ATOM     14  C   LIG    1        4.255  11.764   1.927  0.00  0.00    -0.200 A 
ATOM     15  C   LIG    1        8.000  11.893   2.537  0.00  0.00    +0.100 C 
ATOM     16  C   LIG    1        3.885  13.050   2.311  0.00  0.00    +0.050 A 
ENDBRANCH   2  12
ENDBRANCH   1   4
BRANCH   1  17
ATOM     17  N   LIG    1        2.310   5.473   0.250  0.00  0.00    -0.720 N 
ATOM     18  H   LIG    1        1.528   6.046   0.233  0.00  0.00    +0.410 HD
ATOM     19  C   LIG    1        2.175   4.153   0.488  0.00  0.00    +0.570 C 
ATOM     20  O   LIG    1        3.155   3.436   0.509  0.00  0.00    -0.530 OA
BRANCH  19  21
ATOM     21  C   LIG    1        0.833   3.579   0.724  0.00  0.00    -0.140 A 
ATOM     22  C   LIG    1        0.689   2.213   0.970  0.00  0.00    +0.090 A 
ATOM     23  C   LIG    1       -0.566   1.683   1.190  0.00  0.00    +0.010 A 
ATOM     24  C   LIG    1       -1.681   2.502   1.160  0.00  0.00    -0.040 A 
ATOM     25  C   LIG    1       -1.544   3.858   0.922  0.00  0.00    +0.000 A 
ATOM     26  C   LIG    1       -0.295   4.400   0.701  0.00  0.00    +0.050 A 
BRANCH  24  27
ATOM     27  C   LIG    1       -3.049   1.915   1.395  0.00  0.00    -0.040 C 
ATOM     28  C   LIG    1       -3.338   0.855   0.330  0.00  0.00    +0.040 C 
ATOM     29  C   LIG    1       -4.100   3.023   1.310  0.00  0.00    +0.030 C 
ATOM     30  C   LIG    1       -3.097   1.272   2.782  0.00  0.00    +0.040 C 
ENDBRANCH  24  27
ENDBRANCH  19  21
ENDBRANCH   1  17
BRANCH   1  31
ATOM     31  C   LIG    1        4.009   5.887  -1.461  0.00  0.00    -0.020 C 
ATOM     32  C   LIG    1        3.924   4.411  -1.855  0.00  0.00    +0.050 C 
ATOM     33  C   LIG    1        5.434   6.394  -1.686  0.00  0.00    +0.040 C 
ENDBRANCH   1  31
TORSDOF 6
