REMARK  Name = ZINCpk00000ebfgR.0
REMARK                            x       y       z     vdW  Elec       q    Type
REMARK                         _______ _______ _______ _____ _____    ______ ____
ROOT
ATOM      1  N   LIG    1       -2.201   6.264   4.353  0.00  0.00    -0.530 NA
ATOM      2  C   LIG    1       -2.332   7.433   5.221  0.00  0.00    +0.170 C 
ATOM      3  C   LIG    1       -1.051   8.071   5.581  0.00  0.00    +0.030 C 
ATOM      4  C   LIG    1       -0.351   8.595   4.302  0.00  0.00    +0.270 C 
ATOM      5  N   LIG    1        0.100   7.476   3.504  0.00  0.00    -0.590 N 
ATOM      6  C   LIG    1       -0.743   6.831   2.476  0.00  0.00    +0.270 C 
ATOM      7  C   LIG    1        1.345   7.001   3.708  0.00  0.00    +0.560 C 
ATOM      8  O   LIG    1        1.691   5.960   3.184  0.00  0.00    -0.520 OA
ATOM      9  C   LIG    1       -2.195   6.660   2.960  0.00  0.00    +0.170 C 
ENDROOT
BRANCH   7  10
ATOM     10  C   LIG    1        2.287   7.744   4.566  0.00  0.00    -0.110 A 
ATOM     11  C   LIG    1        1.974   7.987   5.906  0.00  0.00    +0.060 A 
ATOM     12  C   LIG    1        2.857   8.681   6.705  0.00  0.00    +0.040 A 
ATOM     13  C   LIG    1        4.056   9.140   6.188  0.00  0.00    +0.060 A 
ATOM     14  C   LIG    1        4.381   8.908   4.862  0.00  0.00    +0.030 A 
ATOM     15  O   LIG    1        5.479   9.251   4.126  0.00  0.00    -0.310 OA
ATOM     16  C   LIG    1        5.079   9.110   2.750  0.00  0.00    +0.440 C 
ATOM     17  O   LIG    1        4.042   8.111   2.797  0.00  0.00    -0.300 OA
ATOM     18  C   LIG    1        3.502   8.203   4.044  0.00  0.00    +0.080 A 
ENDBRANCH   7  10
BRANCH   1  19
ATOM     19  C   LIG    1       -3.267   5.289   4.617  0.00  0.00    +0.260 C 
BRANCH  19  23
ATOM     20  C   LIG    1       -2.247   1.087   2.083  0.00  0.00    +0.360 C 
ATOM     21  N   LIG    1       -2.802   2.391   2.453  0.00  0.00    -0.370 N 
ATOM     22  C   LIG    1       -2.548   3.067   3.593  0.00  0.00    +0.250 A 
ATOM     23  C   LIG    1       -3.250   4.223   3.552  0.00  0.00    -0.240 A 
ATOM     24  C   LIG    1       -3.957   4.255   2.345  0.00  0.00    +0.230 A 
ATOM     25  N   LIG    1       -3.684   3.160   1.683  0.00  0.00    -0.290 NA
ENDBRANCH  19  23
ENDBRANCH   1  19
TORSDOF 3
