REMARK  Name = ZINCpe000000UeVn.0
REMARK                            x       y       z     vdW  Elec       q    Type
REMARK                         _______ _______ _______ _____ _____    ______ ____
ROOT
ATOM      1  C   LIG    1        3.795   1.403  -1.137  0.00  0.00    +0.590 C 
ATOM      2  N   LIG    1        2.617   2.057  -1.130  0.00  0.00    -0.610 N 
ATOM      3  C   LIG    1        2.123   2.740  -2.337  0.00  0.00    +0.250 C 
ATOM      4  C   LIG    1        0.680   2.289  -2.590  0.00  0.00    +0.220 C 
ATOM      5  O   LIG    1       -0.087   2.473  -1.398  0.00  0.00    -0.350 OA
ATOM      6  C   LIG    1        0.360   1.690  -0.288  0.00  0.00    +0.140 C 
ATOM      7  C   LIG    1        1.787   2.111   0.084  0.00  0.00    +0.260 C 
ATOM      8  O   LIG    1        4.146   0.771  -0.158  0.00  0.00    -0.520 OA
ENDROOT
BRANCH   1  12
ATOM      9  C   LIG    1        6.259   1.514  -4.563  0.00  0.00    +0.190 A 
ATOM     10  C   LIG    1        6.225   2.595  -3.743  0.00  0.00    -0.200 A 
ATOM     11  C   LIG    1        5.417   2.587  -2.607  0.00  0.00    +0.180 A 
ATOM     12  C   LIG    1        4.657   1.452  -2.327  0.00  0.00    -0.260 A 
ATOM     13  C   LIG    1        4.726   0.347  -3.215  0.00  0.00    +0.540 A 
ATOM     14  O   LIG    1        4.068  -0.655  -2.996  0.00  0.00    -0.530 OA
ATOM     15  C   LIG    1        7.060   3.809  -4.063  0.00  0.00    +0.110 C 
ATOM     16  N   LIG    1        5.520   0.410  -4.301  0.00  0.00    -0.600 N 
ATOM     17  H   LIG    1        5.564  -0.348  -4.905  0.00  0.00    +0.420 HD
BRANCH   9  19
ATOM     18  C   LIG    1        8.482   0.891  -5.470  0.00  0.00    +0.050 C 
ATOM     19  C   LIG    1        7.135   1.544  -5.789  0.00  0.00    +0.100 C 
ENDBRANCH   9  19
ENDBRANCH   1  12
BRANCH   6  20
ATOM     20  C   LIG    1       -0.567   1.920   0.907  0.00  0.00    +0.210 C 
BRANCH  20  21
ATOM     21  N   LIG    1       -1.931   1.501   0.556  0.00  0.00    -0.530 NA
ATOM     22  C   LIG    1       -2.908   2.023   1.523  0.00  0.00    +0.150 C 
ATOM     23  C   LIG    1       -4.317   1.615   1.087  0.00  0.00    +0.220 C 
ATOM     24  O   LIG    1       -4.380   0.191   0.969  0.00  0.00    -0.390 OA
ATOM     25  C   LIG    1       -3.443  -0.352   0.035  0.00  0.00    +0.220 C 
ATOM     26  C   LIG    1       -2.024   0.037   0.460  0.00  0.00    +0.140 C 
ENDBRANCH  20  21
ENDBRANCH   6  20
TORSDOF 4
