REMARK  Name = ZINCvU00000006sP.0
REMARK                            x       y       z     vdW  Elec       q    Type
REMARK                         _______ _______ _______ _____ _____    ______ ____
ROOT
ATOM      1  C   LIG    1        0.962  -3.584   0.216  0.00  0.00    +0.100 C 
ENDROOT
BRANCH   1   3
ATOM      2  O   LIG    1        1.276  -5.191  -1.483  0.00  0.00    -0.510 OA
ATOM      3  C   LIG    1        1.128  -4.991  -0.296  0.00  0.00    +0.540 C 
ATOM      4  N   LIG    1        1.111  -6.028   0.565  0.00  0.00    -0.570 N 
BRANCH   4   5
ATOM      5  C   LIG    1        0.788  -5.817   1.903  0.00  0.00    +0.080 C 
ATOM      6  C   LIG    1       -0.437  -5.473   2.190  0.00  0.00    -0.030 C 
ATOM      7  C   LIG    1       -0.928  -5.208   3.583  0.00  0.00    +0.070 C 
ATOM      8  C   LIG    1        0.050  -5.787   4.607  0.00  0.00    +0.020 C 
ATOM      9  C   LIG    1        1.466  -5.325   4.242  0.00  0.00    +0.020 C 
ATOM     10  C   LIG    1        1.871  -5.994   2.927  0.00  0.00    +0.060 C 
ENDBRANCH   4   5
BRANCH   4  11
ATOM     11  C   LIG    1        1.435  -7.377   0.094  0.00  0.00    +0.420 C 
BRANCH  11  12
ATOM     12  C   LIG    1        2.931  -7.550   0.053  0.00  0.00    -0.040 A 
ATOM     13  C   LIG    1        3.699  -7.998   1.063  0.00  0.00    -0.040 A 
ATOM     14  C   LIG    1        5.032  -8.003   0.592  0.00  0.00    -0.070 A 
ATOM     15  C   LIG    1        5.000  -7.550  -0.674  0.00  0.00    +0.170 A 
ATOM     16  O   LIG    1        3.725  -7.277  -0.995  0.00  0.00    -0.160 OA
ENDBRANCH  11  12
ENDBRANCH   4  11
ENDBRANCH   1   3
BRANCH   1  17
ATOM     17  S   LIG    1        0.922  -2.434  -1.181  0.00  0.00    +0.090 S 
BRANCH  17  18
ATOM     18  C   LIG    1        0.726  -0.910  -0.318  0.00  0.00    +0.140 A 
ATOM     19  N   LIG    1        0.642  -0.755   0.983  0.00  0.00    -0.290 NA
ATOM     20  N   LIG    1        0.504   0.491   1.266  0.00  0.00    -0.270 NA
ATOM     21  C   LIG    1        0.491   1.199   0.172  0.00  0.00    +0.200 A 
ATOM     22  N   LIG    1        0.627   0.332  -0.876  0.00  0.00    -0.430 N 
BRANCH  22  23
ATOM     23  C   LIG    1        0.662   0.666  -2.302  0.00  0.00    +0.200 C 
ATOM     24  C   LIG    1        0.459  -0.475  -3.301  0.00  0.00    +0.070 C 
ATOM     25  C   LIG    1        1.846   0.147  -3.121  0.00  0.00    +0.060 C 
ENDBRANCH  22  23
BRANCH  21  26
ATOM     26  C   LIG    1        0.347   2.697   0.080  0.00  0.00    +0.250 C 
BRANCH  26  27
ATOM     27  C   LIG    1        1.711   3.336   0.123  0.00  0.00    -0.190 A 
ATOM     28  C   LIG    1        2.473   3.596  -0.941  0.00  0.00    +0.010 A 
ATOM     29  C   LIG    1        3.689   4.192  -0.657  0.00  0.00    +0.000 A 
ATOM     30  C   LIG    1        3.920   4.407   0.639  0.00  0.00    -0.040 A 
ATOM     31  S   LIG    1        2.546   3.846   1.584  0.00  0.00    +0.130 S 
ENDBRANCH  26  27
ENDBRANCH  21  26
ENDBRANCH  17  18
ENDBRANCH   1  17
TORSDOF 9
