REMARK  Name = ZINCpk000000oi0U.0
REMARK                            x       y       z     vdW  Elec       q    Type
REMARK                         _______ _______ _______ _____ _____    ______ ____
ROOT
ATOM      1  C   LIG    1       -0.930   0.777  -2.248  0.00  0.00    +0.540 C 
ATOM      2  N   LIG    1       -0.728   1.575  -1.181  0.00  0.00    -0.550 N 
ATOM      3  C   LIG    1       -0.013   1.086   0.008  0.00  0.00    +0.340 C 
ATOM      4  C   LIG    1       -0.722   1.574   1.245  0.00  0.00    +0.510 C 
ATOM      5  N   LIG    1       -1.416   2.729   1.231  0.00  0.00    -0.660 N 
ATOM      6  H   LIG    1       -1.838   3.044   2.045  0.00  0.00    +0.420 HD
ATOM      7  C   LIG    1       -1.532   3.479   0.056  0.00  0.00    +0.130 A 
ATOM      8  C   LIG    1       -1.987   4.787   0.092  0.00  0.00    +0.010 A 
ATOM      9  C   LIG    1       -2.105   5.508  -1.083  0.00  0.00    +0.030 A 
ATOM     10  C   LIG    1       -1.770   4.930  -2.293  0.00  0.00    +0.010 A 
ATOM     11  C   LIG    1       -1.314   3.624  -2.339  0.00  0.00    +0.060 A 
ATOM     12  O   LIG    1       -0.669   0.918   2.264  0.00  0.00    -0.510 OA
ATOM     13  C   LIG    1       -1.192   2.899  -1.168  0.00  0.00    +0.110 A 
ATOM     14  O   LIG    1       -1.522   1.200  -3.218  0.00  0.00    -0.490 OA
ENDROOT
BRANCH   1  15
ATOM     15  C   LIG    1       -0.421  -0.642  -2.235  0.00  0.00    +0.120 C 
BRANCH  15  16
ATOM     16  S   LIG    1       -0.846  -1.449  -3.798  0.00  0.00    +0.120 S 
BRANCH  16  23
ATOM     17  N   LIG    1       -0.180  -4.099  -4.401  0.00  0.00    -0.530 N 
ATOM     18  C   LIG    1        0.450  -5.146  -3.833  0.00  0.00    +0.650 A 
ATOM     19  N   LIG    1        0.868  -4.755  -2.611  0.00  0.00    -0.540 N 
ATOM     20  H   LIG    1        1.353  -5.298  -1.969  0.00  0.00    +0.460 HD
ATOM     21  N   LIG    1        0.477  -3.420  -2.441  0.00  0.00    -0.280 NA
ATOM     22  O   LIG    1        0.613  -6.246  -4.331  0.00  0.00    -0.550 OA
ATOM     23  C   LIG    1       -0.152  -3.044  -3.517  0.00  0.00    +0.240 A 
BRANCH  17  24
ATOM     24  C   LIG    1       -0.792  -4.086  -5.732  0.00  0.00    +0.320 C 
BRANCH  24  25
ATOM     25  C   LIG    1        0.244  -3.638  -6.765  0.00  0.00    +0.000 C 
BRANCH  25  27
ATOM     26  C   LIG    1        0.641  -3.176  -9.188  0.00  0.00    +0.020 C 
ATOM     27  C   LIG    1       -0.395  -3.625  -8.155  0.00  0.00    +0.020 C 
ENDBRANCH  25  27
ENDBRANCH  24  25
ENDBRANCH  17  24
ENDBRANCH  16  23
ENDBRANCH  15  16
ENDBRANCH   1  15
TORSDOF 6
