REMARK  Name = ZINCrD00000758M8.0
REMARK                            x       y       z     vdW  Elec       q    Type
REMARK                         _______ _______ _______ _____ _____    ______ ____
ROOT
ATOM      1  C   LIG    1        1.421   3.345   6.071  0.00  0.00    +0.510 C 
ATOM      2  O   LIG    1        1.801   2.192   6.087  0.00  0.00    -0.480 OA
ENDROOT
BRANCH   1  11
ATOM      3  C   LIG    1        3.761   1.490   7.224  0.00  0.00    +0.210 C 
ATOM      4  C   LIG    1        3.962   2.804   7.934  0.00  0.00    +0.150 A 
ATOM      5  N   LIG    1        4.886   3.075   8.805  0.00  0.00    -0.270 NA
ATOM      6  O   LIG    1        4.749   4.410   9.245  0.00  0.00    -0.080 OA
ATOM      7  C   LIG    1        3.700   4.984   8.622  0.00  0.00    +0.300 A 
ATOM      8  N   LIG    1        3.163   6.192   8.681  0.00  0.00    -0.450 NA
ATOM      9  C   LIG    1        2.115   6.526   7.958  0.00  0.00    +0.230 A 
ATOM     10  C   LIG    1        1.513   5.628   7.092  0.00  0.00    +0.030 A 
ATOM     11  C   LIG    1        2.030   4.337   6.982  0.00  0.00    +0.010 A 
ATOM     12  C   LIG    1        3.149   4.009   7.773  0.00  0.00    -0.200 A 
BRANCH   9  13
ATOM     13  C   LIG    1        1.556   7.921   8.076  0.00  0.00    +0.020 C 
ATOM     14  C   LIG    1        0.608   8.397   6.974  0.00  0.00    +0.050 C 
ATOM     15  C   LIG    1        2.028   8.960   7.056  0.00  0.00    +0.060 C 
ENDBRANCH   9  13
ENDBRANCH   1  11
BRANCH   1  16
ATOM     16  O   LIG    1        0.443   3.720   5.223  0.00  0.00    -0.320 OA
BRANCH  16  17
ATOM     17  C   LIG    1       -0.108   2.693   4.357  0.00  0.00    +0.270 C 
BRANCH  17  18
ATOM     18  C   LIG    1       -1.181   3.293   3.486  0.00  0.00    +0.520 C 
ATOM     19  N   LIG    1       -1.838   2.522   2.597  0.00  0.00    -0.600 N 
ATOM     20  C   LIG    1       -1.605   1.072   2.549  0.00  0.00    +0.220 C 
ATOM     21  C   LIG    1       -1.239   0.678   1.115  0.00  0.00    +0.020 C 
ATOM     22  C   LIG    1       -2.327   1.173   0.160  0.00  0.00    +0.020 C 
ATOM     23  C   LIG    1       -2.419   2.699   0.234  0.00  0.00    +0.020 C 
ATOM     24  C   LIG    1       -2.877   0.335   2.974  0.00  0.00    +0.030 C 
ATOM     25  C   LIG    1       -2.800   3.115   1.658  0.00  0.00    +0.230 C 
ATOM     26  C   LIG    1       -2.757   4.640   1.775  0.00  0.00    +0.060 C 
ATOM     27  O   LIG    1       -1.454   4.471   3.584  0.00  0.00    -0.500 OA
ENDBRANCH  17  18
ENDBRANCH  16  17
ENDBRANCH   1  16
TORSDOF 5
