REMARK  Name = ZINCrH000004rpRO.0
REMARK                            x       y       z     vdW  Elec       q    Type
REMARK                         _______ _______ _______ _____ _____    ______ ____
ROOT
ATOM      1  C   LIG    1        5.956   1.182  -0.153  0.00  0.00    +0.270 C 
ENDROOT
BRANCH   1   2
ATOM      2  N   LIG    1        4.531   1.521  -0.178  0.00  0.00    -0.560 N 
ATOM      3  C   LIG    1        4.041   2.722  -0.533  0.00  0.00    +0.580 C 
ATOM      4  C   LIG    1        2.567   2.678  -0.433  0.00  0.00    -0.140 A 
ATOM      5  C   LIG    1        1.553   3.593  -0.665  0.00  0.00    +0.100 A 
ATOM      6  C   LIG    1        0.232   3.220  -0.469  0.00  0.00    +0.050 A 
ATOM      7  C   LIG    1       -0.079   1.943  -0.043  0.00  0.00    +0.040 A 
ATOM      8  C   LIG    1        0.925   1.017   0.195  0.00  0.00    +0.100 A 
ATOM      9  C   LIG    1        2.249   1.375   0.003  0.00  0.00    -0.140 A 
ATOM     10  O   LIG    1        4.699   3.683  -0.879  0.00  0.00    -0.450 OA
ATOM     11  C   LIG    1        3.541   0.672   0.152  0.00  0.00    +0.580 C 
ATOM     12  O   LIG    1        3.684  -0.479   0.511  0.00  0.00    -0.460 OA
ENDBRANCH   1   2
BRANCH   1  15
ATOM     13  N   LIG    1        7.980   1.881   1.084  0.00  0.00    -0.670 N 
ATOM     14  H   LIG    1        8.497   1.292   0.513  0.00  0.00    +0.410 HD
ATOM     15  C   LIG    1        6.655   2.022   0.884  0.00  0.00    +0.510 C 
ATOM     16  O   LIG    1        6.025   2.826   1.538  0.00  0.00    -0.490 OA
BRANCH  13  21
ATOM     17  C   LIG    1       10.533   4.733   5.274  0.00  0.00    +0.110 C 
ATOM     18  C   LIG    1        9.855   3.975   4.161  0.00  0.00    -0.130 A 
ATOM     19  C   LIG    1        8.549   3.550   4.312  0.00  0.00    +0.070 A 
ATOM     20  C   LIG    1        7.925   2.855   3.293  0.00  0.00    +0.010 A 
ATOM     21  C   LIG    1        8.611   2.584   2.116  0.00  0.00    +0.170 A 
ATOM     22  C   LIG    1        9.925   3.008   1.968  0.00  0.00    -0.040 A 
ATOM     23  C   LIG    1       10.543   3.707   2.989  0.00  0.00    +0.120 A 
ATOM     24  F   LIG    1       11.820   4.124   2.844  0.00  0.00    -0.130 F 
ENDBRANCH  13  21
ENDBRANCH   1  15
BRANCH   1  25
ATOM     25  C   LIG    1        6.569   1.454  -1.528  0.00  0.00    +0.050 C 
BRANCH  25  26
ATOM     26  C   LIG    1        5.919   0.538  -2.567  0.00  0.00    -0.020 C 
ATOM     27  C   LIG    1        6.264  -0.918  -2.250  0.00  0.00    +0.020 C 
ATOM     28  C   LIG    1        6.443   0.894  -3.960  0.00  0.00    +0.030 C 
ENDBRANCH  25  26
ENDBRANCH   1  25
TORSDOF 5
