REMARK  Name = ZINCpe000000X2JK.1
REMARK                            x       y       z     vdW  Elec       q    Type
REMARK                         _______ _______ _______ _____ _____    ______ ____
ROOT
ATOM      1  S   LIG    1        3.094  -2.487   4.652  0.00  0.00    +2.500 S 
ATOM      2  O   LIG    1        2.098  -3.275   5.289  0.00  0.00    -0.930 OA
ATOM      3  O   LIG    1        3.889  -1.571   5.394  0.00  0.00    -0.930 OA
ENDROOT
BRANCH   1   4
ATOM      4  C   LIG    1        4.250  -3.665   4.035  0.00  0.00    -0.660 A 
ATOM      5  C   LIG    1        3.836  -4.952   3.749  0.00  0.00    +0.140 A 
ATOM      6  C   LIG    1        4.737  -5.881   3.259  0.00  0.00    +0.010 A 
ATOM      7  C   LIG    1        6.059  -5.519   3.067  0.00  0.00    +0.120 A 
ATOM      8  O   LIG    1        6.960  -6.426   2.590  0.00  0.00    -0.320 OA
ATOM      9  C   LIG    1        7.969  -6.848   3.509  0.00  0.00    +0.230 C 
ATOM     10  C   LIG    1        9.132  -5.868   3.520  0.00  0.00    +0.000 C 
ATOM     11  C   LIG    1        8.729  -4.497   4.041  0.00  0.00    +0.230 C 
ATOM     12  O   LIG    1        7.782  -3.881   3.166  0.00  0.00    -0.310 OA
ATOM     13  C   LIG    1        6.477  -4.228   3.360  0.00  0.00    +0.050 A 
ATOM     14  C   LIG    1        5.571  -3.300   3.845  0.00  0.00    +0.140 A 
ENDBRANCH   1   4
BRANCH   1  15
ATOM     15  C   LIG    1        2.423  -1.691   3.167  0.00  0.00    -0.290 C 
BRANCH  15  16
ATOM     16  C   LIG    1        1.394  -0.634   3.575  0.00  0.00    +0.080 C 
BRANCH  16  25
ATOM     17  C   LIG    1       -0.005   1.093   0.009  0.00  0.00    +0.060 C 
ATOM     18  C   LIG    1       -0.725   1.583   1.267  0.00  0.00    +0.230 C 
ATOM     19  C   LIG    1       -0.618   3.109   1.360  0.00  0.00    +0.170 C 
ATOM     20  N   LIG    1       -1.174   3.558   2.643  0.00  0.00    -0.690 NA
ATOM     21  H   LIG    1       -1.225   4.565   2.683  0.00  0.00    +0.350 HD
ATOM     22  C   LIG    1       -0.402   3.025   3.774  0.00  0.00    +0.170 C 
ATOM     23  C   LIG    1       -0.500   1.496   3.780  0.00  0.00    +0.270 C 
ATOM     24  N   LIG    1       -0.092   0.997   2.458  0.00  0.00    -0.610 N 
ATOM     25  C   LIG    1        0.837   0.027   2.341  0.00  0.00    +0.520 C 
ATOM     26  O   LIG    1        1.224  -0.313   1.244  0.00  0.00    -0.520 OA
ENDBRANCH  16  25
ENDBRANCH  15  16
ENDBRANCH   1  15
TORSDOF 4
