REMARK  Name = ZINCtV000002ADkt.0
REMARK                            x       y       z     vdW  Elec       q    Type
REMARK                         _______ _______ _______ _____ _____    ______ ____
ROOT
ATOM      1  N   LIG    1        2.580  -1.103  -0.029  0.00  0.00    -0.620 N 
ATOM      2  H   LIG    1        3.545  -1.000  -0.037  0.00  0.00    +0.420 HD
ATOM      3  C   LIG    1        2.034  -2.334  -0.029  0.00  0.00    +0.610 C 
ATOM      4  O   LIG    1        0.823  -2.463  -0.018  0.00  0.00    -0.480 OA
ENDROOT
BRANCH   3   5
ATOM      5  C   LIG    1        2.896  -3.519  -0.044  0.00  0.00    -0.330 A 
ATOM      6  C   LIG    1        2.478  -4.822  -0.046  0.00  0.00    +0.190 A 
ATOM      7  N   LIG    1        3.451  -5.694  -0.061  0.00  0.00    -0.470 NA
ATOM      8  C   LIG    1        4.669  -5.229  -0.070  0.00  0.00    +0.110 A 
ATOM      9  C   LIG    1        1.023  -5.217  -0.034  0.00  0.00    +0.170 C 
ATOM     10  S   LIG    1        4.658  -3.520  -0.069  0.00  0.00    +0.200 S 
BRANCH   8  11
ATOM     11  C   LIG    1        5.888  -6.064  -0.087  0.00  0.00    -0.030 A 
ATOM     12  C   LIG    1        7.148  -5.464  -0.096  0.00  0.00    +0.040 A 
ATOM     13  C   LIG    1        8.283  -6.249  -0.111  0.00  0.00    +0.040 A 
ATOM     14  C   LIG    1        8.175  -7.628  -0.116  0.00  0.00    +0.050 A 
ATOM     15  C   LIG    1        6.928  -8.230  -0.106  0.00  0.00    -0.040 A 
ATOM     16 CL   LIG    1        6.802  -9.962  -0.114  0.00  0.00    -0.050 Cl
ATOM     17  C   LIG    1        5.785  -7.456  -0.087  0.00  0.00    +0.090 A 
ENDBRANCH   8  11
ENDBRANCH   3   5
BRANCH   1  21
ATOM     18  C   LIG    1        1.250   2.196   0.002  0.00  0.00    +0.140 A 
ATOM     19  C   LIG    1       -0.022   1.758   0.012  0.00  0.00    -0.110 A 
ATOM     20  S   LIG    1        0.002  -0.004   0.002  0.00  0.00    +0.210 S 
ATOM     21  C   LIG    1        1.763   0.019  -0.015  0.00  0.00    +0.270 A 
ATOM     22  N   LIG    1        2.177   1.248  -0.012  0.00  0.00    -0.500 NA
BRANCH  18  26
ATOM     23  C   LIG    1        2.229   6.335   0.012  0.00  0.00    +0.140 A 
ATOM     24  C   LIG    1        3.240   5.385  -0.001  0.00  0.00    -0.020 A 
ATOM     25  C   LIG    1        2.926   4.041  -0.005  0.00  0.00    +0.090 A 
ATOM     26  C   LIG    1        1.591   3.639   0.006  0.00  0.00    -0.060 A 
ATOM     27  C   LIG    1        0.578   4.597   0.015  0.00  0.00    +0.070 A 
ATOM     28  C   LIG    1        0.899   5.938   0.023  0.00  0.00    -0.080 A 
BRANCH  23  30
ATOM     29  C   LIG    1        1.452   8.582   0.029  0.00  0.00    +0.250 C 
ATOM     30  O   LIG    1        2.542   7.658   0.015  0.00  0.00    -0.320 OA
ENDBRANCH  23  30
ENDBRANCH  18  26
ENDBRANCH   1  21
TORSDOF 5
