REMARK  Name = ZINCtV00000L6kuL.0
REMARK                            x       y       z     vdW  Elec       q    Type
REMARK                         _______ _______ _______ _____ _____    ______ ____
ROOT
ATOM      1  O   LIG    1       -2.793   1.565   0.085  0.00  0.00    -0.280 OA
ENDROOT
BRANCH   1   2
ATOM      2  C   LIG    1       -2.079   1.789   1.219  0.00  0.00    +0.070 A 
ATOM      3  C   LIG    1       -2.729   2.189   2.379  0.00  0.00    +0.040 A 
ATOM      4  C   LIG    1       -2.006   2.423   3.530  0.00  0.00    +0.040 A 
ATOM      5  C   LIG    1       -0.623   2.251   3.530  0.00  0.00    -0.030 A 
ATOM      6  C   LIG    1        0.026   1.844   2.366  0.00  0.00    +0.040 A 
ATOM      7  C   LIG    1       -0.702   1.612   1.218  0.00  0.00    -0.080 A 
ATOM      8  C   LIG    1       -0.001   1.172  -0.042  0.00  0.00    +0.110 C 
BRANCH   5   9
ATOM      9  C   LIG    1        0.157   2.501   4.767  0.00  0.00    -0.060 A 
ATOM     10  C   LIG    1        1.539   2.324   4.770  0.00  0.00    +0.030 A 
ATOM     11  C   LIG    1        2.260   2.563   5.922  0.00  0.00    +0.010 A 
ATOM     12  C   LIG    1        1.612   2.967   7.076  0.00  0.00    -0.080 A 
ATOM     13  C   LIG    1        0.240   3.140   7.080  0.00  0.00    +0.010 A 
ATOM     14  C   LIG    1        2.404   3.221   8.332  0.00  0.00    +0.090 C 
ATOM     15  C   LIG    1       -0.491   2.909   5.932  0.00  0.00    +0.030 A 
ENDBRANCH   5   9
ENDBRANCH   1   2
BRANCH   1  16
ATOM     16  C   LIG    1       -3.114   0.285  -0.194  0.00  0.00    +0.550 C 
ATOM     17  O   LIG    1       -2.855  -0.595   0.605  0.00  0.00    -0.460 OA
BRANCH  16  23
ATOM     18  C   LIG    1       -5.843  -1.558  -5.268  0.00  0.00    +0.110 A 
ATOM     19  C   LIG    1       -5.785  -0.198  -5.558  0.00  0.00    -0.010 A 
ATOM     20  C   LIG    1       -5.223   0.688  -4.665  0.00  0.00    +0.070 A 
ATOM     21  C   LIG    1       -4.706   0.229  -3.460  0.00  0.00    +0.050 A 
ATOM     22  O   LIG    1       -4.117   0.845  -2.416  0.00  0.00    -0.170 OA
ATOM     23  C   LIG    1       -3.777  -0.046  -1.461  0.00  0.00    -0.020 A 
ATOM     24  C   LIG    1       -4.146  -1.296  -1.848  0.00  0.00    -0.060 A 
ATOM     25  C   LIG    1       -3.957  -2.576  -1.075  0.00  0.00    +0.160 C 
ATOM     26  C   LIG    1       -4.763  -1.147  -3.165  0.00  0.00    -0.110 A 
ATOM     27  C   LIG    1       -5.334  -2.037  -4.077  0.00  0.00    +0.050 A 
BRANCH  18  29
ATOM     28  C   LIG    1       -6.907  -1.857  -7.374  0.00  0.00    +0.240 C 
ATOM     29  O   LIG    1       -6.401  -2.418  -6.161  0.00  0.00    -0.310 OA
ENDBRANCH  18  29
ENDBRANCH  16  23
ENDBRANCH   1  16
TORSDOF 5
