REMARK  Name = ZINCqH00000091np.0
REMARK                            x       y       z     vdW  Elec       q    Type
REMARK                         _______ _______ _______ _____ _____    ______ ____
ROOT
ATOM      1  N   LIG    1        6.975   0.430   2.100  0.00  0.00    -0.740 N 
ATOM      2  H   LIG    1        6.978   0.278   1.142  0.00  0.00    +0.400 HD
ATOM      3  C   LIG    1        5.809   0.445   2.776  0.00  0.00    +0.710 C 
ATOM      4  N   LIG    1        4.658   0.149   2.141  0.00  0.00    -0.630 N 
ATOM      5  C   LIG    1        4.640  -0.070   0.688  0.00  0.00    +0.270 C 
ATOM      6  C   LIG    1        3.587   0.852   0.064  0.00  0.00    +0.030 C 
ATOM      7  C   LIG    1        2.240   0.621   0.751  0.00  0.00    +0.150 C 
ATOM      8  C   LIG    1        2.359   0.962   2.238  0.00  0.00    +0.000 C 
ATOM      9  C   LIG    1        3.397   0.041   2.888  0.00  0.00    +0.300 C 
ATOM     10  O   LIG    1        5.796   0.724   3.959  0.00  0.00    -0.590 OA
ENDROOT
BRANCH   1  11
ATOM     11  C   LIG    1        8.238   0.644   2.812  0.00  0.00    +0.310 C 
BRANCH  11  13
ATOM     12  C   LIG    1       10.719   0.802   2.562  0.00  0.00    +0.040 C 
ATOM     13  C   LIG    1        9.400   0.579   1.819  0.00  0.00    +0.150 C 
BRANCH  13  14
ATOM     14  O   LIG    1        9.419  -0.704   1.191  0.00  0.00    -0.300 OA
BRANCH  14  15
ATOM     15  C   LIG    1       10.020  -0.787  -0.026  0.00  0.00    +0.120 A 
ATOM     16  C   LIG    1       10.494   0.359  -0.645  0.00  0.00    -0.040 A 
ATOM     17  C   LIG    1       11.109   0.273  -1.879  0.00  0.00    +0.030 A 
ATOM     18  C   LIG    1       11.243  -0.956  -2.502  0.00  0.00    +0.060 A 
ATOM     19  C   LIG    1       10.766  -2.101  -1.887  0.00  0.00    +0.030 A 
ATOM     20  F   LIG    1       11.841  -1.039  -3.711  0.00  0.00    -0.140 F 
ATOM     21  C   LIG    1       10.155  -2.018  -0.651  0.00  0.00    +0.020 A 
ENDBRANCH  14  15
ENDBRANCH  13  14
ENDBRANCH  11  13
ENDBRANCH   1  11
BRANCH   7  22
ATOM     22  O   LIG    1        1.249   1.456   0.149  0.00  0.00    -0.370 OA
BRANCH  22  23
ATOM     23  C   LIG    1       -0.071   0.909   0.183  0.00  0.00    +0.150 C 
ATOM     24  C   LIG    1       -0.834   1.411   1.434  0.00  0.00    +0.000 C 
ATOM     25  C   LIG    1       -2.319   1.254   1.010  0.00  0.00    +0.010 C 
ATOM     26  C   LIG    1       -2.332   1.651  -0.481  0.00  0.00    +0.020 C 
ATOM     27  C   LIG    1       -0.902   1.433  -1.006  0.00  0.00    +0.030 C 
ENDBRANCH  22  23
ENDBRANCH   7  22
TORSDOF 6
