REMARK  Name = ZINCqH0000037BBM.0
REMARK                            x       y       z     vdW  Elec       q    Type
REMARK                         _______ _______ _______ _____ _____    ______ ____
ROOT
ATOM      1  N   LIG    1        5.267   2.720  -1.413  0.00  0.00    -0.580 N 
ATOM      2  C   LIG    1        5.598   1.629  -2.139  0.00  0.00    +0.530 C 
ATOM      3  C   LIG    1        6.082   2.164  -3.465  0.00  0.00    +0.190 C 
ATOM      4  C   LIG    1        5.289   1.578  -4.646  0.00  0.00    +0.090 C 
ATOM      5  C   LIG    1        5.006   2.790  -5.559  0.00  0.00    -0.080 C 
ATOM      6  C   LIG    1        5.621   4.002  -4.824  0.00  0.00    +0.350 C 
ATOM      7  C   LIG    1        5.691   2.599  -6.904  0.00  0.00    +0.060 C 
ATOM      8  C   LIG    1        5.670   3.909  -7.696  0.00  0.00    +0.110 C 
ATOM      9  S   LIG    1        3.942   4.370  -8.021  0.00  0.00    -0.250 S 
ATOM     10  C   LIG    1        3.215   4.344  -6.356  0.00  0.00    +0.110 C 
ATOM     11  C   LIG    1        3.505   2.986  -5.711  0.00  0.00    +0.050 C 
ATOM     12  N   LIG    1        5.647   3.588  -3.413  0.00  0.00    -0.640 N 
ATOM     13  O   LIG    1        5.521   0.468  -1.798  0.00  0.00    -0.450 OA
ATOM     14  C   LIG    1        5.435   3.849  -2.123  0.00  0.00    +0.740 C 
ATOM     15  O   LIG    1        5.397   4.967  -1.648  0.00  0.00    -0.520 OA
ENDROOT
BRANCH   1  16
ATOM     16  C   LIG    1        4.793   2.678  -0.027  0.00  0.00    +0.450 C 
BRANCH  16  19
ATOM     17  C   LIG    1        3.172   0.026  -0.025  0.00  0.00    +0.140 C 
ATOM     18  C   LIG    1        2.602   1.421  -0.014  0.00  0.00    -0.130 A 
ATOM     19  C   LIG    1        3.290   2.572  -0.014  0.00  0.00    -0.010 A 
ATOM     20  O   LIG    1        2.444   3.617  -0.002  0.00  0.00    -0.180 OA
ATOM     21  C   LIG    1        1.162   3.198   0.008  0.00  0.00    +0.060 A 
ATOM     22  C   LIG    1       -0.058   3.861   0.022  0.00  0.00    +0.020 A 
ATOM     23  C   LIG    1       -1.233   3.139   0.028  0.00  0.00    +0.050 A 
ATOM     24  C   LIG    1       -1.212   1.752   0.017  0.00  0.00    -0.010 A 
ATOM     25  C   LIG    1       -0.013   1.076   0.008  0.00  0.00    +0.060 A 
ATOM     26  C   LIG    1        1.182   1.793   0.000  0.00  0.00    -0.130 A 
ENDBRANCH  16  19
ENDBRANCH   1  16
TORSDOF 2
