REMARK  Name = ZINCpe000000Tafj.0
REMARK                            x       y       z     vdW  Elec       q    Type
REMARK                         _______ _______ _______ _____ _____    ______ ____
ROOT
ATOM      1  C   LIG    1        2.361  -0.023  -0.272  0.00  0.00    -0.230 A 
ATOM      2  C   LIG    1        1.123  -0.672  -0.260  0.00  0.00    +0.400 A 
ATOM      3  N   LIG    1       -0.003   0.002  -0.165  0.00  0.00    -0.500 NA
ATOM      4  C   LIG    1       -0.019   1.323  -0.076  0.00  0.00    +0.430 A 
ATOM      5  C   LIG    1        1.189   2.050  -0.081  0.00  0.00    -0.250 A 
ATOM      6  C   LIG    1        1.125   3.518   0.020  0.00  0.00    +0.570 A 
ATOM      7  N   LIG    1       -0.092   4.099   0.114  0.00  0.00    -0.660 N 
ATOM      8  H   LIG    1       -0.156   5.064   0.182  0.00  0.00    +0.440 HD
ATOM      9  C   LIG    1       -1.213   3.361   0.115  0.00  0.00    +0.710 A 
ATOM     10  O   LIG    1       -2.283   3.931   0.202  0.00  0.00    -0.510 OA
ATOM     11  O   LIG    1        2.139   4.189   0.020  0.00  0.00    -0.480 OA
ATOM     12  N   LIG    1       -1.206   2.020   0.030  0.00  0.00    -0.500 N 
ATOM     13  C   LIG    1        2.399   1.374  -0.180  0.00  0.00    +0.260 A 
ENDROOT
BRANCH   1  16
ATOM     14  N   LIG    1        3.565  -2.144  -0.468  0.00  0.00    -0.690 N 
ATOM     15  H   LIG    1        2.710  -2.601  -0.461  0.00  0.00    +0.410 HD
ATOM     16  C   LIG    1        3.612  -0.800  -0.380  0.00  0.00    +0.570 C 
ATOM     17  O   LIG    1        4.685  -0.227  -0.390  0.00  0.00    -0.510 OA
BRANCH  14  22
ATOM     18  C   LIG    1        3.280  -5.038  -0.650  0.00  0.00    +0.090 C 
ATOM     19  C   LIG    1        4.687  -4.437  -0.672  0.00  0.00    -0.090 C 
ATOM     20  C   LIG    1        5.200  -3.790   0.616  0.00  0.00    +0.080 C 
ATOM     21  C   LIG    1        5.704  -5.171  -1.548  0.00  0.00    +0.080 C 
ATOM     22  C   LIG    1        4.807  -2.915  -0.576  0.00  0.00    +0.190 C 
BRANCH  22  23
ATOM     23  C   LIG    1        5.892  -2.269  -1.332  0.00  0.00    +0.240 C 
ATOM     24  N   LIG    1        6.729  -1.770  -1.916  0.00  0.00    -0.390 NA
ENDBRANCH  22  23
ENDBRANCH  14  22
ENDBRANCH   1  16
BRANCH  12  25
ATOM     25  C   LIG    1       -2.475   1.288   0.044  0.00  0.00    +0.210 C 
ATOM     26  C   LIG    1       -2.679   0.207  -1.019  0.00  0.00    +0.070 C 
ATOM     27  C   LIG    1       -3.443   1.530  -1.116  0.00  0.00    +0.050 C 
ENDBRANCH  12  25
TORSDOF 4
