REMARK  Name = ZINCqH00000364qV.0
REMARK                            x       y       z     vdW  Elec       q    Type
REMARK                         _______ _______ _______ _____ _____    ______ ____
ROOT
ATOM      1  C   LIG    1       -1.215   1.571   0.018  0.00  0.00    +0.520 C 
ATOM      2  N   LIG    1       -0.011   0.966   0.007  0.00  0.00    -0.670 N 
ATOM      3  H   LIG    1        0.045  -0.003   0.007  0.00  0.00    +0.410 HD
ATOM      4  O   LIG    1       -1.287   2.779  -0.066  0.00  0.00    -0.510 OA
ENDROOT
BRANCH   2   5
ATOM      5  C   LIG    1        1.159   1.735  -0.009  0.00  0.00    +0.110 A 
ATOM      6  C   LIG    1        2.288   1.295   0.680  0.00  0.00    +0.050 A 
ATOM      7  C   LIG    1        3.449   2.036   0.671  0.00  0.00    +0.000 A 
ATOM      8  C   LIG    1        3.499   3.241  -0.023  0.00  0.00    +0.170 A 
ATOM      9  N   LIG    1        4.651   4.000  -0.040  0.00  0.00    -0.630 N 
ATOM     10  H   LIG    1        5.436   3.689   0.438  0.00  0.00    +0.420 HD
ATOM     11  C   LIG    1        4.703   5.165  -0.709  0.00  0.00    +0.540 A 
ATOM     12  C   LIG    1        3.589   5.661  -1.420  0.00  0.00    -0.180 A 
ATOM     13  C   LIG    1        2.427   4.962  -1.442  0.00  0.00    +0.130 A 
ATOM     14  C   LIG    1        3.691   6.971  -2.157  0.00  0.00    +0.120 C 
ATOM     15  O   LIG    1        5.737   5.809  -0.701  0.00  0.00    -0.540 OA
ATOM     16  C   LIG    1        2.360   3.692  -0.717  0.00  0.00    -0.110 A 
ATOM     17  C   LIG    1        1.188   2.929  -0.705  0.00  0.00    +0.090 A 
ENDBRANCH   2   5
BRANCH   1  18
ATOM     18  C   LIG    1       -2.472   0.748   0.134  0.00  0.00    +0.050 C 
ATOM     19  C   LIG    1       -2.556  -0.223  -1.046  0.00  0.00    +0.070 C 
BRANCH  18  23
ATOM     20  C   LIG    1       -5.878   3.331   0.104  0.00  0.00    +0.100 A 
ATOM     21  C   LIG    1       -5.638   2.509   1.194  0.00  0.00    -0.040 A 
ATOM     22  C   LIG    1       -4.536   1.675   1.201  0.00  0.00    +0.050 A 
ATOM     23  C   LIG    1       -3.672   1.659   0.123  0.00  0.00    -0.080 A 
ATOM     24  C   LIG    1       -3.904   2.481  -0.965  0.00  0.00    +0.060 A 
ATOM     25  C   LIG    1       -5.008   3.314  -0.980  0.00  0.00    +0.070 A 
ATOM     26  F   LIG    1       -5.238   4.114  -2.044  0.00  0.00    -0.130 F 
BRANCH  20  28
ATOM     27  C   LIG    1       -7.811   4.118   1.244  0.00  0.00    +0.250 C 
ATOM     28  O   LIG    1       -6.961   4.152   0.095  0.00  0.00    -0.310 OA
ENDBRANCH  20  28
ENDBRANCH  18  23
ENDBRANCH   1  18
TORSDOF 4
