REMARK  Name = ZINCpk000005Plg0.0
REMARK                            x       y       z     vdW  Elec       q    Type
REMARK                         _______ _______ _______ _____ _____    ______ ____
ROOT
ATOM      1  N   LIG    1       -3.955   6.119   0.062  0.00  0.00    -0.480 N 
ATOM      2  C   LIG    1       -4.438   5.553  -1.206  0.00  0.00    +0.170 C 
ATOM      3  C   LIG    1       -4.335   4.026  -1.149  0.00  0.00    +0.240 C 
ATOM      4  O   LIG    1       -2.982   3.655  -0.871  0.00  0.00    -0.370 OA
ATOM      5  C   LIG    1       -2.480   4.188   0.357  0.00  0.00    +0.170 C 
ATOM      6  C   LIG    1       -2.564   5.716   0.316  0.00  0.00    +0.190 C 
ENDROOT
BRANCH   1  14
ATOM      7  C   LIG    1       -5.600   7.333   2.083  0.00  0.00    +0.120 C 
ATOM      8  C   LIG    1       -4.870   8.132   1.034  0.00  0.00    -0.170 A 
ATOM      9  C   LIG    1       -4.961   9.509   1.003  0.00  0.00    +0.320 A 
ATOM     10  N   LIG    1       -4.311  10.180   0.062  0.00  0.00    -0.520 NA
ATOM     11  C   LIG    1       -3.578   9.552  -0.835  0.00  0.00    +0.320 A 
ATOM     12  N   LIG    1       -3.459   8.239  -0.841  0.00  0.00    -0.540 NA
ATOM     13  C   LIG    1       -2.857  10.357  -1.886  0.00  0.00    +0.170 C 
ATOM     14  C   LIG    1       -4.082   7.498   0.071  0.00  0.00    +0.340 A 
ENDBRANCH   1  14
BRANCH   5  15
ATOM     15  C   LIG    1       -1.022   3.761   0.540  0.00  0.00    +0.300 C 
BRANCH  15  16
ATOM     16  N   LIG    1       -0.942   2.299   0.574  0.00  0.00    -0.720 N 
ATOM     17  H   LIG    1       -1.748   1.766   0.486  0.00  0.00    +0.400 HD
ATOM     18  C   LIG    1        0.252   1.692   0.729  0.00  0.00    +0.520 C 
ATOM     19  O   LIG    1        1.260   2.358   0.835  0.00  0.00    -0.520 OA
BRANCH  18  20
ATOM     20  C   LIG    1        0.334   0.188   0.764  0.00  0.00    +0.160 C 
ATOM     21  C   LIG    1       -0.497  -0.341   1.934  0.00  0.00    +0.040 C 
BRANCH  20  22
ATOM     22  O   LIG    1        1.696  -0.211   0.929  0.00  0.00    -0.350 OA
BRANCH  22  23
ATOM     23  C   LIG    1        2.010  -1.469   0.329  0.00  0.00    +0.160 C 
BRANCH  23  24
ATOM     24  C   LIG    1        3.487  -1.794   0.567  0.00  0.00    -0.020 C 
ATOM     25  C   LIG    1        3.853  -3.078  -0.179  0.00  0.00    +0.030 C 
ATOM     26  C   LIG    1        3.732  -1.986   2.065  0.00  0.00    +0.010 C 
ENDBRANCH  23  24
ENDBRANCH  22  23
ENDBRANCH  20  22
ENDBRANCH  18  20
ENDBRANCH  15  16
ENDBRANCH   5  15
TORSDOF 7
