REMARK  Name = ZINCtV00000oM0f0.0
REMARK                            x       y       z     vdW  Elec       q    Type
REMARK                         _______ _______ _______ _____ _____    ______ ____
ROOT
ATOM      1  C   LIG    1       -3.535   0.791  -0.009  0.00  0.00    +0.560 C 
ATOM      2  S   LIG    1       -3.866   2.378  -0.560  0.00  0.00    -0.610 S 
ENDROOT
BRANCH   1   3
ATOM      3  N   LIG    1       -4.543  -0.088   0.160  0.00  0.00    -0.670 N 
ATOM      4  H   LIG    1       -4.355  -0.987   0.472  0.00  0.00    +0.400 HD
BRANCH   3   6
ATOM      5  C   LIG    1       -6.207   0.131  -1.619  0.00  0.00    +0.060 C 
ATOM      6  C   LIG    1       -5.922   0.315  -0.127  0.00  0.00    +0.310 C 
BRANCH   6   7
ATOM      7  C   LIG    1       -6.871  -0.537   0.675  0.00  0.00    -0.100 A 
ATOM      8  C   LIG    1       -7.968   0.035   1.243  0.00  0.00    +0.050 A 
ATOM      9  C   LIG    1       -8.856  -0.757   1.991  0.00  0.00    -0.050 A 
ATOM     10  C   LIG    1       -9.999  -0.203   2.592  0.00  0.00    +0.030 A 
ATOM     11  C   LIG    1      -10.837  -1.001   3.309  0.00  0.00    +0.020 A 
ATOM     12  C   LIG    1      -10.578  -2.362   3.459  0.00  0.00    +0.020 A 
ATOM     13  C   LIG    1       -9.480  -2.933   2.892  0.00  0.00    +0.020 A 
ATOM     14  C   LIG    1       -8.593  -2.141   2.144  0.00  0.00    -0.050 A 
ATOM     15  C   LIG    1       -7.450  -2.696   1.543  0.00  0.00    +0.030 A 
ATOM     16  C   LIG    1       -6.616  -1.899   0.820  0.00  0.00    +0.000 A 
ENDBRANCH   6   7
ENDBRANCH   3   6
ENDBRANCH   1   3
BRANCH   1  17
ATOM     17  N   LIG    1       -2.266   0.420   0.254  0.00  0.00    -0.630 N 
ATOM     18  H   LIG    1       -2.071  -0.496   0.508  0.00  0.00    +0.410 HD
BRANCH  17  19
ATOM     19  C   LIG    1       -1.229   1.357   0.163  0.00  0.00    +0.120 A 
ATOM     20  C   LIG    1       -1.173   2.228  -0.917  0.00  0.00    +0.110 A 
ATOM     21  C   LIG    1       -0.154   3.155  -1.004  0.00  0.00    +0.030 A 
ATOM     22  C   LIG    1        0.818   3.213  -0.016  0.00  0.00    +0.090 A 
ATOM     23  C   LIG    1        0.766   2.340   1.061  0.00  0.00    +0.010 A 
ATOM     24  C   LIG    1       -0.253   1.412   1.149  0.00  0.00    +0.020 A 
BRANCH  22  25
ATOM     25  O   LIG    1        1.821   4.127  -0.102  0.00  0.00    -0.260 OA
BRANCH  25  26
ATOM     26  C   LIG    1        3.059   3.684  -0.446  0.00  0.00    +0.120 A 
ATOM     27  C   LIG    1        3.277   2.331  -0.664  0.00  0.00    -0.070 A 
ATOM     28  C   LIG    1        4.535   1.884  -1.019  0.00  0.00    +0.050 A 
ATOM     29  C   LIG    1        5.579   2.783  -1.147  0.00  0.00    -0.020 A 
ATOM     30  C   LIG    1        5.365   4.131  -0.926  0.00  0.00    +0.050 A 
ATOM     31  C   LIG    1        4.107   4.583  -0.575  0.00  0.00    -0.020 A 
ENDBRANCH  25  26
ENDBRANCH  22  25
ENDBRANCH  17  19
ENDBRANCH   1  17
TORSDOF 7
