REMARK  Name = ZINCrH000004pVBv.0
REMARK                            x       y       z     vdW  Elec       q    Type
REMARK                         _______ _______ _______ _____ _____    ______ ____
ROOT
ATOM      1  C   LIG    1       -0.534   3.961  -1.854  0.00  0.00    +0.570 C 
ATOM      2  N   LIG    1       -0.924   3.043  -0.948  0.00  0.00    -0.610 N 
ATOM      3  C   LIG    1       -1.641   3.432   0.274  0.00  0.00    +0.330 C 
ATOM      4  C   LIG    1       -1.077   2.670   1.441  0.00  0.00    -0.040 C 
ATOM      5  C   LIG    1       -0.255   1.660   1.311  0.00  0.00    -0.070 C 
ATOM      6  C   LIG    1        0.256   1.142  -0.000  0.00  0.00    +0.070 C 
ATOM      7  C   LIG    1       -0.649   1.609  -1.143  0.00  0.00    +0.290 C 
ATOM      8  O   LIG    1        0.155   3.628  -2.799  0.00  0.00    -0.530 OA
ENDROOT
BRANCH   1  15
ATOM      9  C   LIG    1       -0.752  12.031  -1.174  0.00  0.00    +0.120 C 
ATOM     10  C   LIG    1       -0.589  10.522  -0.983  0.00  0.00    +0.030 C 
ATOM     11  S   LIG    1       -2.194   9.700  -1.211  0.00  0.00    -0.070 S 
ATOM     12  C   LIG    1       -1.712   8.014  -1.404  0.00  0.00    -0.110 A 
ATOM     13  C   LIG    1       -2.557   6.996  -0.982  0.00  0.00    +0.090 A 
ATOM     14  C   LIG    1       -2.179   5.679  -1.126  0.00  0.00    +0.050 A 
ATOM     15  C   LIG    1       -0.942   5.370  -1.700  0.00  0.00    -0.100 A 
ATOM     16  C   LIG    1       -0.091   6.394  -2.122  0.00  0.00    +0.060 A 
ATOM     17  C   LIG    1       -0.472   7.718  -1.982  0.00  0.00    +0.160 A 
ATOM     18  N   LIG    1        0.386   8.725  -2.418  0.00  0.00    -0.660 N 
ATOM     19  H   LIG    1        1.046   8.483  -3.087  0.00  0.00    +0.420 HD
ATOM     20  C   LIG    1        0.383   9.988  -1.999  0.00  0.00    +0.520 C 
ATOM     21  O   LIG    1        1.206  10.749  -2.462  0.00  0.00    -0.500 OA
ENDBRANCH   1  15
BRANCH   5  22
ATOM     22  C   LIG    1        0.205   0.988   2.544  0.00  0.00    -0.070 A 
ATOM     23  C   LIG    1        1.553   1.032   2.904  0.00  0.00    +0.040 A 
ATOM     24  C   LIG    1        1.977   0.408   4.058  0.00  0.00    -0.010 A 
ATOM     25  C   LIG    1        1.067  -0.273   4.856  0.00  0.00    +0.110 A 
ATOM     26  C   LIG    1       -0.274  -0.322   4.499  0.00  0.00    -0.010 A 
ATOM     27  C   LIG    1       -0.707   0.303   3.349  0.00  0.00    +0.040 A 
BRANCH  25  28
ATOM     28  O   LIG    1        1.490  -0.891   5.989  0.00  0.00    -0.500 OA
ATOM     29  H   LIG    1        1.762  -1.810   5.858  0.00  0.00    +0.390 HD
ENDBRANCH  25  28
ENDBRANCH   5  22
TORSDOF 3
