REMARK  Name = ZINCqH00000359ne.0
REMARK                            x       y       z     vdW  Elec       q    Type
REMARK                         _______ _______ _______ _____ _____    ______ ____
ROOT
ATOM      1  C   LIG    1       -1.215   3.195   0.250  0.00  0.00    -0.120 A 
ATOM      2  C   LIG    1       -1.213   1.813   0.051  0.00  0.00    +0.100 A 
ATOM      3  C   LIG    1       -0.015   1.136  -0.044  0.00  0.00    +0.040 A 
ATOM      4  C   LIG    1        1.185   1.823   0.046  0.00  0.00    -0.070 A 
ATOM      5  C   LIG    1        2.611   1.338  -0.029  0.00  0.00    +0.320 C 
ATOM      6  N   LIG    1        3.488   2.502   0.130  0.00  0.00    -0.630 N 
ATOM      7  C   LIG    1        2.618   3.671   0.298  0.00  0.00    +0.350 C 
ATOM      8  C   LIG    1        4.835   2.499   0.123  0.00  0.00    +0.730 C 
ATOM      9  N   LIG    1        5.506   1.342  -0.042  0.00  0.00    -0.680 N 
ATOM     10  H   LIG    1        5.022   0.502  -0.079  0.00  0.00    +0.410 HD
ATOM     11  O   LIG    1        5.447   3.541   0.266  0.00  0.00    -0.560 OA
ATOM     12  C   LIG    1        1.190   3.192   0.238  0.00  0.00    -0.110 A 
ATOM     13  C   LIG    1       -0.003   3.881   0.340  0.00  0.00    +0.110 A 
ENDROOT
BRANCH   9  14
ATOM     14  C   LIG    1        6.900   1.351  -0.161  0.00  0.00    +0.110 A 
ATOM     15  C   LIG    1        7.550   2.420  -0.773  0.00  0.00    +0.080 A 
ATOM     16  C   LIG    1        8.932   2.387  -0.862  0.00  0.00    -0.010 A 
ATOM     17  C   LIG    1        9.615   1.297  -0.355  0.00  0.00    +0.120 A 
ATOM     18  N   LIG    1        8.970   0.298   0.214  0.00  0.00    -0.460 NA
ATOM     19  C   LIG    1        7.656   0.292   0.325  0.00  0.00    +0.240 A 
BRANCH  17  20
ATOM     20  C   LIG    1       11.118   1.250  -0.454  0.00  0.00    -0.020 C 
ATOM     21  C   LIG    1       11.550   1.674  -1.859  0.00  0.00    +0.050 C 
ATOM     22  C   LIG    1       11.603  -0.174  -0.179  0.00  0.00    +0.030 C 
ATOM     23  C   LIG    1       11.727   2.204   0.577  0.00  0.00    +0.040 C 
ENDBRANCH  17  20
ENDBRANCH   9  14
BRANCH   1  24
ATOM     24  C   LIG    1       -2.493   3.927   0.359  0.00  0.00    +0.510 C 
ATOM     25  O   LIG    1       -2.492   5.130   0.527  0.00  0.00    -0.500 OA
BRANCH  24  27
ATOM     26  C   LIG    1       -4.878   4.045   0.387  0.00  0.00    +0.290 C 
ATOM     27  O   LIG    1       -3.661   3.261   0.271  0.00  0.00    -0.350 OA
ENDBRANCH  24  27
ENDBRANCH   1  24
TORSDOF 4
