REMARK  Name = ZINCvU00000008mp.0
REMARK                            x       y       z     vdW  Elec       q    Type
REMARK                         _______ _______ _______ _____ _____    ______ ____
ROOT
ATOM      1  N   LIG    1        2.333  -2.885  -0.092  0.00  0.00    -0.590 N 
ATOM      2  C   LIG    1        1.295  -2.026  -0.151  0.00  0.00    +0.570 C 
ATOM      3  O   LIG    1        0.155  -2.446  -0.101  0.00  0.00    -0.520 OA
ENDROOT
BRANCH   2   4
ATOM      4  C   LIG    1        1.544  -0.574  -0.278  0.00  0.00    -0.090 A 
ATOM      5  C   LIG    1        2.493   0.047   0.535  0.00  0.00    +0.000 A 
ATOM      6  C   LIG    1        2.722   1.403   0.415  0.00  0.00    +0.050 A 
ATOM      7  C   LIG    1        2.014   2.148  -0.509  0.00  0.00    -0.060 A 
ATOM      8  C   LIG    1        1.068   1.539  -1.322  0.00  0.00    +0.130 A 
ATOM      9  C   LIG    1        0.830   0.179  -1.210  0.00  0.00    +0.040 A 
BRANCH   8  10
ATOM     10  O   LIG    1        0.379   2.276  -2.233  0.00  0.00    -0.310 OA
BRANCH  10  11
ATOM     11  C   LIG    1        0.675   3.672  -2.295  0.00  0.00    +0.240 C 
BRANCH  11  12
ATOM     12  C   LIG    1       -0.180   4.321  -3.354  0.00  0.00    -0.100 A 
ATOM     13  C   LIG    1        0.279   4.407  -4.655  0.00  0.00    +0.030 A 
ATOM     14  C   LIG    1       -0.506   4.997  -5.627  0.00  0.00    +0.010 A 
ATOM     15  C   LIG    1       -1.746   5.510  -5.296  0.00  0.00    +0.020 A 
ATOM     16  C   LIG    1       -2.203   5.429  -3.994  0.00  0.00    +0.010 A 
ATOM     17  C   LIG    1       -1.420   4.834  -3.023  0.00  0.00    +0.030 A 
ENDBRANCH  11  12
ENDBRANCH  10  11
ENDBRANCH   8  10
ENDBRANCH   2   4
BRANCH   1  18
ATOM     18  C   LIG    1        3.703  -2.373  -0.012  0.00  0.00    +0.280 C 
BRANCH  18  20
ATOM     19  C   LIG    1        5.546  -1.736   1.550  0.00  0.00    +0.030 C 
ATOM     20  C   LIG    1        4.177  -2.410   1.443  0.00  0.00    -0.010 C 
ENDBRANCH  18  20
ENDBRANCH   1  18
BRANCH   1  21
ATOM     21  C   LIG    1        2.090  -4.330  -0.107  0.00  0.00    +0.340 C 
BRANCH  21  22
ATOM     22  C   LIG    1        2.088  -4.824  -1.531  0.00  0.00    +0.500 C 
ATOM     23  N   LIG    1        1.883  -6.130  -1.791  0.00  0.00    -0.670 N 
ATOM     24  H   LIG    1        1.656  -6.738  -1.070  0.00  0.00    +0.410 HD
ATOM     25  O   LIG    1        2.273  -4.045  -2.443  0.00  0.00    -0.500 OA
BRANCH  23  26
ATOM     26  C   LIG    1        1.997  -6.609  -3.100  0.00  0.00    +0.140 A 
ATOM     27  C   LIG    1        1.745  -5.766  -4.174  0.00  0.00    +0.020 A 
ATOM     28  C   LIG    1        1.864  -6.240  -5.466  0.00  0.00    +0.010 A 
ATOM     29  C   LIG    1        2.222  -7.557  -5.690  0.00  0.00    -0.010 A 
ATOM     30  C   LIG    1        2.469  -8.401  -4.623  0.00  0.00    +0.030 A 
ATOM     31  C   LIG    1        2.357  -7.931  -3.329  0.00  0.00    -0.120 A 
ATOM     32  C   LIG    1        2.625  -8.851  -2.167  0.00  0.00    +0.080 C 
ENDBRANCH  23  26
ENDBRANCH  21  22
ENDBRANCH   1  21
TORSDOF 9
