REMARK  Name = ZINCrD000000fIr6.0
REMARK                            x       y       z     vdW  Elec       q    Type
REMARK                         _______ _______ _______ _____ _____    ______ ____
ROOT
ATOM      1  C   LIG    1       -3.787  10.302   0.406  0.00  0.00    +0.160 A 
ATOM      2  C   LIG    1       -3.084  11.498   0.441  0.00  0.00    +0.020 A 
ATOM      3  C   LIG    1       -1.697  11.494   0.378  0.00  0.00    +0.160 A 
ATOM      4  C   LIG    1       -1.009  10.294   0.281  0.00  0.00    +0.050 A 
ATOM      5  C   LIG    1       -1.712   9.090   0.246  0.00  0.00    -0.100 A 
ATOM      6  C   LIG    1       -3.106   9.098   0.305  0.00  0.00    +0.040 A 
ENDROOT
BRANCH   1   9
ATOM      7  C   LIG    1       -7.342   9.264   1.078  0.00  0.00    +0.110 C 
ATOM      8  C   LIG    1       -5.837   9.321   1.112  0.00  0.00    +0.510 C 
ATOM      9  N   LIG    1       -5.185  10.310   0.470  0.00  0.00    -0.670 N 
ATOM     10  H   LIG    1       -5.685  11.029   0.051  0.00  0.00    +0.420 HD
ATOM     11  O   LIG    1       -5.212   8.476   1.718  0.00  0.00    -0.520 OA
ENDBRANCH   1   9
BRANCH   3  12
ATOM     12  N   LIG    1       -0.992  12.703   0.413  0.00  0.00    -0.670 N 
ATOM     13  H   LIG    1       -0.080  12.724   0.742  0.00  0.00    +0.420 HD
ATOM     14  C   LIG    1       -1.581  13.839  -0.011  0.00  0.00    +0.510 C 
ATOM     15  O   LIG    1       -2.681  13.798  -0.521  0.00  0.00    -0.520 OA
ATOM     16  C   LIG    1       -0.873  15.159   0.147  0.00  0.00    +0.110 C 
ENDBRANCH   3  12
BRANCH   5  17
ATOM     17  C   LIG    1       -0.982   7.809   0.142  0.00  0.00    +0.570 C 
ATOM     18  N   LIG    1       -1.663   6.646   0.109  0.00  0.00    -0.660 N 
ATOM     19  H   LIG    1       -2.633   6.652   0.086  0.00  0.00    +0.410 HD
ATOM     20  O   LIG    1        0.232   7.803   0.087  0.00  0.00    -0.510 OA
BRANCH  18  21
ATOM     21  C   LIG    1       -0.970   5.428   0.108  0.00  0.00    +0.140 A 
ATOM     22  C   LIG    1       -1.504   4.358   0.762  0.00  0.00    -0.000 A 
ATOM     23  C   LIG    1       -0.811   3.128   0.764  0.00  0.00    -0.190 A 
ATOM     24  C   LIG    1       -1.050   1.877   1.301  0.00  0.00    +0.290 A 
ATOM     25  N   LIG    1       -0.019   1.084   0.974  0.00  0.00    -0.420 N 
ATOM     26  H   LIG    1        0.069   0.152   1.227  0.00  0.00    +0.450 HD
ATOM     27  N   LIG    1        0.909   1.800   0.210  0.00  0.00    -0.290 NA
ATOM     28  C   LIG    1        0.475   3.038   0.056  0.00  0.00    +0.110 A 
ATOM     29  C   LIG    1        0.969   4.187  -0.600  0.00  0.00    +0.060 A 
ATOM     30 CL   LIG    1       -3.025   4.506   1.587  0.00  0.00    -0.060 Cl
ATOM     31  C   LIG    1        0.256   5.339  -0.566  0.00  0.00    +0.090 A 
ENDBRANCH  18  21
ENDBRANCH   5  17
TORSDOF 4
