REMARK  Name = ZINCqH0000033OyS.0
REMARK                            x       y       z     vdW  Elec       q    Type
REMARK                         _______ _______ _______ _____ _____    ______ ____
ROOT
ATOM      1  C   LIG    1        2.419   3.937  -0.000  0.00  0.00    +0.530 C 
ATOM      2  N   LIG    1        2.396   5.285   0.007  0.00  0.00    -0.620 N 
ATOM      3  H   LIG    1        1.548   5.755   0.018  0.00  0.00    +0.420 HD
ATOM      4  O   LIG    1        3.482   3.348  -0.014  0.00  0.00    -0.430 OA
ENDROOT
BRANCH   1  10
ATOM      5  C   LIG    1        1.173   1.780   0.000  0.00  0.00    -0.610 A 
ATOM      6  C   LIG    1       -0.013   1.076   0.008  0.00  0.00    +0.130 A 
ATOM      7  C   LIG    1       -1.221   1.750   0.017  0.00  0.00    +0.030 A 
ATOM      8  C   LIG    1       -1.249   3.133   0.031  0.00  0.00    +0.070 A 
ATOM      9  C   LIG    1       -0.070   3.850   0.023  0.00  0.00    +0.030 A 
ATOM     10  C   LIG    1        1.153   3.176   0.008  0.00  0.00    -0.050 A 
BRANCH   5  11
ATOM     11  S   LIG    1        2.711   0.920  -0.019  0.00  0.00    +2.500 S 
ATOM     12  O   LIG    1        2.345  -0.453   0.002  0.00  0.00    -0.950 OA
ATOM     13  O   LIG    1        3.450   1.498   1.048  0.00  0.00    -0.900 OA
BRANCH  11  15
ATOM     14  C   LIG    1        4.809   0.662  -1.755  0.00  0.00    +0.090 C 
ATOM     15  C   LIG    1        3.453   1.356  -1.616  0.00  0.00    -0.330 C 
ENDBRANCH  11  15
ENDBRANCH   5  11
ENDBRANCH   1  10
BRANCH   2  16
ATOM     16  C   LIG    1        3.586   6.000  -0.001  0.00  0.00    +0.260 A 
ATOM     17  N   LIG    1        4.770   5.472  -0.010  0.00  0.00    -0.460 NA
ATOM     18  C   LIG    1        5.795   6.303  -0.020  0.00  0.00    +0.250 A 
ATOM     19  C   LIG    1        5.462   7.595  -0.010  0.00  0.00    -0.220 A 
ATOM     20  S   LIG    1        3.704   7.706   0.007  0.00  0.00    +0.130 S 
BRANCH  19  21
ATOM     21  C   LIG    1        6.422   8.757  -0.014  0.00  0.00    +0.190 C 
BRANCH  21  22
ATOM     22  C   LIG    1        6.728   9.152  -1.436  0.00  0.00    -0.080 A 
ATOM     23  C   LIG    1        7.795   8.574  -2.099  0.00  0.00    +0.010 A 
ATOM     24  C   LIG    1        8.072   8.933  -3.405  0.00  0.00    +0.000 A 
ATOM     25  C   LIG    1        7.290   9.876  -4.044  0.00  0.00    +0.000 A 
ATOM     26  C   LIG    1        6.226  10.458  -3.379  0.00  0.00    +0.000 A 
ATOM     27  C   LIG    1        5.946  10.095  -2.075  0.00  0.00    +0.010 A 
ENDBRANCH  21  22
ENDBRANCH  19  21
ENDBRANCH   2  16
TORSDOF 6
