REMARK  Name = ZINCpk00000y6vLf.0
REMARK                            x       y       z     vdW  Elec       q    Type
REMARK                         _______ _______ _______ _____ _____    ______ ____
ROOT
ATOM      1  S   LIG    1       -2.720   0.755   0.018  0.00  0.00    +0.070 S 
ENDROOT
BRANCH   1   2
ATOM      2  C   LIG    1       -1.199   1.644   0.017  0.00  0.00    +0.420 A 
ATOM      3  N   LIG    1       -1.207   2.967   0.030  0.00  0.00    -0.560 NA
ATOM      4  C   LIG    1       -0.072   3.667   0.023  0.00  0.00    +0.680 A 
ATOM      5  N   LIG    1        1.122   3.043   0.008  0.00  0.00    -0.370 N 
ATOM      6  N   LIG    1        2.437   3.519  -0.003  0.00  0.00    -0.230 NA
ATOM      7  C   LIG    1        3.261   2.509  -0.016  0.00  0.00    +0.360 A 
ATOM      8  C   LIG    1        2.505   1.314  -0.015  0.00  0.00    -0.180 A 
ATOM      9  C   LIG    1        1.166   1.682   0.000  0.00  0.00    +0.350 A 
ATOM     10  O   LIG    1       -0.116   4.884   0.029  0.00  0.00    -0.450 OA
ATOM     11  N   LIG    1       -0.011   0.966   0.007  0.00  0.00    -0.600 N 
ATOM     12  H   LIG    1        0.002  -0.004   0.002  0.00  0.00    +0.440 HD
BRANCH   8  13
ATOM     13  C   LIG    1        3.021  -0.022  -0.027  0.00  0.00    +0.300 C 
ATOM     14  N   LIG    1        3.431  -1.081  -0.037  0.00  0.00    -0.400 NA
ENDBRANCH   8  13
ENDBRANCH   1   2
BRANCH   1  15
ATOM     15  C   LIG    1       -3.891   2.135   0.032  0.00  0.00    +0.200 C 
BRANCH  15  18
ATOM     16  C   LIG    1       -7.265   0.858  -1.106  0.00  0.00    -0.160 A 
ATOM     17  C   LIG    1       -5.959   1.362  -1.158  0.00  0.00    +0.190 A 
ATOM     18  C   LIG    1       -5.299   1.598   0.035  0.00  0.00    -0.160 A 
ATOM     19  C   LIG    1       -5.946   1.343   1.230  0.00  0.00    +0.360 A 
ATOM     20  N   LIG    1       -7.179   0.874   1.251  0.00  0.00    -0.470 NA
ATOM     21  C   LIG    1       -7.849   0.627   0.143  0.00  0.00    +0.240 A 
ATOM     22 CL   LIG    1       -9.469   0.010   0.235  0.00  0.00    +0.030 Cl
BRANCH  16  23
ATOM     23  C   LIG    1       -8.014   0.582  -2.348  0.00  0.00    +0.510 C 
ATOM     24  O   LIG    1       -9.148   0.150  -2.290  0.00  0.00    -0.470 OA
BRANCH  23  26
ATOM     25  C   LIG    1       -8.234   0.514  -4.724  0.00  0.00    +0.290 C 
ATOM     26  O   LIG    1       -7.439   0.808  -3.545  0.00  0.00    -0.350 OA
ENDBRANCH  23  26
ENDBRANCH  16  23
ENDBRANCH  15  18
ENDBRANCH   1  15
TORSDOF 6
