REMARK  Name = ZINCbw0000000rbD.0
REMARK                            x       y       z     vdW  Elec       q    Type
REMARK                         _______ _______ _______ _____ _____    ______ ____
ROOT
ATOM      1  C   LIG    1        1.183   2.176   0.002  0.00  0.00    +0.210 A 
ATOM      2  C   LIG    1        2.396   1.499  -0.007  0.00  0.00    -0.040 A 
ATOM      3  C   LIG    1        3.581   2.208  -0.019  0.00  0.00    +0.030 A 
ATOM      4  C   LIG    1        3.561   3.593  -0.012  0.00  0.00    +0.030 A 
ATOM      5  C   LIG    1        2.354   4.270   0.003  0.00  0.00    +0.030 A 
ATOM      6  F   LIG    1        4.722   4.284  -0.019  0.00  0.00    -0.150 F 
ATOM      7  C   LIG    1        1.166   3.565   0.010  0.00  0.00    -0.040 A 
ENDROOT
BRANCH   1   8
ATOM      8  N   LIG    1       -0.018   1.461   0.010  0.00  0.00    -0.740 N 
ATOM      9  H   LIG    1       -0.864   1.934   0.017  0.00  0.00    +0.400 HD
BRANCH   8  11
ATOM     10  C   LIG    1       -1.292  -0.535   0.621  0.00  0.00    +0.030 C 
ATOM     11  C   LIG    1        0.002  -0.004   0.002  0.00  0.00    +0.220 C 
ATOM     12  C   LIG    1        0.121  -0.505  -1.439  0.00  0.00    +0.020 C 
ENDBRANCH   8  11
ENDBRANCH   1   8
TORSDOF 2
