REMARK  Name = ZINCnE000001Lxao.2
REMARK                            x       y       z     vdW  Elec       q    Type
REMARK                         _______ _______ _______ _____ _____    ______ ____
ROOT
ATOM      1  N   LIG    1        2.518   6.089   1.412  0.00  0.00    -0.500 NA
ATOM      2  C   LIG    1        1.314   5.601   2.110  0.00  0.00    +0.080 C 
ATOM      3  C   LIG    1        0.695   6.805   2.851  0.00  0.00    +0.010 C 
ATOM      4  C   LIG    1        1.893   7.780   2.995  0.00  0.00    +0.020 C 
ATOM      5  C   LIG    1        2.655   7.538   1.668  0.00  0.00    +0.170 C 
ENDROOT
BRANCH   5   6
ATOM      6  C   LIG    1        4.107   7.909   1.821  0.00  0.00    -0.050 A 
ATOM      7  C   LIG    1        4.963   7.077   2.519  0.00  0.00    +0.050 A 
ATOM      8  C   LIG    1        6.297   7.414   2.655  0.00  0.00    -0.020 A 
ATOM      9  C   LIG    1        6.772   8.589   2.103  0.00  0.00    -0.020 A 
ATOM     10  C   LIG    1        5.915   9.424   1.410  0.00  0.00    -0.010 A 
ATOM     11  C   LIG    1        4.583   9.084   1.269  0.00  0.00    -0.010 A 
ENDBRANCH   5   6
BRANCH   2  12
ATOM     12  C   LIG    1        0.329   5.052   1.111  0.00  0.00    +0.490 C 
ATOM     13  O   LIG    1        0.033   5.704   0.125  0.00  0.00    -0.690 OA
ATOM     14  O   LIG    1       -0.173   3.955   1.289  0.00  0.00    -0.690 OA
ENDBRANCH   2  12
BRANCH   1  15
ATOM     15  C   LIG    1        2.438   5.814  -0.029  0.00  0.00    +0.260 C 
BRANCH  15  20
ATOM     16  C   LIG    1        5.941   4.960  -1.160  0.00  0.00    +0.120 A 
ATOM     17  C   LIG    1        6.334   6.150  -1.756  0.00  0.00    -0.100 A 
ATOM     18  C   LIG    1        5.462   7.221  -1.799  0.00  0.00    +0.030 A 
ATOM     19  C   LIG    1        4.203   7.112  -1.239  0.00  0.00    -0.030 A 
ATOM     20  C   LIG    1        3.811   5.929  -0.639  0.00  0.00    -0.020 A 
ATOM     21  C   LIG    1        4.677   4.854  -0.598  0.00  0.00    +0.000 A 
BRANCH  16  23
ATOM     22  C   LIG    1        8.080   4.086  -1.719  0.00  0.00    +0.220 C 
ATOM     23  O   LIG    1        6.795   3.904  -1.121  0.00  0.00    -0.320 OA
ENDBRANCH  16  23
ENDBRANCH  15  20
ENDBRANCH   1  15
TORSDOF 5
