REMARK  Name = ZINCnE000001JUL0.0
REMARK                            x       y       z     vdW  Elec       q    Type
REMARK                         _______ _______ _______ _____ _____    ______ ____
ROOT
ATOM      1  C   LIG    1        2.598   5.768  -4.936  0.00  0.00    +0.210 C 
ENDROOT
BRANCH   1   2
ATOM      2  C   LIG    1        2.971   6.717  -6.045  0.00  0.00    +0.310 A 
ATOM      3  N   LIG    1        2.765   8.002  -6.028  0.00  0.00    -0.470 NA
ATOM      4  C   LIG    1        3.220   8.553  -7.183  0.00  0.00    +0.060 A 
ATOM      5  C   LIG    1        3.251   9.859  -7.679  0.00  0.00    +0.090 A 
ATOM      6  C   LIG    1        3.793  10.104  -8.921  0.00  0.00    -0.040 A 
ATOM      7  C   LIG    1        4.308   9.065  -9.684  0.00  0.00    +0.040 A 
ATOM      8  C   LIG    1        4.285   7.771  -9.208  0.00  0.00    +0.040 A 
ATOM      9 CL   LIG    1        3.831  11.726  -9.539  0.00  0.00    -0.070 Cl
ATOM     10  C   LIG    1        3.743   7.505  -7.958  0.00  0.00    +0.050 A 
ATOM     11  N   LIG    1        3.576   6.357  -7.209  0.00  0.00    -0.480 N 
ATOM     12  C   LIG    1        3.973   5.001  -7.597  0.00  0.00    +0.330 C 
ENDBRANCH   1   2
BRANCH   1  13
ATOM     13  S   LIG    1        0.914   5.151  -5.207  0.00  0.00    -0.010 S 
BRANCH  13  18
ATOM     14  N   LIG    1       -0.721   1.571  -1.179  0.00  0.00    -0.620 NA
ATOM     15  C   LIG    1       -0.135   2.416  -1.992  0.00  0.00    +0.330 A 
ATOM     16  N   LIG    1        1.119   2.943  -1.888  0.00  0.00    -0.510 NA
ATOM     17  N   LIG    1        1.499   3.816  -2.882  0.00  0.00    -0.240 NA
ATOM     18  C   LIG    1        0.660   4.076  -3.834  0.00  0.00    -0.080 A 
ATOM     19  S   LIG    1       -0.793   3.125  -3.480  0.00  0.00    -0.100 S 
BRANCH  14  20
ATOM     20  C   LIG    1       -0.013   1.086   0.008  0.00  0.00    +0.210 C 
BRANCH  20  21
ATOM     21  C   LIG    1       -0.729   1.579   1.267  0.00  0.00    +0.150 C 
BRANCH  21  23
ATOM     22  C   LIG    1       -2.787   1.389   2.481  0.00  0.00    +0.170 C 
ATOM     23  O   LIG    1       -2.030   0.991   1.336  0.00  0.00    -0.370 OA
ENDBRANCH  21  23
ENDBRANCH  20  21
ENDBRANCH  14  20
ENDBRANCH  13  18
ENDBRANCH   1  13
TORSDOF 6
