REMARK  Name = ZINCqH0000000fhj.0
REMARK                            x       y       z     vdW  Elec       q    Type
REMARK                         _______ _______ _______ _____ _____    ______ ____
ROOT
ATOM      1  N   LIG    1        5.147  -0.302   0.620  0.00  0.00    -0.600 N 
ATOM      2  C   LIG    1        3.955  -0.814   0.255  0.00  0.00    +0.530 C 
ATOM      3  O   LIG    1        3.904  -1.872  -0.335  0.00  0.00    -0.490 OA
ENDROOT
BRANCH   2   4
ATOM      4  C   LIG    1        2.684  -0.071   0.582  0.00  0.00    +0.160 C 
ATOM      5  C   LIG    1        2.605   1.208  -0.264  0.00  0.00    +0.290 C 
ATOM      6  N   LIG    1        1.329   1.872   0.053  0.00  0.00    -0.550 N 
ATOM      7  C   LIG    1        0.187   1.064   0.182  0.00  0.00    +0.070 A 
ATOM      8  C   LIG    1       -1.073   1.640   0.201  0.00  0.00    +0.050 A 
ATOM      9  C   LIG    1       -2.194   0.840   0.326  0.00  0.00    +0.000 A 
ATOM     10  C   LIG    1       -2.058  -0.530   0.442  0.00  0.00    +0.030 A 
ATOM     11  C   LIG    1       -0.803  -1.110   0.427  0.00  0.00    +0.020 A 
ATOM     12  C   LIG    1        0.327  -0.317   0.296  0.00  0.00    +0.090 A 
ATOM     13  C   LIG    1        1.260   3.209   0.215  0.00  0.00    +0.520 C 
ATOM     14  O   LIG    1        0.189   3.741   0.414  0.00  0.00    -0.510 OA
ATOM     15  C   LIG    1        2.514   4.042   0.147  0.00  0.00    +0.120 C 
ATOM     16  O   LIG    1        1.556  -0.895   0.278  0.00  0.00    -0.280 OA
ENDBRANCH   2   4
BRANCH   1  17
ATOM     17  C   LIG    1        5.205   0.927   1.415  0.00  0.00    +0.310 C 
BRANCH  17  19
ATOM     18  C   LIG    1        6.280   1.051   3.603  0.00  0.00    +0.040 C 
ATOM     19  C   LIG    1        5.299   0.575   2.877  0.00  0.00    -0.080 C 
ENDBRANCH  17  19
ENDBRANCH   1  17
BRANCH   1  20
ATOM     20  C   LIG    1        6.386  -0.975   0.220  0.00  0.00    +0.400 C 
BRANCH  20  21
ATOM     21  C   LIG    1        6.844  -0.435  -1.110  0.00  0.00    -0.210 A 
ATOM     22  C   LIG    1        7.659   0.607  -1.277  0.00  0.00    +0.040 A 
ATOM     23  C   LIG    1        7.942   0.921  -2.595  0.00  0.00    +0.020 A 
ATOM     24  C   LIG    1        7.356   0.133  -3.499  0.00  0.00    -0.150 A 
ATOM     25 CL   LIG    1        7.525   0.285  -5.220  0.00  0.00    -0.010 Cl
ATOM     26  S   LIG    1        6.392  -1.089  -2.679  0.00  0.00    +0.190 S 
ENDBRANCH  20  21
ENDBRANCH   1  20
TORSDOF 5
