REMARK  Name = ZINCqH0000050fhj.0
REMARK                            x       y       z     vdW  Elec       q    Type
REMARK                         _______ _______ _______ _____ _____    ______ ____
ROOT
ATOM      1  N   LIG    1       -1.198  -0.720   0.008  0.00  0.00    -0.730 N 
ATOM      2  H   LIG    1       -2.045  -0.248   0.025  0.00  0.00    +0.410 HD
ENDROOT
BRANCH   1   6
ATOM      3  C   LIG    1        1.146   3.600   0.001  0.00  0.00    +0.090 C 
ATOM      4  C   LIG    1        1.168   2.094  -0.010  0.00  0.00    -0.020 A 
ATOM      5  C   LIG    1       -0.017   1.386   0.004  0.00  0.00    -0.050 A 
ATOM      6  C   LIG    1        0.003  -0.003  -0.007  0.00  0.00    +0.230 A 
ATOM      7  C   LIG    1        1.215  -0.679  -0.032  0.00  0.00    -0.070 A 
ATOM      8  C   LIG    1        2.401   0.029  -0.046  0.00  0.00    +0.060 A 
ATOM      9  C   LIG    1        2.380   1.417  -0.035  0.00  0.00    +0.080 A 
BRANCH   9  10
ATOM     10  N   LIG    1        3.583   2.135  -0.050  0.00  0.00    -0.570 N 
ATOM     11  C   LIG    1        4.274   2.569  -1.270  0.00  0.00    +0.250 C 
ATOM     12  C   LIG    1        5.714   2.913  -0.829  0.00  0.00    +0.040 C 
ATOM     13  C   LIG    1        5.511   3.262   0.664  0.00  0.00    +0.050 C 
ATOM     14  C   LIG    1        4.250   2.521   1.052  0.00  0.00    +0.520 C 
ATOM     15  O   LIG    1        3.894   2.304   2.191  0.00  0.00    -0.520 OA
ENDBRANCH   9  10
ENDBRANCH   1   6
BRANCH   1  16
ATOM     16  C   LIG    1       -1.177  -2.185  -0.004  0.00  0.00    +0.250 C 
ATOM     17  C   LIG    1       -1.020  -2.704   1.427  0.00  0.00    +0.050 C 
BRANCH  16  18
ATOM     18  C   LIG    1       -2.467  -2.702  -0.587  0.00  0.00    +0.510 C 
ATOM     19  N   LIG    1       -2.672  -4.029  -0.698  0.00  0.00    -0.670 N 
ATOM     20  H   LIG    1       -1.965  -4.650  -0.465  0.00  0.00    +0.410 HD
ATOM     21  O   LIG    1       -3.320  -1.923  -0.956  0.00  0.00    -0.510 OA
BRANCH  19  22
ATOM     22  C   LIG    1       -3.908  -4.511  -1.148  0.00  0.00    +0.130 A 
ATOM     23  C   LIG    1       -4.421  -5.695  -0.636  0.00  0.00    +0.030 A 
ATOM     24  C   LIG    1       -5.641  -6.166  -1.078  0.00  0.00    +0.010 A 
ATOM     25  C   LIG    1       -6.348  -5.464  -2.039  0.00  0.00    +0.090 A 
ATOM     26  C   LIG    1       -5.836  -4.286  -2.556  0.00  0.00    +0.010 A 
ATOM     27  F   LIG    1       -7.540  -5.930  -2.475  0.00  0.00    -0.140 F 
ATOM     28  C   LIG    1       -4.618  -3.809  -2.112  0.00  0.00    +0.060 A 
ENDBRANCH  19  22
ENDBRANCH  16  18
ENDBRANCH   1  16
TORSDOF 5
