REMARK  Name = ZINCvU0000000HIA.2
REMARK                            x       y       z     vdW  Elec       q    Type
REMARK                         _______ _______ _______ _____ _____    ______ ____
ROOT
ATOM      1  C   LIG    1       -0.016   1.344   0.009  0.00  0.00    +0.520 C 
ATOM      2  N   LIG    1        0.002  -0.004   0.002  0.00  0.00    -0.460 N 
ATOM      3  N   LIG    1       -1.120  -0.830   0.014  0.00  0.00    -0.240 NA
ATOM      4  C   LIG    1       -0.847  -2.089   0.000  0.00  0.00    +0.140 C 
ATOM      5  C   LIG    1        0.652  -2.281  -0.015  0.00  0.00    +0.090 C 
ATOM      6  C   LIG    1        1.210  -0.844  -0.014  0.00  0.00    +0.250 C 
ATOM      7  O   LIG    1        1.026   1.964   0.003  0.00  0.00    -0.510 OA
ENDROOT
BRANCH   4   8
ATOM      8  C   LIG    1       -1.844  -3.175   0.005  0.00  0.00    -0.040 A 
ATOM      9  C   LIG    1       -3.195  -2.869   0.025  0.00  0.00    +0.090 A 
ATOM     10  C   LIG    1       -4.138  -3.908   0.024  0.00  0.00    -0.060 A 
ATOM     11  C   LIG    1       -5.518  -3.638   0.040  0.00  0.00    +0.030 A 
ATOM     12  C   LIG    1       -6.406  -4.669   0.044  0.00  0.00    +0.010 A 
ATOM     13  C   LIG    1       -5.969  -5.992   0.033  0.00  0.00    +0.020 A 
ATOM     14  C   LIG    1       -4.641  -6.292   0.018  0.00  0.00    +0.020 A 
ATOM     15  C   LIG    1       -3.693  -5.255   0.013  0.00  0.00    -0.040 A 
ATOM     16  C   LIG    1       -2.313  -5.533  -0.002  0.00  0.00    +0.030 A 
ATOM     17  C   LIG    1       -1.415  -4.516  -0.006  0.00  0.00    +0.040 A 
ENDBRANCH   4   8
BRANCH   6  18
ATOM     18  C   LIG    1        2.020  -0.584  -1.258  0.00  0.00    -0.090 A 
ATOM     19  C   LIG    1        1.382  -0.376  -2.467  0.00  0.00    +0.010 A 
ATOM     20  C   LIG    1        2.124  -0.133  -3.608  0.00  0.00    +0.000 A 
ATOM     21  C   LIG    1        3.505  -0.109  -3.542  0.00  0.00    +0.010 A 
ATOM     22  C   LIG    1        4.143  -0.323  -2.334  0.00  0.00    +0.010 A 
ATOM     23  C   LIG    1        3.401  -0.561  -1.193  0.00  0.00    +0.020 A 
ENDBRANCH   6  18
BRANCH   1  24
ATOM     24  C   LIG    1       -1.331   2.079   0.020  0.00  0.00    +0.270 C 
BRANCH  24  31
ATOM     25  C   LIG    1       -0.946   3.411   2.468  0.00  0.00    +0.020 C 
ATOM     26  C   LIG    1       -0.275   3.917   1.189  0.00  0.00    +0.140 C 
ATOM     27  C   LIG    1       -0.159   5.442   1.243  0.00  0.00    +0.020 C 
ATOM     28  C   LIG    1        0.494   5.945  -0.047  0.00  0.00    +0.000 C 
ATOM     29  C   LIG    1       -0.340   5.484  -1.245  0.00  0.00    +0.030 C 
ATOM     30  C   LIG    1       -0.451   3.958  -1.227  0.00  0.00    +0.170 C 
ATOM     31  N   LIG    1       -1.083   3.527   0.026  0.00  0.00    -0.510 NA
ENDBRANCH  24  31
ENDBRANCH   1  24
TORSDOF 4
