REMARK  Name = ZINCkj000005iKKh.0
REMARK                            x       y       z     vdW  Elec       q    Type
REMARK                         _______ _______ _______ _____ _____    ______ ____
ROOT
ATOM      1  N   LIG    1       -1.179  -0.708   0.009  0.00  0.00    -0.700 NA
ATOM      2  H   LIG    1       -1.166  -1.677   0.004  0.00  0.00    +0.440 HD
ENDROOT
BRANCH   1   3
ATOM      3  C   LIG    1       -2.458   0.007   0.026  0.00  0.00    +0.280 C 
BRANCH   3   4
ATOM      4  C   LIG    1       -3.607  -1.002   0.031  0.00  0.00    +0.090 C 
BRANCH   4   9
ATOM      5  C   LIG    1       -6.747   0.753  -1.125  0.00  0.00    +0.130 A 
ATOM      6  C   LIG    1       -7.338   1.084   0.085  0.00  0.00    -0.070 A 
ATOM      7  C   LIG    1       -6.720   0.738   1.272  0.00  0.00    +0.060 A 
ATOM      8  C   LIG    1       -5.516   0.059   1.253  0.00  0.00    -0.020 A 
ATOM      9  C   LIG    1       -4.922  -0.267   0.048  0.00  0.00    -0.060 A 
ATOM     10  C   LIG    1       -5.536   0.076  -1.141  0.00  0.00    -0.020 A 
BRANCH   5  12
ATOM     11  C   LIG    1       -8.597   1.788  -2.201  0.00  0.00    +0.250 C 
ATOM     12  O   LIG    1       -7.352   1.093  -2.294  0.00  0.00    -0.320 OA
ENDBRANCH   5  12
ENDBRANCH   4   9
ENDBRANCH   3   4
ENDBRANCH   1   3
BRANCH   1  13
ATOM     13  C   LIG    1        0.002  -0.004   0.002  0.00  0.00    +0.730 C 
BRANCH  13  14
ATOM     14  N   LIG    1       -0.016   1.299   0.009  0.00  0.00    -0.770 NA
ATOM     15  H   LIG    1       -0.862   1.773   0.016  0.00  0.00    +0.440 HD
ATOM     16  H   LIG    1        0.818   1.796   0.004  0.00  0.00    +0.440 HD
ENDBRANCH  13  14
BRANCH  13  17
ATOM     17  N   LIG    1        1.202  -0.675  -0.013  0.00  0.00    -0.690 NA
ATOM     18  H   LIG    1        1.215  -1.645  -0.018  0.00  0.00    +0.440 HD
BRANCH  17  19
ATOM     19  C   LIG    1        2.461   0.074  -0.021  0.00  0.00    +0.300 C 
BRANCH  19  20
ATOM     20  C   LIG    1        3.637  -0.904  -0.037  0.00  0.00    +0.160 C 
ATOM     21  C   LIG    1        4.979  -0.132   0.026  0.00  0.00    +0.030 C 
ATOM     22  C   LIG    1        5.912  -1.213   0.636  0.00  0.00    +0.010 C 
ATOM     23  C   LIG    1        4.959  -1.971   1.585  0.00  0.00    +0.210 C 
ATOM     24  O   LIG    1        3.620  -1.724   1.142  0.00  0.00    -0.380 OA
ENDBRANCH  19  20
ENDBRANCH  17  19
ENDBRANCH  13  17
ENDBRANCH   1  13
TORSDOF 9
