REMARK  Name = ZINCpe000000VsBu.0
REMARK                            x       y       z     vdW  Elec       q    Type
REMARK                         _______ _______ _______ _____ _____    ______ ____
ROOT
ATOM      1  C   LIG    1       -2.924  -1.050   3.022  0.00  0.00    +0.030 C 
ATOM      2  C   LIG    1       -2.019  -0.244   2.059  0.00  0.00    +0.220 C 
ATOM      3  N   LIG    1       -2.928   0.721   1.405  0.00  0.00    -0.510 NA
ATOM      4  C   LIG    1       -4.299   0.182   1.455  0.00  0.00    +0.190 C 
ATOM      5  C   LIG    1       -4.233  -1.169   2.197  0.00  0.00    +0.250 C 
ENDROOT
BRANCH   5   6
ATOM      6  N   LIG    1       -5.390  -1.333   3.080  0.00  0.00    -0.700 N 
ATOM      7  H   LIG    1       -5.329  -1.069   4.012  0.00  0.00    +0.410 HD
ATOM      8  C   LIG    1       -6.538  -1.848   2.599  0.00  0.00    +0.580 C 
ATOM      9  O   LIG    1       -6.613  -2.178   1.432  0.00  0.00    -0.520 OA
BRANCH   8  10
ATOM     10  C   LIG    1       -7.708  -2.014   3.493  0.00  0.00    +0.020 A 
ATOM     11  C   LIG    1       -8.896  -2.547   2.997  0.00  0.00    +0.290 A 
ATOM     12  N   LIG    1       -9.937  -2.693   3.797  0.00  0.00    -0.440 NA
ATOM     13  C   LIG    1       -9.851  -2.334   5.066  0.00  0.00    +0.260 A 
ATOM     14  C   LIG    1       -8.669  -1.803   5.563  0.00  0.00    +0.230 A 
ATOM     15  N   LIG    1       -7.625  -1.659   4.772  0.00  0.00    -0.410 NA
ENDBRANCH   8  10
ENDBRANCH   5   6
BRANCH   1  16
ATOM     16  C   LIG    1       -2.338  -2.410   3.303  0.00  0.00    +0.470 C 
ATOM     17  O   LIG    1       -2.892  -3.403   2.894  0.00  0.00    -0.490 OA
BRANCH  16  19
ATOM     18  C   LIG    1       -0.694  -3.859   4.239  0.00  0.00    +0.260 C 
ATOM     19  O   LIG    1       -1.201  -2.518   4.007  0.00  0.00    -0.350 OA
ENDBRANCH  16  19
ENDBRANCH   1  16
BRANCH   3  20
ATOM     20  C   LIG    1       -2.514   0.980   0.019  0.00  0.00    +0.230 C 
BRANCH  20  21
ATOM     21  C   LIG    1       -1.219   1.751   0.017  0.00  0.00    -0.080 A 
ATOM     22  C   LIG    1       -0.013   1.076   0.008  0.00  0.00    +0.010 A 
ATOM     23  C   LIG    1        1.175   1.783   0.000  0.00  0.00    +0.000 A 
ATOM     24  C   LIG    1        1.156   3.165   0.008  0.00  0.00    +0.000 A 
ATOM     25  C   LIG    1       -0.050   3.840   0.022  0.00  0.00    +0.000 A 
ATOM     26  C   LIG    1       -1.238   3.133   0.030  0.00  0.00    +0.020 A 
ENDBRANCH  20  21
ENDBRANCH   3  20
TORSDOF 6
