REMARK  Name = ZINCrH000004nBKO.0
REMARK                            x       y       z     vdW  Elec       q    Type
REMARK                         _______ _______ _______ _____ _____    ______ ____
ROOT
ATOM      1  N   LIG    1        0.585  -0.664  -1.018  0.00  0.00    -0.720 N 
ATOM      2  H   LIG    1        0.992  -0.170  -1.747  0.00  0.00    +0.400 HD
ATOM      3  C   LIG    1        0.002  -0.004   0.002  0.00  0.00    +0.510 C 
ATOM      4  O   LIG    1       -0.506  -0.622   0.913  0.00  0.00    -0.530 OA
ENDROOT
BRANCH   1   8
ATOM      5  N   LIG    1        2.223  -2.883  -2.626  0.00  0.00    -0.460 N 
ATOM      6  C   LIG    1        2.647  -3.451  -1.320  0.00  0.00    +0.180 C 
ATOM      7  C   LIG    1        1.844  -2.652  -0.270  0.00  0.00    +0.030 C 
ATOM      8  C   LIG    1        0.605  -2.129  -1.026  0.00  0.00    +0.250 C 
ATOM      9  C   LIG    1        0.760  -2.656  -2.469  0.00  0.00    +0.180 C 
BRANCH   5  15
ATOM     10  C   LIG    1        3.333  -3.414  -4.710  0.00  0.00    +0.150 A 
ATOM     11  C   LIG    1        3.585  -4.304  -5.740  0.00  0.00    -0.080 A 
ATOM     12  C   LIG    1        2.991  -5.554  -5.735  0.00  0.00    +0.050 A 
ATOM     13  C   LIG    1        2.146  -5.917  -4.704  0.00  0.00    -0.020 A 
ATOM     14  C   LIG    1        1.894  -5.036  -3.668  0.00  0.00    +0.020 A 
ATOM     15  C   LIG    1        2.481  -3.780  -3.670  0.00  0.00    +0.040 A 
BRANCH  10  17
ATOM     16  C   LIG    1        4.778  -1.879  -5.811  0.00  0.00    +0.220 C 
ATOM     17  O   LIG    1        3.917  -2.185  -4.713  0.00  0.00    -0.300 OA
ENDBRANCH  10  17
ENDBRANCH   5  15
ENDBRANCH   1   8
BRANCH   3  18
ATOM     18  C   LIG    1       -0.018   1.503   0.010  0.00  0.00    +0.140 C 
BRANCH  18  19
ATOM     19  C   LIG    1       -0.724   1.989   1.250  0.00  0.00    -0.150 A 
ATOM     20  C   LIG    1       -2.018   2.331   1.350  0.00  0.00    +0.240 A 
ATOM     21  N   LIG    1       -2.300   2.721   2.632  0.00  0.00    -0.590 N 
ATOM     22  H   LIG    1       -3.170   3.010   2.947  0.00  0.00    +0.420 HD
ATOM     23  C   LIG    1       -1.163   2.645   3.405  0.00  0.00    +0.110 A 
ATOM     24  C   LIG    1       -0.893   2.922   4.741  0.00  0.00    +0.010 A 
ATOM     25  C   LIG    1        0.382   2.742   5.233  0.00  0.00    -0.010 A 
ATOM     26  C   LIG    1        1.402   2.287   4.408  0.00  0.00    -0.010 A 
ATOM     27  C   LIG    1        1.158   2.008   3.093  0.00  0.00    +0.070 A 
ATOM     28 CL   LIG    1        0.716   3.088   6.902  0.00  0.00    -0.070 Cl
ATOM     29  C   LIG    1       -0.126   2.183   2.573  0.00  0.00    -0.090 A 
ENDBRANCH  18  19
ENDBRANCH   3  18
TORSDOF 5
