REMARK  Name = ZINC550000002rWY.1
REMARK                            x       y       z     vdW  Elec       q    Type
REMARK                         _______ _______ _______ _____ _____    ______ ____
ROOT
ATOM      1  C   LIG    1        2.527   3.727  -0.128  0.00  0.00    +0.020 C 
ATOM      2  C   LIG    1        1.145   3.085   0.008  0.00  0.00    +0.210 C 
ENDROOT
BRANCH   2   3
ATOM      3  O   LIG    1        0.546   3.500   1.237  0.00  0.00    -0.560 OA
ATOM      4  H   LIG    1        1.052   3.256   2.023  0.00  0.00    +0.370 HD
ENDBRANCH   2   3
BRANCH   2   5
ATOM      5  C   LIG    1        1.286   1.562  -0.002  0.00  0.00    +0.140 C 
BRANCH   5   6
ATOM      6  O   LIG    1       -0.011   0.963   0.007  0.00  0.00    -0.570 OA
ATOM      7  H   LIG    1        0.002  -0.004   0.002  0.00  0.00    +0.380 HD
ENDBRANCH   5   6
ENDBRANCH   2   5
TORSDOF 3
