REMARK  Name = ZINCrD00000ePFgc.0
REMARK                            x       y       z     vdW  Elec       q    Type
REMARK                         _______ _______ _______ _____ _____    ______ ____
ROOT
ATOM      1  C   LIG    1        6.456   5.591   0.245  0.00  0.00    +0.350 A 
ATOM      2  N   LIG    1        7.035   4.468  -0.111  0.00  0.00    -0.290 NA
ATOM      3  N   LIG    1        6.148   3.575  -0.366  0.00  0.00    -0.270 NA
ATOM      4  C   LIG    1        4.947   4.074  -0.189  0.00  0.00    +0.220 A 
ATOM      5  N   LIG    1        5.107   5.383   0.202  0.00  0.00    -0.460 N 
ATOM      6  C   LIG    1        4.051   6.350   0.511  0.00  0.00    +0.340 C 
ENDROOT
BRANCH   1  17
ATOM      7  C   LIG    1        7.642   5.655   2.696  0.00  0.00    +0.040 C 
ATOM      8  C   LIG    1        8.173   6.521   1.552  0.00  0.00    +0.250 C 
ATOM      9  C   LIG    1        9.321   5.812   0.882  0.00  0.00    -0.100 A 
ATOM     10  C   LIG    1       10.259   5.174   1.680  0.00  0.00    +0.010 A 
ATOM     11  C   LIG    1       11.332   4.519   1.109  0.00  0.00    +0.000 A 
ATOM     12  C   LIG    1       11.472   4.498  -0.266  0.00  0.00    +0.010 A 
ATOM     13  C   LIG    1       10.538   5.131  -1.062  0.00  0.00    +0.000 A 
ATOM     14  C   LIG    1        9.460   5.789  -0.489  0.00  0.00    -0.040 A 
ATOM     15  C   LIG    1        8.464   6.463  -1.397  0.00  0.00    +0.040 C 
ATOM     16  C   LIG    1        7.619   7.456  -0.599  0.00  0.00    +0.250 C 
ATOM     17  N   LIG    1        7.093   6.771   0.592  0.00  0.00    -0.450 N 
ENDBRANCH   1  17
BRANCH   4  18
ATOM     18  C   LIG    1        3.663   3.365  -0.381  0.00  0.00    -0.010 A 
ATOM     19  C   LIG    1        2.549   4.052  -0.864  0.00  0.00    +0.040 A 
ATOM     20  C   LIG    1        1.353   3.389  -1.040  0.00  0.00    +0.030 A 
ATOM     21  C   LIG    1        1.252   2.037  -0.739  0.00  0.00    +0.070 A 
ATOM     22  O   LIG    1        0.061   1.403  -0.918  0.00  0.00    -0.300 OA
ATOM     23  C   LIG    1        0.093  -0.027  -0.963  0.00  0.00    +0.230 C 
ATOM     24  C   LIG    1        0.964  -0.525   0.199  0.00  0.00    +0.230 C 
ATOM     25  O   LIG    1        2.279   0.019   0.036  0.00  0.00    -0.300 OA
ATOM     26  C   LIG    1        2.360   1.345  -0.260  0.00  0.00    +0.060 A 
ATOM     27  C   LIG    1        3.563   2.006  -0.079  0.00  0.00    +0.080 A 
ENDBRANCH   4  18
TORSDOF 2
