REMARK  Name = ZINCqH0000007QET.0
REMARK                            x       y       z     vdW  Elec       q    Type
REMARK                         _______ _______ _______ _____ _____    ______ ____
ROOT
ATOM      1  C   LIG    1       -3.614   2.021  -0.172  0.00  0.00    +0.170 A 
ATOM      2  N   LIG    1       -3.907   3.304  -0.182  0.00  0.00    -0.240 NA
ATOM      3  N   LIG    1       -5.181   3.436  -0.320  0.00  0.00    -0.250 N 
ATOM      4  C   LIG    1       -5.732   2.207  -0.393  0.00  0.00    +0.240 A 
ATOM      5  N   LIG    1       -4.763   1.332  -0.302  0.00  0.00    -0.440 NA
ENDROOT
BRANCH   3   6
ATOM      6  C   LIG    1       -5.878   4.651  -0.379  0.00  0.00    +0.080 A 
ATOM      7  C   LIG    1       -6.804   4.873  -1.388  0.00  0.00    +0.070 A 
ATOM      8  C   LIG    1       -7.494   6.070  -1.440  0.00  0.00    +0.040 A 
ATOM      9  C   LIG    1       -7.254   7.050  -0.495  0.00  0.00    +0.080 A 
ATOM     10  C   LIG    1       -6.328   6.835   0.509  0.00  0.00    +0.010 A 
ATOM     11  C   LIG    1       -5.639   5.638   0.571  0.00  0.00    +0.130 A 
ATOM     12  F   LIG    1       -4.734   5.428   1.552  0.00  0.00    -0.120 F 
ENDBRANCH   3   6
BRANCH   4  13
ATOM     13  C   LIG    1       -7.199   1.897  -0.550  0.00  0.00    +0.090 C 
ATOM     14  C   LIG    1       -7.703   1.169   0.698  0.00  0.00    +0.070 C 
ATOM     15  C   LIG    1       -7.403   1.006  -1.777  0.00  0.00    +0.060 C 
ENDBRANCH   4  13
BRANCH   1  16
ATOM     16  C   LIG    1       -2.263   1.440  -0.037  0.00  0.00    +0.570 C 
ATOM     17  O   LIG    1       -2.118   0.234  -0.036  0.00  0.00    -0.460 OA
BRANCH  16  18
ATOM     18  O   LIG    1       -1.192   2.247   0.086  0.00  0.00    -0.260 OA
BRANCH  18  24
ATOM     19  C   LIG    1        0.633   1.282  -1.107  0.00  0.00    +0.130 A 
ATOM     20  C   LIG    1        1.877   0.672  -1.095  0.00  0.00    -0.060 A 
ATOM     21  C   LIG    1        2.518   0.432   0.107  0.00  0.00    +0.060 A 
ATOM     22  C   LIG    1        1.920   0.800   1.298  0.00  0.00    +0.000 A 
ATOM     23  C   LIG    1        0.679   1.410   1.293  0.00  0.00    +0.070 A 
ATOM     24  C   LIG    1        0.032   1.653   0.092  0.00  0.00    +0.050 A 
BRANCH  19  26
ATOM     25  C   LIG    1        0.679   1.110  -3.478  0.00  0.00    +0.250 C 
ATOM     26  O   LIG    1        0.002   1.517  -2.288  0.00  0.00    -0.310 OA
ENDBRANCH  19  26
ENDBRANCH  18  24
ENDBRANCH  16  18
ENDBRANCH   1  16
TORSDOF 6
