REMARK  Name = ZINCpe000000XNwV.0
REMARK                            x       y       z     vdW  Elec       q    Type
REMARK                         _______ _______ _______ _____ _____    ______ ____
ROOT
ATOM      1  N   LIG    1        7.485   2.364   4.568  0.00  0.00    -0.560 N 
ATOM      2  C   LIG    1        6.277   1.772   4.581  0.00  0.00    +0.700 C 
ATOM      3  N   LIG    1        6.233   0.684   3.804  0.00  0.00    -0.570 N 
ATOM      4  C   LIG    1        7.418   0.452   3.204  0.00  0.00    +0.540 C 
ATOM      5  O   LIG    1        7.691  -0.455   2.449  0.00  0.00    -0.450 OA
ATOM      6  O   LIG    1        5.332   2.179   5.227  0.00  0.00    -0.520 OA
ATOM      7  C   LIG    1        8.336   1.564   3.671  0.00  0.00    +0.230 C 
ATOM      8  C   LIG    1        9.530   0.986   4.434  0.00  0.00    +0.090 C 
ENDROOT
BRANCH   1  13
ATOM      9  C   LIG    1        9.003   7.029   7.416  0.00  0.00    +0.100 C 
ATOM     10  C   LIG    1        8.600   5.790   6.660  0.00  0.00    -0.110 A 
ATOM     11  C   LIG    1        7.312   5.299   6.776  0.00  0.00    +0.040 A 
ATOM     12  C   LIG    1        6.940   4.163   6.084  0.00  0.00    +0.000 A 
ATOM     13  C   LIG    1        7.859   3.514   5.271  0.00  0.00    +0.180 A 
ATOM     14  C   LIG    1        9.153   4.006   5.161  0.00  0.00    -0.020 A 
ATOM     15  C   LIG    1        9.518   5.146   5.851  0.00  0.00    +0.040 A 
ENDBRANCH   1  13
BRANCH   3  16
ATOM     16  C   LIG    1        5.045  -0.156   3.630  0.00  0.00    +0.300 C 
BRANCH  16  17
ATOM     17  C   LIG    1        4.219   0.366   2.452  0.00  0.00    +0.200 C 
BRANCH  17  18
ATOM     18  O   LIG    1        4.967   0.219   1.243  0.00  0.00    -0.540 OA
ATOM     19  H   LIG    1        5.208  -0.695   1.039  0.00  0.00    +0.380 HD
ENDBRANCH  17  18
BRANCH  17  20
ATOM     20  C   LIG    1        2.918  -0.432   2.348  0.00  0.00    +0.170 C 
BRANCH  20  21
ATOM     21  N   LIG    1        2.125   0.070   1.217  0.00  0.00    -0.520 NA
ATOM     22  C   LIG    1        0.772  -0.505   1.227  0.00  0.00    +0.150 C 
ATOM     23  C   LIG    1        0.002  -0.004   0.002  0.00  0.00    +0.220 C 
ATOM     24  O   LIG    1       -0.017   1.426   0.010  0.00  0.00    -0.390 OA
ATOM     25  C   LIG    1        1.284   2.019   0.001  0.00  0.00    +0.220 C 
ATOM     26  C   LIG    1        2.067   1.539   1.225  0.00  0.00    +0.140 C 
ENDBRANCH  20  21
ENDBRANCH  17  20
ENDBRANCH  16  17
ENDBRANCH   3  16
TORSDOF 6
