REMARK  Name = ZINCpe00000FUpq9.0
REMARK                            x       y       z     vdW  Elec       q    Type
REMARK                         _______ _______ _______ _____ _____    ______ ____
ROOT
ATOM      1  O   LIG    1       -1.147   5.343   0.043  0.00  0.00    -0.440 OA
ATOM      2  C   LIG    1       -1.616   4.224   0.041  0.00  0.00    +0.410 C 
ENDROOT
BRANCH   2   3
ATOM      3  C   LIG    1       -0.728   3.058   0.025  0.00  0.00    -0.260 A 
ATOM      4  C   LIG    1       -1.115   1.727   0.016  0.00  0.00    +0.280 A 
ATOM      5  N   LIG    1       -0.011   0.966   0.007  0.00  0.00    -0.530 N 
ATOM      6  H   LIG    1        0.002  -0.004   0.002  0.00  0.00    +0.420 HD
ATOM      7  C   LIG    1        1.102   1.778   0.001  0.00  0.00    -0.060 A 
ATOM      8  C   LIG    1        0.688   3.076   0.012  0.00  0.00    +0.120 A 
BRANCH   7   9
ATOM      9  C   LIG    1        2.498   1.323  -0.014  0.00  0.00    +0.600 C 
ATOM     10  N   LIG    1        2.777   0.004  -0.024  0.00  0.00    -0.620 N 
ATOM     11  C   LIG    1        1.785  -1.081  -0.015  0.00  0.00    +0.220 C 
ATOM     12  C   LIG    1        2.564  -2.413  -0.007  0.00  0.00    +0.040 C 
ATOM     13  C   LIG    1        3.945  -2.002   0.567  0.00  0.00    +0.040 C 
ATOM     14  C   LIG    1        4.126  -0.589  -0.040  0.00  0.00    +0.260 C 
ATOM     15  O   LIG    1        3.403   2.136  -0.018  0.00  0.00    -0.520 OA
ENDBRANCH   7   9
ENDBRANCH   2   3
BRANCH   2  16
ATOM     16  C   LIG    1       -3.111   4.034   0.054  0.00  0.00    +0.340 C 
BRANCH  16  17
ATOM     17  N   LIG    1       -3.769   5.342   0.068  0.00  0.00    -0.570 N 
ATOM     18  C   LIG    1       -4.106   6.013   1.193  0.00  0.00    +0.530 C 
ATOM     19  C   LIG    1       -4.640   7.342   0.719  0.00  0.00    +0.180 C 
ATOM     20  C   LIG    1       -6.059   7.637   1.226  0.00  0.00    +0.070 C 
ATOM     21  C   LIG    1       -6.792   8.230  -0.002  0.00  0.00    +0.040 C 
ATOM     22  C   LIG    1       -5.766   8.173  -1.140  0.00  0.00    +0.340 C 
ATOM     23  N   LIG    1       -4.822   7.118  -0.740  0.00  0.00    -0.640 N 
ATOM     24  O   LIG    1       -3.999   5.629   2.338  0.00  0.00    -0.460 OA
ATOM     25  C   LIG    1       -4.120   6.024  -1.034  0.00  0.00    +0.740 C 
ATOM     26  O   LIG    1       -3.833   5.684  -2.165  0.00  0.00    -0.530 OA
ENDBRANCH  16  17
ENDBRANCH   2  16
TORSDOF 4
