REMARK  Name = ZINCrH000004nX8n.0
REMARK                            x       y       z     vdW  Elec       q    Type
REMARK                         _______ _______ _______ _____ _____    ______ ____
ROOT
ATOM      1  C   LIG    1       -2.132   7.386  -1.524  0.00  0.00    +0.560 C 
ATOM      2  N   LIG    1       -1.771   6.246  -0.903  0.00  0.00    -0.610 N 
ATOM      3  C   LIG    1       -1.347   6.261   0.503  0.00  0.00    +0.310 C 
ATOM      4  C   LIG    1        0.022   5.582   0.614  0.00  0.00    +0.050 C 
ATOM      5  C   LIG    1       -0.056   4.184  -0.004  0.00  0.00    +0.170 C 
ATOM      6  C   LIG    1       -0.420   4.298  -1.486  0.00  0.00    +0.010 C 
ATOM      7  C   LIG    1       -1.794   4.963  -1.620  0.00  0.00    +0.280 C 
ATOM      8  O   LIG    1       -2.009   8.453  -0.956  0.00  0.00    -0.490 OA
ENDROOT
BRANCH   1  13
ATOM      9  C   LIG    1       -4.302   6.517  -4.471  0.00  0.00    -0.050 A 
ATOM     10  C   LIG    1       -3.693   7.257  -5.479  0.00  0.00    +0.030 A 
ATOM     11  C   LIG    1       -2.583   8.032  -5.199  0.00  0.00    +0.130 A 
ATOM     12  C   LIG    1       -2.072   8.077  -3.917  0.00  0.00    -0.020 A 
ATOM     13  C   LIG    1       -2.677   7.339  -2.898  0.00  0.00    -0.040 A 
ATOM     14  C   LIG    1       -3.794   6.553  -3.181  0.00  0.00    +0.080 A 
BRANCH  12  15
ATOM     15  N   LIG    1       -0.883   8.908  -3.624  0.00  0.00    +0.020 N 
ATOM     16  O   LIG    1       -0.365   8.861  -2.523  0.00  0.00    -0.120 OA
ATOM     17  O   LIG    1       -0.424   9.639  -4.483  0.00  0.00    -0.160 OA
ENDBRANCH  12  15
BRANCH   9  19
ATOM     18  C   LIG    1       -5.968   5.816  -6.608  0.00  0.00    +0.140 C 
ATOM     19  S   LIG    1       -5.716   5.530  -4.834  0.00  0.00    -0.060 S 
ENDBRANCH   9  19
ENDBRANCH   1  13
BRANCH   5  20
ATOM     20  O   LIG    1        1.211   3.535   0.126  0.00  0.00    -0.300 OA
BRANCH  20  21
ATOM     21  C   LIG    1        1.211   2.178   0.119  0.00  0.00    +0.170 A 
ATOM     22  C   LIG    1        0.017   1.464   0.089  0.00  0.00    -0.120 A 
ATOM     23  C   LIG    1        0.059   0.084   0.083  0.00  0.00    +0.290 A 
ATOM     24  N   LIG    1        1.213  -0.556   0.105  0.00  0.00    -0.510 NA
ATOM     25  C   LIG    1        2.366   0.085   0.134  0.00  0.00    +0.290 A 
ATOM     26  C   LIG    1        2.407   1.464   0.142  0.00  0.00    -0.170 A 
ATOM     27  C   LIG    1        3.728   2.188   0.176  0.00  0.00    +0.110 C 
ENDBRANCH  20  21
ENDBRANCH   5  20
TORSDOF 5
