REMARK  Name = ZINCvU0000000I1W.0
REMARK                            x       y       z     vdW  Elec       q    Type
REMARK                         _______ _______ _______ _____ _____    ______ ____
ROOT
ATOM      1  C   LIG    1      -10.128   1.031  -0.076  0.00  0.00    +0.610 C 
ATOM      2  N   LIG    1      -11.345   1.505  -0.409  0.00  0.00    -0.600 N 
ATOM      3  C   LIG    1      -11.463   2.660  -1.302  0.00  0.00    +0.310 C 
ATOM      4  O   LIG    1      -10.031   0.057   0.646  0.00  0.00    -0.520 OA
ENDROOT
BRANCH   1   8
ATOM      5  C   LIG    1       -7.163   3.020  -1.683  0.00  0.00    +0.080 A 
ATOM      6  N   LIG    1       -6.737   2.156  -0.805  0.00  0.00    -0.480 NA
ATOM      7  C   LIG    1       -7.635   1.431  -0.193  0.00  0.00    +0.170 A 
ATOM      8  C   LIG    1       -8.921   1.690  -0.584  0.00  0.00    -0.320 A 
ATOM      9  C   LIG    1       -7.286   0.398   0.847  0.00  0.00    +0.160 C 
ATOM     10  S   LIG    1       -8.866   2.958  -1.807  0.00  0.00    +0.210 S 
BRANCH   5  14
ATOM     11  C   LIG    1       -4.665   5.617  -3.933  0.00  0.00    -0.060 A 
ATOM     12  C   LIG    1       -6.037   5.655  -4.111  0.00  0.00    +0.010 A 
ATOM     13  C   LIG    1       -6.853   4.810  -3.387  0.00  0.00    +0.030 A 
ATOM     14  C   LIG    1       -6.294   3.924  -2.466  0.00  0.00    -0.050 A 
ATOM     15  C   LIG    1       -4.910   3.894  -2.287  0.00  0.00    +0.080 A 
ATOM     16  C   LIG    1       -4.104   4.740  -3.021  0.00  0.00    +0.010 A 
BRANCH  11  18
ATOM     17  C   LIG    1       -3.368   5.848  -6.033  0.00  0.00    +0.030 C 
ATOM     18  C   LIG    1       -3.780   6.538  -4.731  0.00  0.00    +0.070 C 
ENDBRANCH  11  18
ENDBRANCH   5  14
ENDBRANCH   1   8
BRANCH   2  19
ATOM     19  C   LIG    1      -12.551   0.865   0.123  0.00  0.00    +0.340 C 
BRANCH  19  20
ATOM     20  C   LIG    1      -12.932   1.517   1.427  0.00  0.00    +0.490 C 
ATOM     21  N   LIG    1      -14.017   1.089   2.103  0.00  0.00    -0.670 N 
ATOM     22  H   LIG    1      -14.577   0.391   1.729  0.00  0.00    +0.410 HD
ATOM     23  O   LIG    1      -12.262   2.426   1.869  0.00  0.00    -0.500 OA
BRANCH  21  24
ATOM     24  C   LIG    1      -14.335   1.651   3.344  0.00  0.00    +0.130 A 
ATOM     25  C   LIG    1      -13.380   1.700   4.351  0.00  0.00    -0.060 A 
ATOM     26  C   LIG    1      -13.696   2.260   5.574  0.00  0.00    +0.000 A 
ATOM     27  C   LIG    1      -14.964   2.763   5.798  0.00  0.00    -0.080 A 
ATOM     28  C   LIG    1      -15.919   2.711   4.799  0.00  0.00    +0.010 A 
ATOM     29  C   LIG    1      -15.307   3.369   7.135  0.00  0.00    +0.090 C 
ATOM     30  C   LIG    1      -11.999   1.147   4.109  0.00  0.00    +0.090 C 
ATOM     31  C   LIG    1      -15.608   2.157   3.573  0.00  0.00    -0.090 A 
ATOM     32  C   LIG    1      -16.648   2.102   2.484  0.00  0.00    +0.090 C 
ENDBRANCH  21  24
ENDBRANCH  19  20
ENDBRANCH   2  19
TORSDOF 6
