REMARK  Name = ZINCrH000004rIFJ.1
REMARK                            x       y       z     vdW  Elec       q    Type
REMARK                         _______ _______ _______ _____ _____    ______ ____
ROOT
ATOM      1  C   LIG    1       -3.589   0.746   0.042  0.00  0.00    +0.320 C 
ATOM      2  C   LIG    1       -4.130   0.671  -1.401  0.00  0.00    +0.050 C 
ATOM      3  C   LIG    1       -5.348   1.631  -1.365  0.00  0.00    +0.040 C 
ATOM      4  C   LIG    1       -4.849   2.732  -0.396  0.00  0.00    +0.260 C 
ATOM      5  N   LIG    1       -4.064   2.010   0.622  0.00  0.00    -0.600 N 
ATOM      6  C   LIG    1       -3.824   2.439   1.877  0.00  0.00    +0.540 C 
ATOM      7  O   LIG    1       -3.162   1.759   2.634  0.00  0.00    -0.520 OA
ENDROOT
BRANCH   1  14
ATOM      8  C   LIG    1        3.712  -0.693  -0.040  0.00  0.00    +0.100 C 
ATOM      9  C   LIG    1        2.394   0.037  -0.022  0.00  0.00    -0.070 A 
ATOM     10  C   LIG    1        2.375   1.425  -0.014  0.00  0.00    +0.000 A 
ATOM     11  C   LIG    1        1.190   2.105   0.002  0.00  0.00    +0.070 A 
ATOM     12  C   LIG    1       -0.017   1.401   0.010  0.00  0.00    +0.040 A 
ATOM     13  N   LIG    1       -1.321   1.779   0.030  0.00  0.00    -0.470 NA
ATOM     14  C   LIG    1       -2.082   0.724   0.027  0.00  0.00    +0.280 A 
ATOM     15  N   LIG    1       -1.320  -0.403   0.013  0.00  0.00    -0.600 N 
ATOM     16  H   LIG    1       -1.644  -1.317   0.012  0.00  0.00    +0.420 HD
ATOM     17  C   LIG    1        0.002  -0.004   0.002  0.00  0.00    +0.060 A 
ATOM     18  C   LIG    1        1.215  -0.678  -0.014  0.00  0.00    +0.000 A 
ENDBRANCH   1  14
BRANCH   6  19
ATOM     19  C   LIG    1       -4.375   3.762   2.341  0.00  0.00    +0.120 C 
BRANCH  19  20
ATOM     20  C   LIG    1       -3.966   4.005   3.770  0.00  0.00    -0.100 A 
ATOM     21  C   LIG    1       -2.783   4.663   4.051  0.00  0.00    +0.060 A 
ATOM     22  C   LIG    1       -2.405   4.890   5.358  0.00  0.00    -0.010 A 
ATOM     23  C   LIG    1       -3.212   4.457   6.407  0.00  0.00    +0.110 A 
ATOM     24  O   LIG    1       -3.038   4.583   7.751  0.00  0.00    -0.310 OA
ATOM     25  C   LIG    1       -3.876   3.631   8.429  0.00  0.00    +0.240 C 
ATOM     26  C   LIG    1       -5.045   3.435   7.435  0.00  0.00    +0.070 C 
ATOM     27  C   LIG    1       -4.395   3.792   6.112  0.00  0.00    -0.180 A 
ATOM     28  C   LIG    1       -4.775   3.574   4.807  0.00  0.00    +0.070 A 
ENDBRANCH  19  20
ENDBRANCH   6  19
TORSDOF 3
