REMARK  Name = ZINCrH000004rIFJ.0
REMARK                            x       y       z     vdW  Elec       q    Type
REMARK                         _______ _______ _______ _____ _____    ______ ____
ROOT
ATOM      1  C   LIG    1        1.208  -0.845  -0.014  0.00  0.00    +0.320 C 
ATOM      2  C   LIG    1        0.742  -2.316   0.011  0.00  0.00    +0.050 C 
ATOM      3  C   LIG    1       -0.686  -2.217   0.610  0.00  0.00    +0.040 C 
ATOM      4  C   LIG    1       -1.184  -0.879   0.015  0.00  0.00    +0.260 C 
ATOM      5  N   LIG    1        0.002  -0.004   0.002  0.00  0.00    -0.600 N 
ATOM      6  C   LIG    1       -0.016   1.344   0.009  0.00  0.00    +0.540 C 
ATOM      7  O   LIG    1        1.026   1.964   0.003  0.00  0.00    -0.520 OA
ENDROOT
BRANCH   1  15
ATOM      8  C   LIG    1        3.728   0.903  -6.754  0.00  0.00    +0.100 C 
ATOM      9  C   LIG    1        3.702   0.438  -5.321  0.00  0.00    -0.090 A 
ATOM     10  C   LIG    1        4.878   0.022  -4.713  0.00  0.00    +0.030 A 
ATOM     11  C   LIG    1        4.873  -0.408  -3.403  0.00  0.00    +0.010 A 
ATOM     12  C   LIG    1        3.684  -0.423  -2.689  0.00  0.00    +0.040 A 
ATOM     13  N   LIG    1        3.341  -0.777  -1.399  0.00  0.00    -0.600 N 
ATOM     14  H   LIG    1        3.943  -1.107  -0.714  0.00  0.00    +0.420 HD
ATOM     15  C   LIG    1        2.001  -0.579  -1.268  0.00  0.00    +0.280 A 
ATOM     16  N   LIG    1        1.505  -0.123  -2.381  0.00  0.00    -0.470 NA
ATOM     17  C   LIG    1        2.493  -0.002  -3.305  0.00  0.00    +0.050 A 
ATOM     18  C   LIG    1        2.522   0.429  -4.633  0.00  0.00    +0.060 A 
ENDBRANCH   1  15
BRANCH   6  19
ATOM     19  C   LIG    1       -1.331   2.079   0.020  0.00  0.00    +0.120 C 
BRANCH  19  20
ATOM     20  C   LIG    1       -1.076   3.564   0.026  0.00  0.00    -0.100 A 
ATOM     21  C   LIG    1       -0.964   4.255  -1.166  0.00  0.00    +0.060 A 
ATOM     22  C   LIG    1       -0.734   5.615  -1.165  0.00  0.00    -0.010 A 
ATOM     23  C   LIG    1       -0.611   6.305   0.038  0.00  0.00    +0.110 A 
ATOM     24  O   LIG    1       -0.396   7.630   0.267  0.00  0.00    -0.310 OA
ATOM     25  C   LIG    1        0.082   7.807   1.611  0.00  0.00    +0.240 C 
ATOM     26  C   LIG    1       -0.532   6.598   2.356  0.00  0.00    +0.070 C 
ATOM     27  C   LIG    1       -0.720   5.599   1.230  0.00  0.00    -0.170 A 
ATOM     28  C   LIG    1       -0.959   4.243   1.227  0.00  0.00    +0.070 A 
ENDBRANCH  19  20
ENDBRANCH   6  19
TORSDOF 3
