REMARK  Name = ZINCrH000004qQDx.0
REMARK                            x       y       z     vdW  Elec       q    Type
REMARK                         _______ _______ _______ _____ _____    ______ ____
ROOT
ATOM      1  C   LIG    1       -3.719   5.504  -3.964  0.00  0.00    +0.090 C 
ATOM      2  C   LIG    1       -2.494   4.708  -4.331  0.00  0.00    -0.080 A 
ATOM      3  C   LIG    1       -2.088   4.633  -5.649  0.00  0.00    +0.000 A 
ATOM      4  C   LIG    1       -0.961   3.899  -5.987  0.00  0.00    +0.110 A 
ATOM      5  C   LIG    1       -0.239   3.240  -5.003  0.00  0.00    -0.060 A 
ATOM      6  C   LIG    1       -0.641   3.318  -3.683  0.00  0.00    +0.060 A 
ATOM      7  C   LIG    1       -1.772   4.048  -3.345  0.00  0.00    +0.140 A 
ENDROOT
BRANCH   7   8
ATOM      8  N   LIG    1       -2.183   4.124  -2.007  0.00  0.00    -0.680 N 
ATOM      9  H   LIG    1       -2.720   4.874  -1.706  0.00  0.00    +0.400 HD
ATOM     10  C   LIG    1       -1.833   3.154  -1.139  0.00  0.00    +0.720 C 
ATOM     11  N   LIG    1       -2.132   3.281   0.170  0.00  0.00    -0.630 N 
ATOM     12  C   LIG    1       -2.911   4.379   0.770  0.00  0.00    +0.230 C 
ATOM     13  C   LIG    1       -2.460   4.421   2.252  0.00  0.00    +0.040 C 
ATOM     14  C   LIG    1       -2.273   2.910   2.566  0.00  0.00    +0.040 C 
ATOM     15  C   LIG    1       -1.735   2.347   1.233  0.00  0.00    +0.210 C 
ATOM     16  O   LIG    1       -1.248   2.165  -1.536  0.00  0.00    -0.540 OA
BRANCH  15  17
ATOM     17  C   LIG    1       -2.343   0.968   0.968  0.00  0.00    +0.120 C 
ATOM     18  C   LIG    1       -3.851   1.109   0.750  0.00  0.00    +0.060 C 
ATOM     19  C   LIG    1       -2.085   0.057   2.170  0.00  0.00    +0.020 C 
BRANCH  17  20
ATOM     20  O   LIG    1       -1.743   0.400  -0.198  0.00  0.00    -0.530 OA
ATOM     21  H   LIG    1       -0.786   0.281  -0.130  0.00  0.00    +0.370 HD
ENDBRANCH  17  20
ENDBRANCH  15  17
ENDBRANCH   7   8
BRANCH   4  22
ATOM     22  O   LIG    1       -0.562   3.826  -7.285  0.00  0.00    -0.310 OA
BRANCH  22  23
ATOM     23  C   LIG    1        0.608   3.053  -7.562  0.00  0.00    +0.260 C 
BRANCH  23  24
ATOM     24  C   LIG    1        0.894   3.086  -9.041  0.00  0.00    -0.050 A 
ATOM     25  C   LIG    1        0.357   2.131  -9.890  0.00  0.00    -0.010 A 
ATOM     26  C   LIG    1        0.638   2.196 -11.242  0.00  0.00    +0.260 A 
ATOM     27  N   LIG    1        1.414   3.147 -11.724  0.00  0.00    -0.480 NA
ATOM     28  C   LIG    1        1.945   4.070 -10.946  0.00  0.00    +0.260 A 
ATOM     29  C   LIG    1        1.705   4.071  -9.585  0.00  0.00    -0.010 A 
ENDBRANCH  23  24
ENDBRANCH  22  23
ENDBRANCH   4  22
TORSDOF 6
