REMARK  Name = ZINCkj000005llVN.0
REMARK                            x       y       z     vdW  Elec       q    Type
REMARK                         _______ _______ _______ _____ _____    ______ ____
ROOT
ATOM      1  C   LIG    1        7.577  -4.245  -5.172  0.00  0.00    +0.130 C 
ATOM      2  C   LIG    1        7.638  -2.815  -4.623  0.00  0.00    +0.310 C 
ATOM      3  N   LIG    1        6.613  -2.676  -3.576  0.00  0.00    -0.640 N 
ATOM      4  C   LIG    1        6.575  -3.686  -2.507  0.00  0.00    +0.260 C 
ATOM      5  C   LIG    1        6.562  -5.077  -3.162  0.00  0.00    +0.240 C 
ATOM      6  C   LIG    1        5.739  -1.650  -3.592  0.00  0.00    +0.710 C 
ATOM      7  N   LIG    1        4.877  -1.482  -2.569  0.00  0.00    -0.740 N 
ATOM      8  H   LIG    1        4.837  -2.139  -1.857  0.00  0.00    +0.400 HD
ATOM      9  O   LIG    1        5.727  -0.876  -4.530  0.00  0.00    -0.580 OA
ATOM     10  O   LIG    1        7.650  -5.170  -4.085  0.00  0.00    -0.390 OA
ENDROOT
BRANCH   1  11
ATOM     11  C   LIG    1        8.753  -4.478  -6.122  0.00  0.00    +0.310 C 
BRANCH  11  12
ATOM     12  N   LIG    1        8.628  -5.804  -6.740  0.00  0.00    -0.630 N 
ATOM     13  H   LIG    1        7.763  -5.855  -7.257  0.00  0.00    +0.440 HD
ATOM     14  H   LIG    1        8.632  -6.512  -6.021  0.00  0.00    +0.440 HD
ATOM     15  H   LIG    1        9.404  -5.958  -7.366  0.00  0.00    +0.440 HD
ENDBRANCH  11  12
ENDBRANCH   1  11
BRANCH   7  16
ATOM     16  C   LIG    1        4.003  -0.307  -2.534  0.00  0.00    +0.280 C 
BRANCH  16  17
ATOM     17  C   LIG    1        3.131  -0.359  -1.277  0.00  0.00    -0.010 C 
ATOM     18  C   LIG    1        4.017  -0.241  -0.036  0.00  0.00    +0.020 C 
ATOM     19  C   LIG    1        3.162  -0.365   1.226  0.00  0.00    +0.010 C 
ATOM     20  C   LIG    1        2.163   0.794   1.281  0.00  0.00    +0.060 C 
ATOM     21  C   LIG    1        1.324   0.788  -0.000  0.00  0.00    -0.120 C 
ATOM     22  C   LIG    1       -0.009   1.534   0.018  0.00  0.00    +0.020 C 
ATOM     23  C   LIG    1        0.012   0.004   0.014  0.00  0.00    +0.010 C 
ATOM     24  C   LIG    1        2.131   0.801  -1.302  0.00  0.00    +0.070 C 
ENDBRANCH  16  17
ENDBRANCH   7  16
TORSDOF 4
