REMARK  Name = ZINCrD000000AkXK.0
REMARK                            x       y       z     vdW  Elec       q    Type
REMARK                         _______ _______ _______ _____ _____    ______ ____
ROOT
ATOM      1  N   LIG    1       -3.562   1.966   0.120  0.00  0.00    -0.570 N 
ATOM      2  C   LIG    1       -4.065   2.543   1.219  0.00  0.00    +0.710 C 
ATOM      3  N   LIG    1       -5.049   3.419   0.934  0.00  0.00    -0.710 N 
ATOM      4  H   LIG    1       -5.555   3.954   1.566  0.00  0.00    +0.440 HD
ATOM      5  C   LIG    1       -5.204   3.399  -0.521  0.00  0.00    +0.170 C 
ATOM      6  C   LIG    1       -4.960   4.787  -1.128  0.00  0.00    +0.090 C 
ATOM      7  C   LIG    1       -6.397   5.341  -1.261  0.00  0.00    +0.100 C 
ATOM      8  C   LIG    1       -7.287   4.120  -1.362  0.00  0.00    -0.070 A 
ATOM      9  C   LIG    1       -8.596   3.998  -1.794  0.00  0.00    +0.020 A 
ATOM     10  C   LIG    1       -9.217   2.765  -1.794  0.00  0.00    +0.030 A 
ATOM     11  C   LIG    1       -8.530   1.647  -1.362  0.00  0.00    +0.010 A 
ATOM     12  C   LIG    1       -7.223   1.765  -0.931  0.00  0.00    +0.040 A 
ATOM     13  C   LIG    1       -6.596   3.000  -0.930  0.00  0.00    -0.110 A 
ATOM     14  O   LIG    1       -3.677   2.305   2.346  0.00  0.00    -0.530 OA
ATOM     15  C   LIG    1       -4.178   2.405  -0.998  0.00  0.00    +0.540 C 
ATOM     16  O   LIG    1       -3.953   2.072  -2.142  0.00  0.00    -0.450 OA
ENDROOT
BRANCH   1  17
ATOM     17  C   LIG    1       -2.482   0.976   0.131  0.00  0.00    +0.370 C 
BRANCH  17  19
ATOM     18  O   LIG    1       -1.114   2.890  -0.064  0.00  0.00    -0.500 OA
ATOM     19  C   LIG    1       -1.154   1.680   0.018  0.00  0.00    +0.510 C 
ATOM     20  N   LIG    1       -0.011   0.966   0.007  0.00  0.00    -0.660 N 
ATOM     21  H   LIG    1       -0.045  -0.003  -0.011  0.00  0.00    +0.420 HD
BRANCH  20  22
ATOM     22  C   LIG    1        1.225   1.623   0.017  0.00  0.00    +0.170 A 
ATOM     23  C   LIG    1        1.327   2.905   0.539  0.00  0.00    +0.050 A 
ATOM     24  C   LIG    1        2.549   3.551   0.547  0.00  0.00    +0.070 A 
ATOM     25  C   LIG    1        3.669   2.922   0.035  0.00  0.00    -0.040 A 
ATOM     26  C   LIG    1        3.571   1.644  -0.487  0.00  0.00    +0.070 A 
ATOM     27 CL   LIG    1        5.202   3.738   0.047  0.00  0.00    -0.050 Cl
ATOM     28  C   LIG    1        2.354   0.991  -0.492  0.00  0.00    -0.060 A 
ATOM     29 CL   LIG    1        2.232  -0.616  -1.139  0.00  0.00    -0.050 Cl
ENDBRANCH  20  22
ENDBRANCH  17  19
ENDBRANCH   1  17
TORSDOF 3
