REMARK  Name = ZINCkj00000y7HP1.0
REMARK                            x       y       z     vdW  Elec       q    Type
REMARK                         _______ _______ _______ _____ _____    ______ ____
ROOT
ATOM      1  C   LIG    1       -0.014   1.209   0.009  0.00  0.00    +0.520 C 
ATOM      2  N   LIG    1        1.143   1.898   0.001  0.00  0.00    -0.610 N 
ATOM      3  C   LIG    1        1.140   3.368   0.009  0.00  0.00    +0.270 C 
ATOM      4  C   LIG    1        1.988   3.869  -1.163  0.00  0.00    +0.050 C 
ATOM      5  C   LIG    1        3.383   3.244  -1.083  0.00  0.00    +0.040 C 
ATOM      6  C   LIG    1        3.268   1.721  -1.187  0.00  0.00    +0.160 C 
ATOM      7  C   LIG    1        2.434   1.195  -0.009  0.00  0.00    +0.240 C 
ATOM      8  C   LIG    1        3.172   1.459   1.306  0.00  0.00    +0.050 C 
ATOM      9  O   LIG    1        0.002  -0.004   0.002  0.00  0.00    -0.520 OA
ENDROOT
BRANCH   6  10
ATOM     10  N   LIG    1        4.609   1.124  -1.141  0.00  0.00    -0.630 N 
ATOM     11  H   LIG    1        5.159   1.472  -1.912  0.00  0.00    +0.440 HD
ATOM     12  H   LIG    1        4.532   0.120  -1.209  0.00  0.00    +0.440 HD
ATOM     13  H   LIG    1        5.057   1.369  -0.271  0.00  0.00    +0.430 HD
ENDBRANCH   6  10
BRANCH   1  14
ATOM     14  C   LIG    1       -1.330   1.944   0.019  0.00  0.00    +0.060 C 
BRANCH  14  15
ATOM     15  C   LIG    1       -2.479   0.934   0.019  0.00  0.00    +0.110 C 
BRANCH  15  19
ATOM     16  C   LIG    1       -6.169   2.998  -0.035  0.00  0.00    +0.320 A 
ATOM     17  C   LIG    1       -5.608   2.681   1.196  0.00  0.00    -0.050 A 
ATOM     18  C   LIG    1       -4.403   2.001   1.231  0.00  0.00    +0.110 A 
ATOM     19  C   LIG    1       -3.794   1.670   0.029  0.00  0.00    -0.190 A 
ATOM     20  C   LIG    1       -4.409   2.017  -1.158  0.00  0.00    +0.310 A 
ATOM     21  N   LIG    1       -5.560   2.661  -1.160  0.00  0.00    -0.540 NA
BRANCH  16  23
ATOM     22  C   LIG    1       -7.877   3.958  -1.379  0.00  0.00    +0.260 C 
ATOM     23  O   LIG    1       -7.352   3.660  -0.083  0.00  0.00    -0.310 OA
ENDBRANCH  16  23
ENDBRANCH  15  19
ENDBRANCH  14  15
ENDBRANCH   1  14
TORSDOF 5
