REMARK  Name = ZINCpk00000y6z1D.2
REMARK                            x       y       z     vdW  Elec       q    Type
REMARK                         _______ _______ _______ _____ _____    ______ ____
ROOT
ATOM      1  C   LIG    1       -1.962  -1.063  -1.331  0.00  0.00    +0.000 C 
ATOM      2  C   LIG    1       -3.344  -1.719  -1.264  0.00  0.00    +0.030 C 
ATOM      3  C   LIG    1       -3.208  -3.115  -0.649  0.00  0.00    +0.020 C 
ATOM      4  C   LIG    1       -2.572  -2.996   0.738  0.00  0.00    +0.180 C 
ATOM      5  N   LIG    1       -1.252  -2.363   0.620  0.00  0.00    -0.540 NA
ATOM      6  C   LIG    1       -0.553  -2.358   1.912  0.00  0.00    +0.190 C 
ATOM      7  C   LIG    1       -1.362  -1.003   0.075  0.00  0.00    +0.220 C 
ENDROOT
BRANCH   7   8
ATOM      8  C   LIG    1        0.007  -0.376   0.011  0.00  0.00    +0.100 A 
ATOM      9  C   LIG    1        0.405   0.739   0.667  0.00  0.00    -0.130 A 
ATOM     10  C   LIG    1        1.742   0.980   0.335  0.00  0.00    +0.230 A 
ATOM     11  N   LIG    1        2.133   0.043  -0.491  0.00  0.00    -0.300 NA
ATOM     12  N   LIG    1        1.055  -0.825  -0.710  0.00  0.00    -0.350 N 
ATOM     13  C   LIG    1        1.064  -2.010  -1.571  0.00  0.00    +0.360 C 
ENDBRANCH   7   8
BRANCH   1  14
ATOM     14  C   LIG    1       -2.097   0.356  -1.889  0.00  0.00    +0.180 C 
BRANCH  14  15
ATOM     15  N   LIG    1       -2.538   0.291  -3.289  0.00  0.00    -0.530 NA
ATOM     16  C   LIG    1       -3.041   1.595  -3.743  0.00  0.00    +0.190 C 
BRANCH  15  17
ATOM     17  C   LIG    1       -1.458  -0.188  -4.160  0.00  0.00    +0.310 C 
BRANCH  17  20
ATOM     18  C   LIG    1       -2.628  -0.275  -7.547  0.00  0.00    +0.180 A 
ATOM     19  N   LIG    1       -2.088   0.394  -6.557  0.00  0.00    -0.460 NA
ATOM     20  C   LIG    1       -2.009  -0.475  -5.533  0.00  0.00    +0.180 A 
ATOM     21  N   LIG    1       -2.491  -1.609  -5.947  0.00  0.00    -0.360 NA
ATOM     22  O   LIG    1       -2.857  -1.514  -7.100  0.00  0.00    +0.090 OA
BRANCH  18  23
ATOM     23  C   LIG    1       -2.931   0.252  -8.926  0.00  0.00    +0.350 C 
BRANCH  23  25
ATOM     24  C   LIG    1       -1.986   0.508 -11.114  0.00  0.00    +0.230 C 
ATOM     25  O   LIG    1       -1.801   0.042  -9.775  0.00  0.00    -0.380 OA
ENDBRANCH  23  25
ENDBRANCH  18  23
ENDBRANCH  17  20
ENDBRANCH  15  17
ENDBRANCH  14  15
ENDBRANCH   1  14
TORSDOF 7
