REMARK  Name = ZINCrH000004l7Ev.0
REMARK                            x       y       z     vdW  Elec       q    Type
REMARK                         _______ _______ _______ _____ _____    ______ ____
ROOT
ATOM      1  C   LIG    1        0.845   2.604  -0.629  0.00  0.00    +0.010 C 
ATOM      2  C   LIG    1        1.338   3.490  -1.775  0.00  0.00    +0.040 C 
ATOM      3  C   LIG    1        2.695   4.095  -1.400  0.00  0.00    +0.280 C 
ATOM      4  N   LIG    1        3.614   3.006  -1.040  0.00  0.00    -0.610 N 
ATOM      5  C   LIG    1        3.200   2.042  -0.012  0.00  0.00    +0.280 C 
ATOM      6  C   LIG    1        4.815   2.895  -1.642  0.00  0.00    +0.560 C 
ATOM      7  O   LIG    1        5.521   1.932  -1.416  0.00  0.00    -0.520 OA
ATOM      8  C   LIG    1        1.837   1.461  -0.403  0.00  0.00    +0.060 C 
ENDROOT
BRANCH   6   9
ATOM      9  C   LIG    1        5.273   3.943  -2.578  0.00  0.00    -0.120 A 
ATOM     10  C   LIG    1        5.965   3.593  -3.739  0.00  0.00    +0.080 A 
ATOM     11  C   LIG    1        6.386   4.576  -4.610  0.00  0.00    +0.050 A 
ATOM     12  C   LIG    1        6.133   5.908  -4.330  0.00  0.00    -0.070 A 
ATOM     13  C   LIG    1        5.451   6.262  -3.178  0.00  0.00    +0.040 A 
ATOM     14 BR   LIG    1        6.720   7.250  -5.527  0.00  0.00    -0.040 Br
ATOM     15  C   LIG    1        5.021   5.288  -2.301  0.00  0.00    +0.050 A 
ENDBRANCH   6   9
BRANCH   1  18
ATOM     16  N   LIG    1       -1.541   2.860  -1.229  0.00  0.00    -0.640 N 
ATOM     17  H   LIG    1       -1.440   3.817  -1.103  0.00  0.00    +0.430 HD
ATOM     18  C   LIG    1       -0.505   2.034  -0.980  0.00  0.00    +0.520 C 
ATOM     19  O   LIG    1       -0.659   0.833  -1.043  0.00  0.00    -0.500 OA
BRANCH  16  21
ATOM     20  C   LIG    1       -3.907   3.087  -1.782  0.00  0.00    -0.350 A 
ATOM     21  C   LIG    1       -2.758   2.340  -1.669  0.00  0.00    +0.250 A 
ATOM     22  C   LIG    1       -2.937   1.019  -2.030  0.00  0.00    +0.000 A 
ATOM     23  C   LIG    1       -4.172   0.702  -2.425  0.00  0.00    -0.020 A 
ATOM     24  S   LIG    1       -5.205   2.058  -2.369  0.00  0.00    +0.270 S 
BRANCH  20  25
ATOM     25  C   LIG    1       -4.025   4.464  -1.476  0.00  0.00    +0.550 C 
ATOM     26  O   LIG    1       -3.057   5.083  -1.076  0.00  0.00    -0.520 OA
BRANCH  25  28
ATOM     27  C   LIG    1       -5.258   6.480  -1.301  0.00  0.00    +0.270 C 
ATOM     28  O   LIG    1       -5.211   5.090  -1.629  0.00  0.00    -0.350 OA
ENDBRANCH  25  28
ENDBRANCH  20  25
ENDBRANCH  16  21
ENDBRANCH   1  18
TORSDOF 5
