REMARK  Name = ZINCpk00000KfKVS.0
REMARK                            x       y       z     vdW  Elec       q    Type
REMARK                         _______ _______ _______ _____ _____    ______ ____
ROOT
ATOM      1  O   LIG    1       -1.204   2.839   0.023  0.00  0.00    -0.530 OA
ATOM      2  C   LIG    1       -1.187   1.624   0.017  0.00  0.00    +0.560 C 
ATOM      3  N   LIG    1       -0.011   0.966   0.007  0.00  0.00    -0.720 N 
ATOM      4  H   LIG    1        0.002  -0.004   0.002  0.00  0.00    +0.400 HD
ENDROOT
BRANCH   3   5
ATOM      5  C   LIG    1        1.248   1.716  -0.001  0.00  0.00    +0.240 C 
ATOM      6  C   LIG    1        2.350   0.856  -0.626  0.00  0.00    +0.040 C 
ATOM      7  C   LIG    1        3.598   1.719  -0.850  0.00  0.00    +0.160 C 
ATOM      8  C   LIG    1        3.887   2.472   0.427  0.00  0.00    +0.200 A 
ATOM      9  N   LIG    1        4.991   3.077   0.755  0.00  0.00    -0.490 NA
ATOM     10  C   LIG    1        4.849   3.626   1.972  0.00  0.00    +0.140 A 
ATOM     11  C   LIG    1        3.606   3.348   2.414  0.00  0.00    +0.130 A 
ATOM     12  N   LIG    1        2.997   2.619   1.437  0.00  0.00    -0.450 N 
ATOM     13  C   LIG    1        1.635   2.078   1.437  0.00  0.00    +0.280 C 
ENDBRANCH   3   5
BRANCH   2  14
ATOM     14  C   LIG    1       -2.458   0.867   0.018  0.00  0.00    -0.140 A 
ATOM     15  C   LIG    1       -2.442  -0.528   0.011  0.00  0.00    +0.050 A 
ATOM     16  C   LIG    1       -3.631  -1.228   0.013  0.00  0.00    +0.010 A 
ATOM     17  C   LIG    1       -4.837  -0.550   0.023  0.00  0.00    +0.040 A 
ATOM     18  C   LIG    1       -4.859   0.834   0.031  0.00  0.00    -0.090 A 
ATOM     19  C   LIG    1       -3.678   1.546   0.034  0.00  0.00    +0.110 A 
BRANCH  18  20
ATOM     20  C   LIG    1       -6.177   1.564   0.043  0.00  0.00    +0.230 C 
BRANCH  20  21
ATOM     21  N   LIG    1       -6.597   1.794   1.432  0.00  0.00    -0.530 NA
ATOM     22  C   LIG    1       -6.902   0.525   2.107  0.00  0.00    +0.140 C 
ATOM     23  C   LIG    1       -7.277   0.805   3.564  0.00  0.00    +0.220 C 
ATOM     24  O   LIG    1       -8.379   1.717   3.601  0.00  0.00    -0.380 OA
ATOM     25  C   LIG    1       -8.115   2.964   2.953  0.00  0.00    +0.220 C 
ATOM     26  C   LIG    1       -7.749   2.705   1.490  0.00  0.00    +0.160 C 
ENDBRANCH  20  21
ENDBRANCH  18  20
ENDBRANCH   2  14
TORSDOF 4
