REMARK  Name = ZINCpe000000WFy0.0
REMARK                            x       y       z     vdW  Elec       q    Type
REMARK                         _______ _______ _______ _____ _____    ______ ____
ROOT
ATOM      1  N   LIG    1        4.510   0.172   2.017  0.00  0.00    -0.740 N 
ATOM      2  H   LIG    1        4.715   0.750   1.266  0.00  0.00    +0.400 HD
ATOM      3  C   LIG    1        5.473  -0.148   2.904  0.00  0.00    +0.700 C 
ATOM      4  N   LIG    1        6.721   0.336   2.748  0.00  0.00    -0.740 N 
ATOM      5  H   LIG    1        6.926   0.915   1.997  0.00  0.00    +0.400 HD
ATOM      6  O   LIG    1        5.216  -0.874   3.845  0.00  0.00    -0.590 OA
ENDROOT
BRANCH   1   7
ATOM      7  C   LIG    1        3.154  -0.355   2.186  0.00  0.00    +0.280 C 
BRANCH   7  11
ATOM      8  N   LIG    1       -0.018   1.465   0.010  0.00  0.00    -1.000 NA
ATOM      9  C   LIG    1        1.261   2.189   0.002  0.00  0.00    +0.290 C 
ATOM     10  C   LIG    1        2.125   1.677   1.158  0.00  0.00    +0.020 C 
ATOM     11  C   LIG    1        2.263   0.156   1.052  0.00  0.00    -0.020 C 
ATOM     12  C   LIG    1        0.880  -0.492   1.159  0.00  0.00    +0.020 C 
ATOM     13  C   LIG    1        0.002  -0.004   0.002  0.00  0.00    +0.290 C 
BRANCH   8  15
ATOM     14  C   LIG    1       -1.838   2.505   1.781  0.00  0.00    -0.280 C 
ATOM     15  S   LIG    1       -1.454   2.289   0.021  0.00  0.00    +2.610 S 
ATOM     16  O   LIG    1       -2.377   1.394  -0.584  0.00  0.00    -0.950 OA
ATOM     17  O   LIG    1       -1.145   3.540  -0.579  0.00  0.00    -0.950 OA
ENDBRANCH   8  15
ENDBRANCH   7  11
ENDBRANCH   1   7
BRANCH   4  18
ATOM     18  C   LIG    1        7.768  -0.011   3.712  0.00  0.00    +0.260 C 
BRANCH  18  19
ATOM     19  C   LIG    1        9.079   0.664   3.307  0.00  0.00    +0.260 C 
BRANCH  19  20
ATOM     20  C   LIG    1       10.156   0.306   4.299  0.00  0.00    -0.090 A 
ATOM     21  C   LIG    1       10.430   1.153   5.356  0.00  0.00    +0.010 A 
ATOM     22  C   LIG    1       11.418   0.827   6.267  0.00  0.00    +0.050 A 
ATOM     23  C   LIG    1       12.132  -0.347   6.122  0.00  0.00    -0.010 A 
ATOM     24  C   LIG    1       11.857  -1.197   5.063  0.00  0.00    +0.100 A 
ATOM     25  F   LIG    1       12.555  -2.345   4.920  0.00  0.00    -0.140 F 
ATOM     26  C   LIG    1       10.865  -0.871   4.154  0.00  0.00    -0.010 A 
ENDBRANCH  19  20
BRANCH  19  27
ATOM     27  O   LIG    1        9.463   0.216   2.005  0.00  0.00    -0.550 OA
ATOM     28  H   LIG    1        9.603  -0.739   1.943  0.00  0.00    +0.380 HD
ENDBRANCH  19  27
ENDBRANCH  18  19
ENDBRANCH   4  18
TORSDOF 7
