REMARK  Name = ZINCpe00000gMD9p.0
REMARK                            x       y       z     vdW  Elec       q    Type
REMARK                         _______ _______ _______ _____ _____    ______ ____
ROOT
ATOM      1  C   LIG    1       -4.986  -0.091   1.133  0.00  0.00    +0.600 C 
ATOM      2  N   LIG    1       -6.193  -0.689   1.095  0.00  0.00    -0.630 N 
ATOM      3  C   LIG    1       -7.193  -0.439   2.145  0.00  0.00    +0.300 C 
ATOM      4  C   LIG    1       -8.516  -0.050   1.468  0.00  0.00    +0.180 C 
ATOM      5  N   LIG    1       -8.885  -1.086   0.494  0.00  0.00    -0.520 NA
ATOM      6  C   LIG    1       -7.891  -1.183  -0.583  0.00  0.00    +0.170 C 
ATOM      7  C   LIG    1       -6.544  -1.614   0.007  0.00  0.00    +0.290 C 
ATOM      8  O   LIG    1       -4.211  -0.228   0.206  0.00  0.00    -0.510 OA
ENDROOT
BRANCH   1  15
ATOM      9  C   LIG    1       -4.163   2.050   2.116  0.00  0.00    +0.340 A 
ATOM     10  C   LIG    1       -3.803   2.812   3.220  0.00  0.00    -0.120 A 
ATOM     11  C   LIG    1       -3.891   2.276   4.489  0.00  0.00    +0.090 A 
ATOM     12  C   LIG    1       -4.328   0.973   4.671  0.00  0.00    -0.140 A 
ATOM     13  C   LIG    1       -4.685   0.200   3.587  0.00  0.00    +0.090 A 
ATOM     14 CL   LIG    1       -4.427   0.312   6.273  0.00  0.00    -0.110 Cl
ATOM     15  C   LIG    1       -4.606   0.730   2.297  0.00  0.00    -0.210 A 
BRANCH   9  16
ATOM     16  N   LIG    1       -4.080   2.589   0.838  0.00  0.00    -1.070 NA
BRANCH  16  18
ATOM     17  C   LIG    1       -3.612   4.405  -1.165  0.00  0.00    -0.300 C 
ATOM     18  S   LIG    1       -3.557   4.146   0.629  0.00  0.00    +2.530 S 
ATOM     19  O   LIG    1       -4.543   4.937   1.278  0.00  0.00    -1.030 OA
ATOM     20  O   LIG    1       -2.212   4.129   1.089  0.00  0.00    -1.020 OA
ENDBRANCH  16  18
ENDBRANCH   9  16
ENDBRANCH   1  15
BRANCH   5  21
ATOM     21  C   LIG    1      -10.228  -0.843  -0.049  0.00  0.00    +0.140 C 
ATOM     22  C   LIG    1      -11.278  -0.803   1.085  0.00  0.00    +0.070 C 
ATOM     23  C   LIG    1      -12.508  -1.537   0.520  0.00  0.00    +0.260 C 
ATOM     24  N   LIG    1      -12.177  -1.938  -0.864  0.00  0.00    -0.520 N 
ATOM     25  H   LIG    1      -12.498  -1.238  -1.516  0.00  0.00    +0.430 HD
ATOM     26  H   LIG    1      -12.595  -2.831  -1.077  0.00  0.00    +0.430 HD
ATOM     27  C   LIG    1      -10.694  -2.040  -0.916  0.00  0.00    +0.290 C 
ENDBRANCH   5  21
TORSDOF 4
