REMARK  Name = ZINCrH000004tZl2.0
REMARK                            x       y       z     vdW  Elec       q    Type
REMARK                         _______ _______ _______ _____ _____    ______ ____
ROOT
ATOM      1  O   LIG    1        1.128  -0.555  -0.093  0.00  0.00    -0.490 OA
ATOM      2  C   LIG    1        0.053  -0.003   0.008  0.00  0.00    +0.490 C 
ATOM      3  N   LIG    1       -0.016   1.344   0.009  0.00  0.00    -0.660 N 
ATOM      4  H   LIG    1       -0.880   1.785   0.019  0.00  0.00    +0.420 HD
ENDROOT
BRANCH   3   5
ATOM      5  C   LIG    1        1.160   2.105  -0.008  0.00  0.00    +0.140 A 
ATOM      6  C   LIG    1        1.216   3.310   0.678  0.00  0.00    +0.010 A 
ATOM      7  C   LIG    1        2.377   4.059   0.666  0.00  0.00    +0.050 A 
ATOM      8  C   LIG    1        3.485   3.616  -0.042  0.00  0.00    +0.040 A 
ATOM      9  O   LIG    1        4.617   4.373  -0.051  0.00  0.00    -0.310 OA
ATOM     10  C   LIG    1        5.824   3.720  -0.458  0.00  0.00    +0.220 C 
ATOM     11  C   LIG    1        5.529   2.914  -1.731  0.00  0.00    +0.220 C 
ATOM     12  O   LIG    1        4.508   1.957  -1.429  0.00  0.00    -0.300 OA
ATOM     13  C   LIG    1        3.430   2.411  -0.733  0.00  0.00    +0.070 A 
ATOM     14  C   LIG    1        2.267   1.657  -0.716  0.00  0.00    +0.040 A 
ENDBRANCH   3   5
BRANCH   2  15
ATOM     15  C   LIG    1       -1.206  -0.821   0.131  0.00  0.00    +0.350 C 
BRANCH  15  16
ATOM     16  N   LIG    1       -0.867  -2.246   0.104  0.00  0.00    -0.460 N 
ATOM     17  C   LIG    1       -0.788  -3.051  -1.022  0.00  0.00    +0.070 A 
ATOM     18  C   LIG    1       -0.967  -2.826  -2.378  0.00  0.00    +0.010 A 
ATOM     19  C   LIG    1       -0.804  -3.864  -3.273  0.00  0.00    +0.040 A 
ATOM     20  C   LIG    1       -0.458  -5.130  -2.826  0.00  0.00    +0.010 A 
ATOM     21  C   LIG    1       -0.271  -5.370  -1.482  0.00  0.00    +0.070 A 
ATOM     22  C   LIG    1       -0.431  -4.330  -0.563  0.00  0.00    +0.060 A 
ATOM     23  N   LIG    1       -0.319  -4.254   0.789  0.00  0.00    -0.470 NA
ATOM     24  C   LIG    1       -0.575  -3.031   1.183  0.00  0.00    +0.270 A 
BRANCH  24  25
ATOM     25  S   LIG    1       -0.546  -2.480   2.857  0.00  0.00    -0.010 S 
BRANCH  25  26
ATOM     26  C   LIG    1       -0.095  -4.024   3.688  0.00  0.00    +0.450 C 
ATOM     27  F   LIG    1        1.145  -4.464   3.213  0.00  0.00    -0.170 F 
ATOM     28  F   LIG    1       -1.067  -4.995   3.426  0.00  0.00    -0.170 F 
ENDBRANCH  25  26
ENDBRANCH  24  25
ENDBRANCH  15  16
ENDBRANCH   2  15
TORSDOF 5
