REMARK  Name = ZINCqH0000008pI0.0
REMARK                            x       y       z     vdW  Elec       q    Type
REMARK                         _______ _______ _______ _____ _____    ______ ____
ROOT
ATOM      1  N   LIG    1        3.432   2.509  -0.043  0.00  0.00    -0.720 N 
ATOM      2  H   LIG    1        3.191   3.449  -0.028  0.00  0.00    +0.400 HD
ATOM      3  C   LIG    1        2.469   1.566  -0.052  0.00  0.00    +0.600 C 
ATOM      4  O   LIG    1        2.771   0.388  -0.071  0.00  0.00    -0.510 OA
ENDROOT
BRANCH   3   5
ATOM      5  C   LIG    1        1.051   1.962  -0.037  0.00  0.00    -0.040 A 
ATOM      6  C   LIG    1       -0.043   1.118  -0.043  0.00  0.00    +0.050 A 
ATOM      7  C   LIG    1       -1.167   1.967  -0.028  0.00  0.00    +0.100 A 
ATOM      8  N   LIG    1       -0.726   3.209  -0.006  0.00  0.00    -0.240 NA
ATOM      9  N   LIG    1        0.558   3.236  -0.014  0.00  0.00    -0.370 N 
ATOM     10  H   LIG    1        1.098   4.042  -0.005  0.00  0.00    +0.450 HD
BRANCH   7  11
ATOM     11  C   LIG    1       -2.583   1.542  -0.033  0.00  0.00    +0.050 A 
ATOM     12  C   LIG    1       -3.663   2.366  -0.013  0.00  0.00    -0.020 A 
ATOM     13  C   LIG    1       -4.806   1.540  -0.029  0.00  0.00    -0.060 A 
ATOM     14  C   LIG    1       -4.370   0.266  -0.049  0.00  0.00    +0.190 A 
ATOM     15  O   LIG    1       -3.027   0.271  -0.052  0.00  0.00    -0.170 OA
ENDBRANCH   7  11
ENDBRANCH   3   5
BRANCH   1  17
ATOM     16  C   LIG    1        5.309   1.835   1.372  0.00  0.00    +0.040 C 
ATOM     17  C   LIG    1        4.843   2.115  -0.058  0.00  0.00    +0.290 C 
BRANCH  17  18
ATOM     18  C   LIG    1        5.669   3.229  -0.647  0.00  0.00    -0.080 A 
ATOM     19  C   LIG    1        5.377   4.545  -0.336  0.00  0.00    +0.000 A 
ATOM     20  C   LIG    1        6.136   5.570  -0.870  0.00  0.00    +0.020 A 
ATOM     21  C   LIG    1        7.183   5.284  -1.724  0.00  0.00    +0.040 A 
ATOM     22  C   LIG    1        7.476   3.964  -2.043  0.00  0.00    +0.090 A 
ATOM     23  C   LIG    1        6.715   2.936  -1.500  0.00  0.00    -0.020 A 
BRANCH  22  24
ATOM     24  N   LIG    1        8.534   3.670  -2.906  0.00  0.00    -0.490 N 
ATOM     25  C   LIG    1        9.586   2.886  -2.211  0.00  0.00    +0.180 C 
ATOM     26  C   LIG    1       10.363   2.224  -3.377  0.00  0.00    +0.040 C 
ATOM     27  C   LIG    1        9.244   1.883  -4.388  0.00  0.00    +0.020 C 
ATOM     28  C   LIG    1        8.080   2.827  -4.033  0.00  0.00    +0.170 C 
ENDBRANCH  22  24
ENDBRANCH  17  18
ENDBRANCH   1  17
TORSDOF 5
