REMARK  Name = ZINCvU0000000BSF.0
REMARK                            x       y       z     vdW  Elec       q    Type
REMARK                         _______ _______ _______ _____ _____    ______ ____
ROOT
ATOM      1  N   LIG    1        3.050  -0.520   1.541  0.00  0.00    -0.380 N 
ATOM      2  N   LIG    1        3.708   0.592   2.079  0.00  0.00    -0.230 NA
ATOM      3  C   LIG    1        3.165   1.687   1.628  0.00  0.00    +0.290 A 
ATOM      4  C   LIG    1        2.110   1.341   0.759  0.00  0.00    -0.190 A 
ATOM      5  C   LIG    1        1.186   2.092  -0.005  0.00  0.00    +0.010 A 
ATOM      6  C   LIG    1        0.256   1.399  -0.770  0.00  0.00    -0.030 A 
ATOM      7  C   LIG    1        0.266  -0.002  -0.756  0.00  0.00    +0.270 A 
ATOM      8  N   LIG    1        1.144  -0.678  -0.030  0.00  0.00    -0.480 NA
ATOM      9  C   LIG    1        2.052  -0.067   0.716  0.00  0.00    +0.320 A 
ENDROOT
BRANCH   5  10
ATOM     10  C   LIG    1        1.210   3.571   0.009  0.00  0.00    +0.580 C 
ATOM     11  N   LIG    1        0.058   4.264  -0.078  0.00  0.00    -0.610 N 
ATOM     12  C   LIG    1       -1.296   3.683  -0.081  0.00  0.00    +0.240 C 
ATOM     13  C   LIG    1       -2.218   4.822   0.422  0.00  0.00    +0.040 C 
ATOM     14  C   LIG    1       -1.560   6.067  -0.231  0.00  0.00    +0.050 C 
ATOM     15  C   LIG    1       -0.056   5.727  -0.180  0.00  0.00    +0.270 C 
ATOM     16  O   LIG    1        2.269   4.160   0.100  0.00  0.00    -0.510 OA
BRANCH  15  17
ATOM     17  C   LIG    1        0.619   6.207  -1.439  0.00  0.00    -0.130 A 
ATOM     18  C   LIG    1        0.494   5.481  -2.609  0.00  0.00    +0.060 A 
ATOM     19  C   LIG    1        1.107   5.922  -3.766  0.00  0.00    -0.080 A 
ATOM     20  C   LIG    1        1.857   7.089  -3.750  0.00  0.00    +0.130 A 
ATOM     21  C   LIG    1        1.985   7.813  -2.574  0.00  0.00    -0.020 A 
ATOM     22  C   LIG    1        1.366   7.370  -1.421  0.00  0.00    +0.070 A 
BRANCH  20  23
ATOM     23  O   LIG    1        2.465   7.522  -4.886  0.00  0.00    -0.320 OA
ATOM     24  C   LIG    1        2.290   6.726  -6.060  0.00  0.00    +0.250 C 
ENDBRANCH  20  23
ENDBRANCH  15  17
ENDBRANCH   5  10
BRANCH   7  25
ATOM     25  C   LIG    1       -0.721  -0.739  -1.569  0.00  0.00    -0.170 A 
ATOM     26  C   LIG    1       -0.816  -2.083  -1.649  0.00  0.00    +0.070 A 
ATOM     27  C   LIG    1       -1.822  -2.541  -2.471  0.00  0.00    +0.010 A 
ATOM     28  C   LIG    1       -2.543  -1.587  -3.070  0.00  0.00    -0.030 A 
ATOM     29  S   LIG    1       -1.952  -0.003  -2.587  0.00  0.00    +0.140 S 
ENDBRANCH   7  25
BRANCH   1  31
ATOM     30  C   LIG    1        4.401  -2.416   0.791  0.00  0.00    +0.030 C 
ATOM     31  C   LIG    1        3.372  -1.923   1.810  0.00  0.00    +0.340 C 
ENDBRANCH   1  31
TORSDOF 5
