REMARK  Name = ZINCnE000001PlSu.1
REMARK                            x       y       z     vdW  Elec       q    Type
REMARK                         _______ _______ _______ _____ _____    ______ ____
ROOT
ATOM      1  C   LIG    1        6.925   4.466  -0.042  0.00  0.00    +0.150 A 
ATOM      2  C   LIG    1        6.567   5.764  -0.032  0.00  0.00    -0.300 A 
ATOM      3  S   LIG    1        4.807   5.852  -0.022  0.00  0.00    -0.000 S 
ATOM      4  C   LIG    1        4.716   4.094  -0.022  0.00  0.00    +0.380 A 
ATOM      5  C   LIG    1        7.510   6.940  -0.035  0.00  0.00    +0.120 C 
ATOM      6  N   LIG    1        5.914   3.598  -0.037  0.00  0.00    -0.540 NA
ENDROOT
BRANCH   1  11
ATOM      7  C   LIG    1       12.278   3.671  -0.656  0.00  0.00    +0.130 C 
ATOM      8  C   LIG    1       10.805   3.664  -0.338  0.00  0.00    -0.210 A 
ATOM      9  C   LIG    1       10.183   2.745   0.404  0.00  0.00    +0.000 A 
ATOM     10  C   LIG    1        8.827   2.944   0.568  0.00  0.00    +0.010 A 
ATOM     11  C   LIG    1        8.339   4.034  -0.058  0.00  0.00    -0.080 A 
ATOM     12  S   LIG    1        9.646   4.867  -0.889  0.00  0.00    +0.110 S 
ENDBRANCH   1  11
BRANCH   4  13
ATOM     13  N   LIG    1        3.542   3.352  -0.015  0.00  0.00    -0.650 NA
ATOM     14  C   LIG    1        2.349   3.979   0.000  0.00  0.00    +0.510 C 
ATOM     15  O   LIG    1        2.301   5.194   0.007  0.00  0.00    -0.610 OA
BRANCH  14  16
ATOM     16  C   LIG    1        1.103   3.192   0.008  0.00  0.00    -0.190 A 
ATOM     17  C   LIG    1       -0.122   3.828   0.023  0.00  0.00    +0.340 A 
ATOM     18  N   LIG    1       -1.262   3.113   0.029  0.00  0.00    -0.490 N 
ATOM     19  C   LIG    1       -1.238   1.768   0.018  0.00  0.00    +0.510 A 
ATOM     20  C   LIG    1       -0.013   1.076   0.008  0.00  0.00    -0.120 A 
ATOM     21  O   LIG    1       -2.286   1.144   0.019  0.00  0.00    -0.570 OA
ATOM     22  C   LIG    1       -2.550   3.811   0.044  0.00  0.00    +0.310 C 
ATOM     23  C   LIG    1        1.153   1.777   0.001  0.00  0.00    +0.190 A 
ENDBRANCH  14  16
ENDBRANCH   4  13
TORSDOF 3
