REMARK  Name = ZINCrg000000p9tT.0
REMARK                            x       y       z     vdW  Elec       q    Type
REMARK                         _______ _______ _______ _____ _____    ______ ____
ROOT
ATOM      1  C   LIG    1        0.002   1.759  -0.923  0.00  0.00    +0.500 A 
ATOM      2  N   LIG    1       -0.080   0.437  -0.952  0.00  0.00    -0.550 NA
ATOM      3  C   LIG    1        1.000  -0.306  -0.784  0.00  0.00    +0.360 A 
ATOM      4  C   LIG    1        2.227   0.312  -0.578  0.00  0.00    -0.240 A 
ATOM      5  C   LIG    1        3.444  -0.548  -0.364  0.00  0.00    +0.350 C 
ATOM      6  N   LIG    1        4.651   0.284  -0.439  0.00  0.00    -0.610 N 
ATOM      7  C   LIG    1        4.631   1.574   0.268  0.00  0.00    +0.310 C 
ATOM      8  C   LIG    1        3.563   2.455  -0.381  0.00  0.00    +0.120 C 
ATOM      9  C   LIG    1        5.736  -0.119  -1.129  0.00  0.00    +0.600 C 
ATOM     10  O   LIG    1        6.686   0.629  -1.261  0.00  0.00    -0.520 OA
ATOM     11  C   LIG    1        2.281   1.690  -0.564  0.00  0.00    +0.220 A 
ATOM     12  N   LIG    1        1.156   2.376  -0.734  0.00  0.00    -0.530 NA
ENDROOT
BRANCH   9  13
ATOM     13  C   LIG    1        5.773  -1.468  -1.724  0.00  0.00    -0.190 A 
ATOM     14  C   LIG    1        5.231  -2.611  -1.212  0.00  0.00    +0.240 A 
ATOM     15  O   LIG    1        5.485  -3.614  -2.058  0.00  0.00    -0.140 OA
ATOM     16  C   LIG    1        6.180  -3.182  -3.123  0.00  0.00    -0.060 A 
ATOM     17  C   LIG    1        6.815  -3.619  -4.425  0.00  0.00    +0.360 C 
ATOM     18  O   LIG    1        7.737  -2.574  -4.786  0.00  0.00    -0.340 OA
ATOM     19  C   LIG    1        7.179  -1.388  -4.188  0.00  0.00    +0.300 C 
ATOM     20  C   LIG    1        6.392  -1.860  -2.992  0.00  0.00    -0.190 A 
ENDBRANCH   9  13
BRANCH   1  25
ATOM     21  C   LIG    1       -4.979   4.226  -0.632  0.00  0.00    +0.190 C 
ATOM     22  N   LIG    1       -3.760   3.427  -0.443  0.00  0.00    -0.550 NA
ATOM     23  C   LIG    1       -3.549   2.513  -1.574  0.00  0.00    +0.190 C 
ATOM     24  C   LIG    1       -2.317   1.646  -1.302  0.00  0.00    +0.220 C 
ATOM     25  N   LIG    1       -1.147   2.511  -1.101  0.00  0.00    -0.460 N 
ATOM     26  C   LIG    1       -1.358   3.425   0.030  0.00  0.00    +0.220 C 
ATOM     27  C   LIG    1       -2.590   4.292  -0.242  0.00  0.00    +0.190 C 
ENDBRANCH   1  25
TORSDOF 2
