REMARK  Name = ZINCpe00000MzwN9.0
REMARK                            x       y       z     vdW  Elec       q    Type
REMARK                         _______ _______ _______ _____ _____    ______ ____
ROOT
ATOM      1  C   LIG    1       -4.172  -1.269   2.172  0.00  0.00    +0.580 C 
ATOM      2  N   LIG    1       -3.241  -1.399   1.207  0.00  0.00    -0.710 N 
ATOM      3  H   LIG    1       -3.349  -2.072   0.516  0.00  0.00    +0.410 HD
ATOM      4  O   LIG    1       -4.037  -0.427   3.037  0.00  0.00    -0.520 OA
ENDROOT
BRANCH   1  10
ATOM      5  C   LIG    1       -8.754  -5.570   1.155  0.00  0.00    +0.120 A 
ATOM      6  C   LIG    1       -8.658  -4.644   2.153  0.00  0.00    -0.030 A 
ATOM      7  C   LIG    1       -7.552  -3.781   2.195  0.00  0.00    -0.050 A 
ATOM      8  C   LIG    1       -7.420  -2.813   3.208  0.00  0.00    +0.090 A 
ATOM      9  C   LIG    1       -6.320  -2.005   3.191  0.00  0.00    +0.050 A 
ATOM     10  C   LIG    1       -5.361  -2.154   2.179  0.00  0.00    +0.110 A 
ATOM     11  N   LIG    1       -5.495  -3.060   1.229  0.00  0.00    -0.430 NA
ATOM     12  C   LIG    1       -6.545  -3.880   1.198  0.00  0.00    +0.120 A 
ATOM     13  C   LIG    1       -6.677  -4.848   0.183  0.00  0.00    +0.070 A 
ATOM     14  C   LIG    1       -7.761  -5.670   0.170  0.00  0.00    +0.110 A 
ATOM     15  F   LIG    1       -7.882  -6.596  -0.806  0.00  0.00    -0.120 F 
BRANCH   5  17
ATOM     16  C   LIG    1      -10.804  -6.255   2.146  0.00  0.00    +0.250 C 
ATOM     17  O   LIG    1       -9.825  -6.405   1.115  0.00  0.00    -0.300 OA
ENDBRANCH   5  17
ENDBRANCH   1  10
BRANCH   2  18
ATOM     18  C   LIG    1       -2.065  -0.525   1.200  0.00  0.00    +0.280 C 
BRANCH  18  19
ATOM     19  C   LIG    1       -1.173  -0.878   0.009  0.00  0.00    +0.340 C 
BRANCH  19  20
ATOM     20  N   LIG    1        0.002  -0.004   0.002  0.00  0.00    -0.290 N 
ATOM     21  C   LIG    1        1.293  -0.411  -0.013  0.00  0.00    +0.180 A 
ATOM     22  C   LIG    1        2.043   0.716  -0.014  0.00  0.00    -0.030 A 
ATOM     23  N   LIG    1        1.186   1.743   0.000  0.00  0.00    -0.260 NA
ATOM     24  N   LIG    1       -0.015   1.283   0.009  0.00  0.00    -0.080 NA
BRANCH  22  25
ATOM     25  C   LIG    1        3.548   0.797  -0.028  0.00  0.00    +0.310 C 
BRANCH  25  26
ATOM     26  O   LIG    1        4.096  -0.522  -0.040  0.00  0.00    -0.570 OA
ATOM     27  H   LIG    1        5.062  -0.546  -0.049  0.00  0.00    +0.390 HD
ENDBRANCH  25  26
ENDBRANCH  22  25
ENDBRANCH  19  20
ENDBRANCH  18  19
ENDBRANCH   2  18
TORSDOF 7
