REMARK  Name = ZINCzw0000000eAc.1
REMARK                            x       y       z     vdW  Elec       q    Type
REMARK                         _______ _______ _______ _____ _____    ______ ____
ROOT
ATOM      1  C   LIG    1       -3.877   9.699   3.284  0.00  0.00    +0.340 C 
ENDROOT
BRANCH   1   6
ATOM      2  C   LIG    1       -3.740   7.056   0.590  0.00  0.00    -0.160 A 
ATOM      3  C   LIG    1       -3.756   7.829  -0.555  0.00  0.00    +0.040 A 
ATOM      4  C   LIG    1       -3.810   9.207  -0.459  0.00  0.00    +0.030 A 
ATOM      5  C   LIG    1       -3.849   9.812   0.783  0.00  0.00    +0.080 A 
ATOM      6  C   LIG    1       -3.834   9.039   1.929  0.00  0.00    -0.100 A 
ATOM      7  C   LIG    1       -3.784   7.661   1.833  0.00  0.00    +0.060 A 
BRANCH   2   8
ATOM      8  C   LIG    1       -3.682   5.554   0.485  0.00  0.00    +0.320 C 
BRANCH   8  13
ATOM      9  C   LIG    1       -0.766   3.194   0.558  0.00  0.00    -0.010 C 
ATOM     10  C   LIG    1       -0.020   3.712  -0.675  0.00  0.00    +0.060 C 
ATOM     11  C   LIG    1       -0.146   5.237  -0.733  0.00  0.00    +0.070 C 
ATOM     12  C   LIG    1       -1.628   5.620  -0.748  0.00  0.00    +0.240 C 
ATOM     13  N   LIG    1       -2.279   5.119   0.468  0.00  0.00    -0.380 N 
ATOM     14  H   LIG    1       -1.804   5.487   1.278  0.00  0.00    +0.420 HD
ATOM     15  C   LIG    1       -2.224   3.653   0.494  0.00  0.00    +0.290 C 
BRANCH   9  19
ATOM     16  N   LIG    1        0.477   1.056   0.633  0.00  0.00    -0.840 N 
ATOM     17  H   LIG    1        1.299   1.571   0.650  0.00  0.00    +0.410 HD
ATOM     18  H   LIG    1        0.511   0.087   0.649  0.00  0.00    +0.420 HD
ATOM     19  C   LIG    1       -0.713   1.688   0.582  0.00  0.00    +0.530 C 
ATOM     20  O   LIG    1       -1.740   1.044   0.556  0.00  0.00    -0.530 OA
ENDBRANCH   9  19
ENDBRANCH   8  13
ENDBRANCH   2   8
ENDBRANCH   1   6
BRANCH   1  21
ATOM     21  N   LIG    1       -5.271   9.860   3.704  0.00  0.00    -0.750 N 
ATOM     22  H   LIG    1       -5.990   9.557   3.128  0.00  0.00    +0.400 HD
ATOM     23  C   LIG    1       -5.555  10.431   4.892  0.00  0.00    +0.710 C 
ATOM     24  N   LIG    1       -6.837  10.579   5.279  0.00  0.00    -0.740 N 
ATOM     25  H   LIG    1       -7.556  10.276   4.703  0.00  0.00    +0.400 HD
ATOM     26  O   LIG    1       -4.654  10.812   5.614  0.00  0.00    -0.580 OA
BRANCH  24  27
ATOM     27  C   LIG    1       -7.146  11.200   6.570  0.00  0.00    +0.340 C 
BRANCH  27  28
ATOM     28  C   LIG    1       -8.640  11.246   6.761  0.00  0.00    -0.120 A 
ATOM     29  C   LIG    1       -9.357  12.347   6.328  0.00  0.00    +0.060 A 
ATOM     30  C   LIG    1      -10.730  12.395   6.494  0.00  0.00    +0.000 A 
ATOM     31  C   LIG    1      -11.391  11.348   7.104  0.00  0.00    +0.050 A 
ATOM     32  C   LIG    1      -10.672  10.237   7.548  0.00  0.00    -0.130 A 
ATOM     33  C   LIG    1       -9.289  10.193   7.372  0.00  0.00    +0.100 A 
BRANCH  32  34
ATOM     34  C   LIG    1      -11.374   9.112   8.202  0.00  0.00    +0.570 C 
ATOM     35  N   LIG    1      -12.680   9.223   8.515  0.00  0.00    -0.610 N 
ATOM     36  C   LIG    1      -13.549  10.359   8.175  0.00  0.00    +0.250 C 
ATOM     37  C   LIG    1      -14.947  10.058   8.756  0.00  0.00    +0.030 C 
ATOM     38  C   LIG    1      -14.639   9.037   9.884  0.00  0.00    +0.030 C 
ATOM     39  C   LIG    1      -13.473   8.229   9.262  0.00  0.00    +0.250 C 
ATOM     40  O   LIG    1      -10.773   8.087   8.457  0.00  0.00    -0.540 OA
ENDBRANCH  32  34
ENDBRANCH  27  28
ENDBRANCH  24  27
ENDBRANCH   1  21
TORSDOF 8
