REMARK  Name = ZINCzw0000000eAc.0
REMARK                            x       y       z     vdW  Elec       q    Type
REMARK                         _______ _______ _______ _____ _____    ______ ____
ROOT
ATOM      1  C   LIG    1       -5.731   1.714  -0.141  0.00  0.00    +0.340 C 
ENDROOT
BRANCH   1   6
ATOM      2  C   LIG    1       -2.163   0.944   0.826  0.00  0.00    -0.160 A 
ATOM      3  C   LIG    1       -2.306  -0.277   1.458  0.00  0.00    +0.050 A 
ATOM      4  C   LIG    1       -3.558  -0.853   1.574  0.00  0.00    +0.030 A 
ATOM      5  C   LIG    1       -4.665  -0.209   1.056  0.00  0.00    +0.070 A 
ATOM      6  C   LIG    1       -4.522   1.012   0.423  0.00  0.00    -0.100 A 
ATOM      7  C   LIG    1       -3.272   1.591   0.313  0.00  0.00    +0.050 A 
BRANCH   2   8
ATOM      8  C   LIG    1       -0.799   1.572   0.701  0.00  0.00    +0.320 C 
BRANCH   8  13
ATOM      9  C   LIG    1        1.894   1.116  -1.873  0.00  0.00    +0.010 C 
ATOM     10  C   LIG    1        1.116   1.585  -3.105  0.00  0.00    +0.070 C 
ATOM     11  C   LIG    1       -0.335   1.107  -2.994  0.00  0.00    +0.050 C 
ATOM     12  C   LIG    1       -0.941   1.633  -1.690  0.00  0.00    +0.240 C 
ATOM     13  N   LIG    1       -0.168   1.128  -0.549  0.00  0.00    -0.380 N 
ATOM     14  H   LIG    1       -0.151   0.119  -0.576  0.00  0.00    +0.430 HD
ATOM     15  C   LIG    1        1.206   1.641  -0.611  0.00  0.00    +0.290 C 
BRANCH   9  19
ATOM     16  N   LIG    1        2.486  -1.076  -2.855  0.00  0.00    -0.830 N 
ATOM     17  H   LIG    1        2.506  -2.046  -2.834  0.00  0.00    +0.420 HD
ATOM     18  H   LIG    1        2.871  -0.600  -3.607  0.00  0.00    +0.410 HD
ATOM     19  C   LIG    1        1.924  -0.391  -1.840  0.00  0.00    +0.520 C 
ATOM     20  O   LIG    1        1.442  -0.986  -0.899  0.00  0.00    -0.560 OA
ENDBRANCH   9  19
ENDBRANCH   8  13
ENDBRANCH   2   8
ENDBRANCH   1   6
BRANCH   1  21
ATOM     21  N   LIG    1       -6.309   2.588   0.883  0.00  0.00    -0.750 N 
ATOM     22  H   LIG    1       -5.904   2.640   1.762  0.00  0.00    +0.400 HD
ATOM     23  C   LIG    1       -7.405   3.321   0.602  0.00  0.00    +0.700 C 
ATOM     24  N   LIG    1       -7.937   4.125   1.543  0.00  0.00    -0.740 N 
ATOM     25  H   LIG    1       -7.532   4.177   2.423  0.00  0.00    +0.400 HD
ATOM     26  O   LIG    1       -7.913   3.257  -0.501  0.00  0.00    -0.580 OA
BRANCH  24  27
ATOM     27  C   LIG    1       -9.128   4.922   1.238  0.00  0.00    +0.340 C 
BRANCH  27  28
ATOM     28  C   LIG    1       -9.518   5.728   2.450  0.00  0.00    -0.120 A 
ATOM     29  C   LIG    1      -10.399   5.199   3.376  0.00  0.00    +0.060 A 
ATOM     30  C   LIG    1      -10.757   5.931   4.495  0.00  0.00    +0.000 A 
ATOM     31  C   LIG    1      -10.246   7.197   4.688  0.00  0.00    +0.050 A 
ATOM     32  C   LIG    1       -9.362   7.739   3.754  0.00  0.00    -0.130 A 
ATOM     33  C   LIG    1       -9.000   6.994   2.631  0.00  0.00    +0.100 A 
BRANCH  32  34
ATOM     34  C   LIG    1       -8.810   9.096   3.954  0.00  0.00    +0.570 C 
ATOM     35  N   LIG    1       -9.280   9.874   4.949  0.00  0.00    -0.610 N 
ATOM     36  C   LIG    1      -10.261   9.467   5.965  0.00  0.00    +0.250 C 
ATOM     37  C   LIG    1      -10.512  10.688   6.875  0.00  0.00    +0.030 C 
ATOM     38  C   LIG    1      -10.094  11.881   5.975  0.00  0.00    +0.030 C 
ATOM     39  C   LIG    1       -8.900  11.278   5.194  0.00  0.00    +0.250 C 
ATOM     40  O   LIG    1       -7.932   9.509   3.222  0.00  0.00    -0.540 OA
ENDBRANCH  32  34
ENDBRANCH  27  28
ENDBRANCH  24  27
ENDBRANCH   1  21
TORSDOF 8
