REMARK  Name = ZINCfA000000yx2g.0
REMARK                            x       y       z     vdW  Elec       q    Type
REMARK                         _______ _______ _______ _____ _____    ______ ____
ROOT
ATOM      1  C   LIG    1        0.048   1.144   2.507  0.00  0.00    +0.080 C 
ATOM      2  C   LIG    1       -0.733   1.581   1.266  0.00  0.00    +0.100 C 
ATOM      3  C   LIG    1       -0.013   1.086   0.008  0.00  0.00    +0.050 C 
ATOM      4  C   LIG    1       -0.756   1.595  -1.230  0.00  0.00    +0.060 C 
ATOM      5  C   LIG    1       -0.843   3.121  -1.175  0.00  0.00    +0.250 C 
ATOM      6  N   LIG    1       -1.566   3.531   0.035  0.00  0.00    -0.380 N 
ATOM      7  H   LIG    1       -2.479   3.101   0.041  0.00  0.00    +0.430 HD
ATOM      8  F   LIG    1       -2.022   1.041   1.309  0.00  0.00    -0.190 F 
ATOM      9  C   LIG    1       -0.822   3.108   1.227  0.00  0.00    +0.260 C 
ENDROOT
BRANCH   6  10
ATOM     10  C   LIG    1       -1.714   4.992   0.044  0.00  0.00    +0.320 C 
BRANCH  10  11
ATOM     11  C   LIG    1       -2.590   5.416  -1.107  0.00  0.00    -0.160 A 
ATOM     12  C   LIG    1       -2.023   5.718  -2.332  0.00  0.00    +0.030 A 
ATOM     13  C   LIG    1       -2.827   6.101  -3.389  0.00  0.00    +0.030 A 
ATOM     14  C   LIG    1       -4.196   6.193  -3.219  0.00  0.00    +0.060 A 
ATOM     15  C   LIG    1       -4.762   5.896  -1.993  0.00  0.00    +0.030 A 
ATOM     16  C   LIG    1       -3.959   5.507  -0.937  0.00  0.00    +0.040 A 
ENDBRANCH  10  11
ENDBRANCH   6  10
TORSDOF 2
