REMARK  Name = ZINCfA000000yx2g.1
REMARK                            x       y       z     vdW  Elec       q    Type
REMARK                         _______ _______ _______ _____ _____    ______ ____
ROOT
ATOM      1  C   LIG    1       -1.364  -1.892   3.520  0.00  0.00    +0.060 C 
ATOM      2  C   LIG    1       -0.140  -2.483   2.816  0.00  0.00    +0.110 C 
ATOM      3  C   LIG    1        1.130  -2.061   3.559  0.00  0.00    +0.050 C 
ATOM      4  C   LIG    1        1.264  -0.536   3.496  0.00  0.00    +0.070 C 
ATOM      5  C   LIG    1        1.274  -0.091   2.032  0.00  0.00    +0.250 C 
ATOM      6  N   LIG    1        0.022  -0.501   1.384  0.00  0.00    -0.380 N 
ATOM      7  H   LIG    1       -0.760  -0.114   1.891  0.00  0.00    +0.420 HD
ATOM      8  F   LIG    1       -0.234  -3.879   2.807  0.00  0.00    -0.170 F 
ATOM      9  C   LIG    1       -0.079  -1.966   1.377  0.00  0.00    +0.250 C 
ENDROOT
BRANCH   6  10
ATOM     10  C   LIG    1        0.002  -0.004   0.002  0.00  0.00    +0.320 C 
BRANCH  10  11
ATOM     11  C   LIG    1       -0.018   1.503   0.010  0.00  0.00    -0.160 A 
ATOM     12  C   LIG    1       -1.225   2.178   0.020  0.00  0.00    +0.040 A 
ATOM     13  C   LIG    1       -1.244   3.560   0.033  0.00  0.00    +0.030 A 
ATOM     14  C   LIG    1       -0.056   4.267   0.025  0.00  0.00    +0.060 A 
ATOM     15  C   LIG    1        1.151   3.592   0.010  0.00  0.00    +0.030 A 
ATOM     16  C   LIG    1        1.169   2.210   0.003  0.00  0.00    +0.030 A 
ENDBRANCH  10  11
ENDBRANCH   6  10
TORSDOF 2
