REMARK  Name = ZINCrD0000072alF.0
REMARK                            x       y       z     vdW  Elec       q    Type
REMARK                         _______ _______ _______ _____ _____    ______ ____
ROOT
ATOM      1  N   LIG    1        2.130   9.491   0.101  0.00  0.00    -0.720 N 
ATOM      2  H   LIG    1        1.402  10.128   0.031  0.00  0.00    +0.400 HD
ATOM      3  C   LIG    1        1.868   8.170   0.147  0.00  0.00    +0.520 C 
ATOM      4  O   LIG    1        2.778   7.373   0.235  0.00  0.00    -0.510 OA
ENDROOT
BRANCH   1   5
ATOM      5  C   LIG    1        3.515   9.965   0.158  0.00  0.00    +0.280 C 
BRANCH   5   6
ATOM      6  C   LIG    1        3.540  11.486  -0.003  0.00  0.00    +0.030 C 
BRANCH   6   7
ATOM      7  C   LIG    1        4.947  11.989   0.195  0.00  0.00    -0.080 A 
ATOM      8  C   LIG    1        5.963  11.544  -0.630  0.00  0.00    +0.010 A 
ATOM      9  C   LIG    1        7.253  12.008  -0.451  0.00  0.00    +0.000 A 
ATOM     10  C   LIG    1        7.528  12.911   0.558  0.00  0.00    +0.000 A 
ATOM     11  C   LIG    1        6.513  13.352   1.387  0.00  0.00    +0.000 A 
ATOM     12  C   LIG    1        5.223  12.891   1.206  0.00  0.00    +0.010 A 
ENDBRANCH   6   7
BRANCH   6  14
ATOM     13  C   LIG    1        2.959  13.381  -1.525  0.00  0.00    +0.020 C 
ATOM     14  C   LIG    1        3.059  11.858  -1.407  0.00  0.00    +0.020 C 
ENDBRANCH   6  14
ENDBRANCH   5   6
ENDBRANCH   1   5
BRANCH   3  15
ATOM     15  C   LIG    1        0.443   7.682   0.088  0.00  0.00    +0.270 C 
BRANCH  15  16
ATOM     16  O   LIG    1        0.425   6.232   0.154  0.00  0.00    -0.320 OA
BRANCH  16  17
ATOM     17  C   LIG    1       -0.781   5.633   0.113  0.00  0.00    +0.510 C 
ATOM     18  O   LIG    1       -1.790   6.304   0.025  0.00  0.00    -0.480 OA
BRANCH  17  19
ATOM     19  C   LIG    1       -0.876   4.160   0.175  0.00  0.00    -0.080 A 
ATOM     20  C   LIG    1        0.281   3.386   0.276  0.00  0.00    +0.110 A 
ATOM     21  C   LIG    1        0.184   2.011   0.333  0.00  0.00    +0.070 A 
ATOM     22  C   LIG    1       -1.056   1.399   0.289  0.00  0.00    +0.090 A 
ATOM     23  C   LIG    1       -2.207   2.160   0.184  0.00  0.00    -0.050 A 
ATOM     24  C   LIG    1       -3.553   1.484   0.132  0.00  0.00    +0.120 C 
ATOM     25  C   LIG    1       -2.125   3.535   0.132  0.00  0.00    +0.030 A 
BRANCH  25  26
ATOM     26  N   LIG    1       -3.357   4.348   0.025  0.00  0.00    +0.030 N 
ATOM     27  O   LIG    1       -3.925   4.730   1.032  0.00  0.00    -0.130 OA
ATOM     28  O   LIG    1       -3.804   4.635  -1.072  0.00  0.00    -0.130 OA
ENDBRANCH  25  26
ENDBRANCH  17  19
ENDBRANCH  16  17
ENDBRANCH  15  16
ENDBRANCH   3  15
TORSDOF 9
