REMARK  Name = ZINCrg00000IXObJ.0
REMARK                            x       y       z     vdW  Elec       q    Type
REMARK                         _______ _______ _______ _____ _____    ______ ____
ROOT
ATOM      1  C   LIG    1        2.691  -0.806   3.618  0.00  0.00    +0.330 C 
ATOM      2  N   LIG    1        3.551  -0.419   2.487  0.00  0.00    -0.650 N 
ATOM      3  H   LIG    1        3.806   0.507   2.351  0.00  0.00    +0.450 HD
ATOM      4  C   LIG    1        3.976  -1.382   1.646  0.00  0.00    +0.560 C 
ATOM      5  N   LIG    1        3.642  -2.669   1.809  0.00  0.00    -0.600 N 
ATOM      6  H   LIG    1        3.981  -3.314   1.169  0.00  0.00    +0.440 HD
ATOM      7  C   LIG    1        2.851  -3.122   2.825  0.00  0.00    +0.170 C 
ATOM      8  C   LIG    1        2.534  -4.593   2.918  0.00  0.00    +0.160 C 
ATOM      9  S   LIG    1        4.977  -0.948   0.327  0.00  0.00    -0.590 S 
ATOM     10  C   LIG    1        2.348  -2.276   3.748  0.00  0.00    -0.240 C 
ENDROOT
BRANCH   1  13
ATOM     11  C   LIG    1       -0.378   0.849   2.160  0.00  0.00    +0.160 A 
ATOM     12  C   LIG    1        0.809   0.141   2.268  0.00  0.00    -0.030 A 
ATOM     13  C   LIG    1        1.401  -0.035   3.506  0.00  0.00    -0.060 A 
ATOM     14  C   LIG    1        0.813   0.493   4.639  0.00  0.00    +0.020 A 
ATOM     15  C   LIG    1       -0.375   1.203   4.540  0.00  0.00    +0.080 A 
ATOM     16  O   LIG    1       -1.144   1.815   5.488  0.00  0.00    -0.300 OA
ATOM     17  C   LIG    1       -2.428   2.018   4.868  0.00  0.00    +0.440 C 
ATOM     18  O   LIG    1       -2.119   2.106   3.464  0.00  0.00    -0.300 OA
ATOM     19  C   LIG    1       -0.970   1.387   3.297  0.00  0.00    +0.010 A 
BRANCH  11  21
ATOM     20  C   LIG    1       -0.291   0.448  -0.182  0.00  0.00    +0.260 C 
ATOM     21  O   LIG    1       -0.958   1.023   0.943  0.00  0.00    -0.310 OA
ENDBRANCH  11  21
ENDBRANCH   1  13
BRANCH  10  22
ATOM     22  C   LIG    1        1.528  -2.745   4.804  0.00  0.00    +0.590 C 
ATOM     23  N   LIG    1        2.087  -3.312   5.891  0.00  0.00    -0.610 N 
ATOM     24  C   LIG    1        3.549  -3.363   6.051  0.00  0.00    +0.240 C 
ATOM     25  C   LIG    1        3.897  -2.820   7.447  0.00  0.00    +0.220 C 
ATOM     26  O   LIG    1        3.126  -3.520   8.427  0.00  0.00    -0.380 OA
ATOM     27  C   LIG    1        1.714  -3.341   8.299  0.00  0.00    +0.220 C 
ATOM     28  C   LIG    1        1.254  -3.905   6.950  0.00  0.00    +0.270 C 
ATOM     29  O   LIG    1        0.317  -2.637   4.728  0.00  0.00    -0.510 OA
ENDBRANCH  10  22
TORSDOF 3
