REMARK  Name = ZINCpk00000e9PE7.0
REMARK                            x       y       z     vdW  Elec       q    Type
REMARK                         _______ _______ _______ _____ _____    ______ ____
ROOT
ATOM      1  C   LIG    1        3.819   5.439  -1.233  0.00  0.00    +0.000 C 
ATOM      2  C   LIG    1        4.023   6.268   0.038  0.00  0.00    +0.040 C 
ATOM      3  C   LIG    1        3.890   5.356   1.260  0.00  0.00    +0.050 C 
ATOM      4  C   LIG    1        2.516   4.682   1.240  0.00  0.00    +0.190 C 
ATOM      5  N   LIG    1        2.370   3.900   0.005  0.00  0.00    -0.510 N 
ATOM      6  C   LIG    1        2.447   4.763  -1.181  0.00  0.00    +0.200 C 
ENDROOT
BRANCH   1  13
ATOM      7  C   LIG    1        4.105   4.170  -7.408  0.00  0.00    +0.190 C 
ATOM      8  N   LIG    1        4.545   4.771  -6.142  0.00  0.00    -0.540 NA
ATOM      9  C   LIG    1        3.986   6.120  -5.977  0.00  0.00    +0.170 C 
ATOM     10  C   LIG    1        4.609   6.780  -4.742  0.00  0.00    +0.290 C 
ATOM     11  N   LIG    1        4.423   5.884  -3.590  0.00  0.00    -0.610 N 
ATOM     12  C   LIG    1        4.840   4.480  -3.726  0.00  0.00    +0.280 C 
ATOM     13  C   LIG    1        3.890   6.340  -2.439  0.00  0.00    +0.520 C 
ATOM     14  O   LIG    1        3.467   7.475  -2.374  0.00  0.00    -0.530 OA
ATOM     15  C   LIG    1        4.202   3.909  -5.003  0.00  0.00    +0.170 C 
ENDBRANCH   1  13
BRANCH   5  16
ATOM     16  C   LIG    1        1.193   3.173   0.014  0.00  0.00    +0.180 A 
ATOM     17  C   LIG    1        1.228   1.770   0.011  0.00  0.00    -0.000 A 
ATOM     18  C   LIG    1        0.033   1.048   0.020  0.00  0.00    +0.110 A 
ATOM     19  C   LIG    1       -1.180   1.708   0.026  0.00  0.00    +0.030 A 
ATOM     20  C   LIG    1       -1.227   3.088   0.035  0.00  0.00    +0.110 A 
ATOM     21  C   LIG    1       -0.046   3.833   0.027  0.00  0.00    -0.060 A 
BRANCH  17  22
ATOM     22  C   LIG    1        2.484   1.083  -0.002  0.00  0.00    +0.260 C 
ATOM     23  N   LIG    1        3.480   0.537  -0.013  0.00  0.00    -0.400 NA
ENDBRANCH  17  22
BRANCH  21  24
ATOM     24  C   LIG    1       -0.098   5.264   0.030  0.00  0.00    +0.240 C 
ATOM     25  N   LIG    1       -0.140   6.399   0.033  0.00  0.00    -0.390 NA
ENDBRANCH  21  24
ENDBRANCH   5  16
TORSDOF 4
