REMARK  Name = ZINCrD00000dd34A.0
REMARK                            x       y       z     vdW  Elec       q    Type
REMARK                         _______ _______ _______ _____ _____    ______ ____
ROOT
ATOM      1  C   LIG    1       -0.469  -0.305   2.342  0.00  0.00    +0.510 C 
ATOM      2  N   LIG    1        0.402  -0.126   1.329  0.00  0.00    -0.610 N 
ATOM      3  C   LIG    1       -0.115   0.224   0.025  0.00  0.00    +0.280 C 
ATOM      4  C   LIG    1       -0.213   1.765  -0.098  0.00  0.00    +0.000 C 
ATOM      5  C   LIG    1        1.130   2.356  -0.198  0.00  0.00    +0.240 C 
ATOM      6  C   LIG    1        2.009   2.131   1.028  0.00  0.00    +0.040 C 
ATOM      7  C   LIG    1        2.693   0.791   0.913  0.00  0.00    -0.070 C 
ATOM      8  C   LIG    1        2.872   0.441  -0.565  0.00  0.00    +0.030 C 
ATOM      9  C   LIG    1        4.064   0.862   1.588  0.00  0.00    +0.040 C 
ATOM     10  C   LIG    1        1.843  -0.297   1.596  0.00  0.00    +0.280 C 
ATOM     11  O   LIG    1       -0.063  -0.600   3.446  0.00  0.00    -0.530 OA
ENDROOT
BRANCH   5  12
ATOM     12  N   LIG    1        0.988   3.799  -0.410  0.00  0.00    -0.710 N 
ATOM     13  H   LIG    1        1.022   4.406   0.346  0.00  0.00    +0.400 HD
ATOM     14  C   LIG    1        0.811   4.283  -1.655  0.00  0.00    +0.600 C 
ATOM     15  O   LIG    1        0.679   3.518  -2.592  0.00  0.00    -0.540 OA
BRANCH  14  16
ATOM     16  C   LIG    1        0.777   5.737  -1.882  0.00  0.00    -0.040 A 
ATOM     17  C   LIG    1        1.006   6.729  -0.945  0.00  0.00    -0.030 A 
ATOM     18  C   LIG    1        0.861   7.933  -1.638  0.00  0.00    +0.020 A 
ATOM     19  N   LIG    1        0.571   7.648  -2.881  0.00  0.00    -0.270 NA
ATOM     20  C   LIG    1        1.014   9.315  -1.057  0.00  0.00    +0.160 C 
ATOM     21  N   LIG    1        0.519   6.377  -3.061  0.00  0.00    -0.260 N 
ATOM     22  C   LIG    1        0.225   5.715  -4.334  0.00  0.00    +0.390 C 
ENDBRANCH  14  16
ENDBRANCH   5  12
BRANCH   1  23
ATOM     23  C   LIG    1       -1.948  -0.140   2.102  0.00  0.00    +0.040 C 
BRANCH  23  24
ATOM     24  C   LIG    1       -2.707  -0.397   3.406  0.00  0.00    +0.000 C 
ATOM     25  C   LIG    1       -2.526  -1.858   3.822  0.00  0.00    +0.030 C 
BRANCH  24  26
ATOM     26  C   LIG    1       -4.195  -0.108   3.195  0.00  0.00    +0.000 C 
BRANCH  26  28
ATOM     27  C   LIG    1       -6.422   0.045   4.316  0.00  0.00    +0.000 C 
ATOM     28  C   LIG    1       -4.935  -0.244   4.527  0.00  0.00    -0.010 C 
ENDBRANCH  26  28
ENDBRANCH  24  26
ENDBRANCH  23  24
ENDBRANCH   1  23
TORSDOF 6
