REMARK  Name = ZINCtV000002yIUA.0
REMARK                            x       y       z     vdW  Elec       q    Type
REMARK                         _______ _______ _______ _____ _____    ______ ____
ROOT
ATOM      1  S   LIG    1        6.113   2.164  -0.956  0.00  0.00    +0.100 S 
ENDROOT
BRANCH   1   2
ATOM      2  C   LIG    1        7.455   1.036  -1.134  0.00  0.00    +0.190 A 
ATOM      3  C   LIG    1        8.694   1.471  -1.667  0.00  0.00    -0.160 A 
ATOM      4  C   LIG    1        9.110   2.786  -2.137  0.00  0.00    -0.030 A 
ATOM      5  C   LIG    1       10.364   2.841  -2.580  0.00  0.00    -0.010 A 
ATOM      6  S   LIG    1       11.151   1.279  -2.460  0.00  0.00    +0.190 S 
ATOM      7  C   LIG    1        9.716   0.527  -1.782  0.00  0.00    +0.100 A 
ATOM      8  N   LIG    1        9.485  -0.733  -1.388  0.00  0.00    -0.490 NA
ATOM      9  C   LIG    1        8.318  -1.088  -0.901  0.00  0.00    +0.540 A 
ATOM     10  N   LIG    1        7.322  -0.231  -0.767  0.00  0.00    -0.530 NA
BRANCH   4  11
ATOM     11  C   LIG    1        8.210   3.964  -2.124  0.00  0.00    -0.040 A 
ATOM     12  C   LIG    1        6.931   3.875  -2.671  0.00  0.00    +0.040 A 
ATOM     13  C   LIG    1        6.096   4.973  -2.651  0.00  0.00    +0.030 A 
ATOM     14  C   LIG    1        6.530   6.165  -2.098  0.00  0.00    +0.010 A 
ATOM     15  C   LIG    1        7.800   6.262  -1.559  0.00  0.00    +0.020 A 
ATOM     16  C   LIG    1        8.642   5.168  -1.569  0.00  0.00    +0.030 A 
ENDBRANCH   4  11
ENDBRANCH   1   2
BRANCH   1  17
ATOM     17  C   LIG    1        4.864   1.058  -0.253  0.00  0.00    -0.030 C 
ATOM     18  C   LIG    1        5.322   0.584   1.128  0.00  0.00    +0.090 C 
BRANCH  17  21
ATOM     19  N   LIG    1        2.402   1.106  -0.015  0.00  0.00    -0.670 N 
ATOM     20  H   LIG    1        2.419   0.139   0.048  0.00  0.00    +0.410 HD
ATOM     21  C   LIG    1        3.556   1.795  -0.124  0.00  0.00    +0.540 C 
ATOM     22  O   LIG    1        3.541   3.008  -0.117  0.00  0.00    -0.500 OA
BRANCH  19  26
ATOM     23  C   LIG    1       -1.236   3.134   0.055  0.00  0.00    -0.090 A 
ATOM     24  C   LIG    1       -1.145   1.902  -0.566  0.00  0.00    +0.030 A 
ATOM     25  C   LIG    1        0.059   1.225  -0.586  0.00  0.00    -0.010 A 
ATOM     26  C   LIG    1        1.181   1.788   0.008  0.00  0.00    +0.140 A 
ATOM     27  C   LIG    1        1.087   3.028   0.626  0.00  0.00    +0.020 A 
ATOM     28  C   LIG    1       -0.121   3.698   0.647  0.00  0.00    +0.030 A 
BRANCH  23  30
ATOM     29  C   LIG    1       -2.662   4.761  -1.158  0.00  0.00    +0.030 C 
ATOM     30  C   LIG    1       -2.552   3.868   0.080  0.00  0.00    +0.050 C 
ENDBRANCH  23  30
ENDBRANCH  19  26
ENDBRANCH  17  21
ENDBRANCH   1  17
TORSDOF 6
