REMARK  Name = ZINCvU0000000H7F.0
REMARK                            x       y       z     vdW  Elec       q    Type
REMARK                         _______ _______ _______ _____ _____    ______ ____
ROOT
ATOM      1  N   LIG    1        3.603   3.533   0.384  0.00  0.00    -0.620 N 
ATOM      2  H   LIG    1        2.761   3.979   0.564  0.00  0.00    +0.420 HD
ATOM      3  C   LIG    1        3.622   2.213   0.110  0.00  0.00    +0.570 C 
ATOM      4  O   LIG    1        4.678   1.654  -0.116  0.00  0.00    -0.500 OA
ENDROOT
BRANCH   3   5
ATOM      5  C   LIG    1        2.362   1.448   0.083  0.00  0.00    -0.160 A 
ATOM      6  C   LIG    1        1.147   2.089   0.343  0.00  0.00    +0.100 A 
ATOM      7  C   LIG    1       -0.027   1.371   0.318  0.00  0.00    -0.030 A 
ATOM      8  C   LIG    1       -0.005   0.008   0.034  0.00  0.00    +0.200 A 
ATOM      9  C   LIG    1        1.203  -0.633  -0.225  0.00  0.00    -0.010 A 
ATOM     10  C   LIG    1        2.380   0.079  -0.201  0.00  0.00    +0.140 A 
BRANCH   8  11
ATOM     11  N   LIG    1       -1.194  -0.715   0.010  0.00  0.00    -0.630 N 
ATOM     12  H   LIG    1       -1.214  -1.627   0.338  0.00  0.00    +0.430 HD
BRANCH  11  13
ATOM     13  C   LIG    1       -2.352  -0.130  -0.483  0.00  0.00    +0.290 A 
ATOM     14  N   LIG    1       -3.531  -0.668  -0.443  0.00  0.00    -0.530 NA
ATOM     15  C   LIG    1       -4.525   0.033  -0.956  0.00  0.00    +0.100 A 
ATOM     16  C   LIG    1       -4.167   1.214  -1.463  0.00  0.00    -0.120 A 
ATOM     17  C   LIG    1       -5.948  -0.463  -0.974  0.00  0.00    +0.160 C 
ATOM     18  S   LIG    1       -2.430   1.401  -1.239  0.00  0.00    +0.130 S 
ENDBRANCH  11  13
ENDBRANCH   8  11
ENDBRANCH   3   5
BRANCH   1  22
ATOM     19  C   LIG    1        6.109   6.044   0.641  0.00  0.00    +0.150 A 
ATOM     20  C   LIG    1        7.102   5.181   0.360  0.00  0.00    -0.120 A 
ATOM     21  S   LIG    1        6.392   3.587   0.112  0.00  0.00    +0.190 S 
ATOM     22  C   LIG    1        4.790   4.254   0.409  0.00  0.00    +0.270 A 
ATOM     23  N   LIG    1        4.891   5.522   0.660  0.00  0.00    -0.470 NA
BRANCH  19  27
ATOM     24  C   LIG    1        6.832  10.167   1.417  0.00  0.00    +0.180 A 
ATOM     25  C   LIG    1        7.892   9.317   1.132  0.00  0.00    -0.120 A 
ATOM     26  C   LIG    1        7.660   7.980   0.880  0.00  0.00    +0.120 A 
ATOM     27  C   LIG    1        6.361   7.481   0.912  0.00  0.00    -0.100 A 
ATOM     28  C   LIG    1        5.293   8.338   1.194  0.00  0.00    +0.200 A 
ATOM     29  C   LIG    1        5.534   9.677   1.450  0.00  0.00    -0.110 A 
BRANCH  24  31
ATOM     30  C   LIG    1        8.425  11.920   1.615  0.00  0.00    +0.250 C 
ATOM     31  O   LIG    1        7.066  11.482   1.665  0.00  0.00    -0.320 OA
ENDBRANCH  24  31
BRANCH  28  32
ATOM     32  O   LIG    1        4.022   7.858   1.221  0.00  0.00    -0.270 OA
ATOM     33  C   LIG    1        2.981   8.792   1.516  0.00  0.00    +0.240 C 
ENDBRANCH  28  32
ENDBRANCH  19  27
ENDBRANCH   1  22
TORSDOF 7
