REMARK  Name = ZINCpe000000X0pR.0
REMARK                            x       y       z     vdW  Elec       q    Type
REMARK                         _______ _______ _______ _____ _____    ______ ____
ROOT
ATOM      1  N   LIG    1       -2.193  -1.668   1.911  0.00  0.00    -0.560 N 
ATOM      2  C   LIG    1       -1.596  -2.654   1.232  0.00  0.00    +0.710 C 
ATOM      3  N   LIG    1       -1.032  -2.224   0.085  0.00  0.00    -0.720 N 
ATOM      4  H   LIG    1       -0.550  -2.760  -0.563  0.00  0.00    +0.440 HD
ATOM      5  C   LIG    1       -1.292  -0.775   0.011  0.00  0.00    +0.170 C 
ATOM      6  C   LIG    1       -2.125  -0.441  -1.229  0.00  0.00    +0.100 C 
ATOM      7  O   LIG    1       -1.567  -3.810   1.606  0.00  0.00    -0.530 OA
ATOM      8  C   LIG    1       -2.078  -0.485   1.274  0.00  0.00    +0.540 C 
ATOM      9  O   LIG    1       -2.512   0.587   1.637  0.00  0.00    -0.440 OA
ENDROOT
BRANCH   5  10
ATOM     10  C   LIG    1        0.002  -0.004   0.002  0.00  0.00    -0.140 A 
ATOM     11  C   LIG    1        1.208  -0.678  -0.013  0.00  0.00    +0.070 A 
ATOM     12  C   LIG    1        2.396   0.029  -0.021  0.00  0.00    +0.010 A 
ATOM     13  C   LIG    1        2.379   1.412  -0.013  0.00  0.00    +0.060 A 
ATOM     14  C   LIG    1        1.173   2.088   0.002  0.00  0.00    -0.010 A 
ATOM     15  C   LIG    1       -0.017   1.381   0.010  0.00  0.00    +0.130 A 
ATOM     16  F   LIG    1       -1.196   2.041   0.019  0.00  0.00    -0.120 F 
ENDBRANCH   5  10
BRANCH   1  17
ATOM     17  C   LIG    1       -2.887  -1.850   3.188  0.00  0.00    +0.360 C 
BRANCH  17  24
ATOM     18  C   LIG    1       -8.910  -2.173   4.536  0.00  0.00    +0.080 C 
ATOM     19  C   LIG    1       -7.442  -1.747   4.601  0.00  0.00    +0.130 C 
ATOM     20  C   LIG    1       -6.597  -2.685   3.739  0.00  0.00    +0.260 C 
ATOM     21  N   LIG    1       -5.176  -2.378   3.965  0.00  0.00    -0.610 N 
ATOM     22  C   LIG    1       -4.697  -2.302   5.355  0.00  0.00    +0.250 C 
ATOM     23  C   LIG    1       -5.636  -1.377   6.138  0.00  0.00    +0.220 C 
ATOM     24  C   LIG    1       -4.338  -2.169   2.931  0.00  0.00    +0.510 C 
ATOM     25  O   LIG    1       -4.751  -2.237   1.792  0.00  0.00    -0.520 OA
ATOM     26  O   LIG    1       -6.986  -1.810   5.955  0.00  0.00    -0.370 OA
ENDBRANCH  17  24
ENDBRANCH   1  17
TORSDOF 3
