REMARK  Name = ZINCrg000000tS9U.0
REMARK                            x       y       z     vdW  Elec       q    Type
REMARK                         _______ _______ _______ _____ _____    ______ ____
ROOT
ATOM      1  C   LIG    1        4.166   9.587  -3.863  0.00  0.00    +0.260 C 
ATOM      2  C   LIG    1        5.422  10.439  -4.033  0.00  0.00    +0.010 C 
ATOM      3  C   LIG    1        5.623  11.304  -2.787  0.00  0.00    +0.020 C 
ATOM      4  C   LIG    1        5.809  10.403  -1.563  0.00  0.00    +0.010 C 
ATOM      5  C   LIG    1        4.551   9.552  -1.364  0.00  0.00    +0.260 C 
ATOM      6  N   LIG    1        4.269   8.826  -2.611  0.00  0.00    -0.620 N 
ATOM      7  C   LIG    1        4.114   7.487  -2.606  0.00  0.00    +0.710 C 
ATOM      8  N   LIG    1        4.087   6.816  -1.437  0.00  0.00    -0.740 N 
ATOM      9  H   LIG    1        4.245   7.287  -0.604  0.00  0.00    +0.400 HD
ATOM     10  O   LIG    1        3.999   6.885  -3.655  0.00  0.00    -0.570 OA
ENDROOT
BRANCH   1  14
ATOM     11  O   LIG    1        3.175   8.758  -8.509  0.00  0.00    -0.540 OA
ATOM     12  C   LIG    1        3.187   8.669  -7.300  0.00  0.00    +0.520 C 
ATOM     13  C   LIG    1        4.172   9.369  -6.388  0.00  0.00    +0.040 C 
ATOM     14  C   LIG    1        4.040   8.620  -5.042  0.00  0.00    +0.040 C 
ATOM     15  C   LIG    1        2.609   8.048  -5.138  0.00  0.00    +0.270 C 
ATOM     16  N   LIG    1        2.328   7.933  -6.574  0.00  0.00    -0.730 N 
ATOM     17  H   LIG    1        1.615   7.394  -6.950  0.00  0.00    +0.410 HD
ENDBRANCH   1  14
BRANCH   8  18
ATOM     18  C   LIG    1        3.818   5.376  -1.425  0.00  0.00    +0.270 C 
BRANCH  18  19
ATOM     19  C   LIG    1        3.844   4.864   0.016  0.00  0.00    +0.320 C 
BRANCH  19  20
ATOM     20  N   LIG    1        3.575   3.424   0.028  0.00  0.00    -0.540 N 
ATOM     21  C   LIG    1        4.500   2.450  -0.056  0.00  0.00    +0.680 A 
ATOM     22  N   LIG    1        3.896   1.247  -0.014  0.00  0.00    -0.640 N 
ATOM     23  H   LIG    1        4.342   0.386  -0.057  0.00  0.00    +0.440 HD
ATOM     24  C   LIG    1        2.523   1.449   0.101  0.00  0.00    +0.090 A 
ATOM     25  C   LIG    1        1.438   0.589   0.184  0.00  0.00    +0.030 A 
ATOM     26  C   LIG    1        0.160   1.103   0.288  0.00  0.00    +0.030 A 
ATOM     27  C   LIG    1       -0.041   2.472   0.319  0.00  0.00    +0.020 A 
ATOM     28  C   LIG    1        1.033   3.336   0.237  0.00  0.00    +0.030 A 
ATOM     29  O   LIG    1        5.699   2.628  -0.154  0.00  0.00    -0.550 OA
ATOM     30  C   LIG    1        2.319   2.830   0.127  0.00  0.00    +0.090 A 
ENDBRANCH  19  20
ENDBRANCH  18  19
ENDBRANCH   8  18
TORSDOF 4
