REMARK  Name = ZINCrH000004tcXA.1
REMARK                            x       y       z     vdW  Elec       q    Type
REMARK                         _______ _______ _______ _____ _____    ______ ____
ROOT
ATOM      1  C   LIG    1       -2.118   2.965  -2.529  0.00  0.00    +0.200 A 
ATOM      2  N   LIG    1       -1.206   2.337  -3.226  0.00  0.00    -0.330 NA
ATOM      3  O   LIG    1       -0.415   1.794  -2.484  0.00  0.00    +0.100 OA
ATOM      4  C   LIG    1       -0.748   2.026  -1.210  0.00  0.00    +0.180 A 
ATOM      5  N   LIG    1       -1.831   2.763  -1.222  0.00  0.00    -0.460 NA
ENDROOT
BRANCH   4   6
ATOM      6  C   LIG    1       -0.019   1.527   0.010  0.00  0.00    +0.140 C 
ATOM      7  C   LIG    1        0.002  -0.004   0.002  0.00  0.00    +0.050 C 
ATOM      8  C   LIG    1        0.515  -0.519   1.353  0.00  0.00    +0.160 C 
ATOM      9  C   LIG    1        1.792   0.207   1.683  0.00  0.00    -0.010 A 
ATOM     10  C   LIG    1        2.195   1.352   1.079  0.00  0.00    -0.010 A 
ATOM     11  N   LIG    1        3.371   1.684   1.638  0.00  0.00    -0.380 N 
ATOM     12  H   LIG    1        3.912   2.457   1.412  0.00  0.00    +0.450 HD
ATOM     13  N   LIG    1        3.656   0.792   2.527  0.00  0.00    -0.080 NA
ATOM     14  N   LIG    1        2.728  -0.103   2.575  0.00  0.00    -0.250 NA
ATOM     15  C   LIG    1        1.420   2.060  -0.000  0.00  0.00    +0.150 C 
ENDBRANCH   4   6
BRANCH   1  19
ATOM     16  C   LIG    1       -3.065   3.607  -6.675  0.00  0.00    -0.030 A 
ATOM     17  N   LIG    1       -2.696   3.356  -5.475  0.00  0.00    -0.390 NA
ATOM     18  C   LIG    1       -3.433   3.864  -4.472  0.00  0.00    +0.100 A 
ATOM     19  C   LIG    1       -3.256   3.745  -3.068  0.00  0.00    +0.050 A 
ATOM     20  C   LIG    1       -4.149   4.355  -2.204  0.00  0.00    +0.100 A 
ATOM     21  C   LIG    1       -5.214   5.090  -2.697  0.00  0.00    +0.070 A 
ATOM     22  C   LIG    1       -5.400   5.215  -4.056  0.00  0.00    +0.100 A 
ATOM     23  C   LIG    1       -4.518   4.608  -4.947  0.00  0.00    -0.180 A 
ATOM     24  S   LIG    1       -4.472   4.572  -6.707  0.00  0.00    +0.210 S 
BRANCH  16  26
ATOM     25  F   LIG    1       -2.872   1.871  -8.283  0.00  0.00    -0.160 F 
ATOM     26  C   LIG    1       -2.347   3.112  -7.904  0.00  0.00    +0.550 C 
ATOM     27  F   LIG    1       -0.983   2.976  -7.625  0.00  0.00    -0.150 F 
ATOM     28  F   LIG    1       -2.521   4.029  -8.946  0.00  0.00    -0.160 F 
ENDBRANCH  16  26
ENDBRANCH   1  19
TORSDOF 3
