REMARK  Name = ZINCrH000004tcXA.2
REMARK                            x       y       z     vdW  Elec       q    Type
REMARK                         _______ _______ _______ _____ _____    ______ ____
ROOT
ATOM      1  C   LIG    1        0.373  -3.921  -2.054  0.00  0.00    +0.200 A 
ATOM      2  N   LIG    1        0.753  -4.021  -0.806  0.00  0.00    -0.330 NA
ATOM      3  O   LIG    1        0.980  -2.921  -0.350  0.00  0.00    +0.100 OA
ATOM      4  C   LIG    1        0.763  -1.986  -1.281  0.00  0.00    +0.190 A 
ATOM      5  N   LIG    1        0.372  -2.605  -2.366  0.00  0.00    -0.460 NA
ENDROOT
BRANCH   4   6
ATOM      6  C   LIG    1        0.931  -0.498  -1.110  0.00  0.00    +0.140 C 
ATOM      7  C   LIG    1        0.002  -0.004   0.002  0.00  0.00    +0.070 C 
ATOM      8  C   LIG    1       -0.019   1.530   0.011  0.00  0.00    +0.150 C 
ATOM      9  C   LIG    1        1.404   2.023  -0.001  0.00  0.00    -0.010 A 
ATOM     10  C   LIG    1        2.474   1.260  -0.332  0.00  0.00    -0.010 A 
ATOM     11  N   LIG    1        3.546   2.037  -0.221  0.00  0.00    -0.250 NA
ATOM     12  N   LIG    1        3.166   3.212   0.154  0.00  0.00    -0.080 NA
ATOM     13  N   LIG    1        1.883   3.243   0.296  0.00  0.00    -0.380 N 
ATOM     14  H   LIG    1        1.358   4.011   0.570  0.00  0.00    +0.450 HD
ATOM     15  C   LIG    1        2.387  -0.188  -0.740  0.00  0.00    +0.170 C 
ENDBRANCH   4   6
BRANCH   1  19
ATOM     16  C   LIG    1        0.352  -8.112  -1.083  0.00  0.00    -0.030 A 
ATOM     17  N   LIG    1        0.392  -6.845  -1.268  0.00  0.00    -0.390 NA
ATOM     18  C   LIG    1        0.052  -6.377  -2.481  0.00  0.00    +0.100 A 
ATOM     19  C   LIG    1        0.008  -5.040  -2.956  0.00  0.00    +0.050 A 
ATOM     20  C   LIG    1       -0.382  -4.779  -4.259  0.00  0.00    +0.100 A 
ATOM     21  C   LIG    1       -0.719  -5.816  -5.112  0.00  0.00    +0.070 A 
ATOM     22  C   LIG    1       -0.682  -7.120  -4.667  0.00  0.00    +0.100 A 
ATOM     23  C   LIG    1       -0.299  -7.407  -3.359  0.00  0.00    -0.180 A 
ATOM     24  S   LIG    1       -0.148  -8.933  -2.492  0.00  0.00    +0.210 S 
BRANCH  16  26
ATOM     25  F   LIG    1       -0.447  -8.904   1.007  0.00  0.00    -0.160 F 
ATOM     26  C   LIG    1        0.702  -8.791   0.216  0.00  0.00    +0.550 C 
ATOM     27  F   LIG    1        1.662  -8.033   0.895  0.00  0.00    -0.150 F 
ATOM     28  F   LIG    1        1.215 -10.065  -0.047  0.00  0.00    -0.160 F 
ENDBRANCH  16  26
ENDBRANCH   1  19
TORSDOF 3
