REMARK  Name = ZINCrH000004tcXA.0
REMARK                            x       y       z     vdW  Elec       q    Type
REMARK                         _______ _______ _______ _____ _____    ______ ____
ROOT
ATOM      1  C   LIG    1        2.455   3.911  -0.001  0.00  0.00    +0.200 A 
ATOM      2  N   LIG    1        2.598   5.212   0.004  0.00  0.00    -0.330 NA
ATOM      3  O   LIG    1        3.776   5.501  -0.005  0.00  0.00    +0.100 OA
ATOM      4  C   LIG    1        4.520   4.391  -0.018  0.00  0.00    +0.190 A 
ATOM      5  N   LIG    1        3.696   3.373  -0.011  0.00  0.00    -0.460 NA
ENDROOT
BRANCH   4   6
ATOM      6  C   LIG    1        6.026   4.324  -0.034  0.00  0.00    +0.140 C 
ATOM      7  C   LIG    1        6.554   5.029  -1.285  0.00  0.00    +0.060 C 
ATOM      8  C   LIG    1        8.048   4.724  -1.462  0.00  0.00    +0.160 C 
ATOM      9  C   LIG    1        8.741   5.003  -0.155  0.00  0.00    +0.010 A 
ATOM     10  N   LIG    1       10.007   5.169   0.104  0.00  0.00    -0.270 NA
ATOM     11  N   LIG    1       10.138   5.390   1.369  0.00  0.00    -0.260 N 
ATOM     12  H   LIG    1       10.985   5.547   1.815  0.00  0.00    +0.470 HD
ATOM     13  N   LIG    1        8.990   5.375   1.960  0.00  0.00    -0.270 NA
ATOM     14  C   LIG    1        8.072   5.137   1.067  0.00  0.00    +0.010 A 
ATOM     15  C   LIG    1        6.580   5.010   1.222  0.00  0.00    +0.170 C 
ENDBRANCH   4   6
BRANCH   1  19
ATOM     16  C   LIG    1       -1.503   5.595   0.044  0.00  0.00    -0.030 A 
ATOM     17  N   LIG    1       -0.286   5.198   0.031  0.00  0.00    -0.390 NA
ATOM     18  C   LIG    1       -0.057   3.873   0.022  0.00  0.00    +0.100 A 
ATOM     19  C   LIG    1        1.174   3.167   0.007  0.00  0.00    +0.050 A 
ATOM     20  C   LIG    1        1.178   1.782   0.000  0.00  0.00    +0.100 A 
ATOM     21  C   LIG    1       -0.013   1.076   0.008  0.00  0.00    +0.070 A 
ATOM     22  C   LIG    1       -1.217   1.746   0.017  0.00  0.00    +0.090 A 
ATOM     23  C   LIG    1       -1.247   3.139   0.030  0.00  0.00    -0.180 A 
ATOM     24  S   LIG    1       -2.590   4.279   0.049  0.00  0.00    +0.210 S 
BRANCH  16  26
ATOM     25  F   LIG    1       -2.065   7.496  -1.261  0.00  0.00    -0.160 F 
ATOM     26  C   LIG    1       -1.923   7.042   0.054  0.00  0.00    +0.550 C 
ATOM     27  F   LIG    1       -0.950   7.806   0.708  0.00  0.00    -0.150 F 
ATOM     28  F   LIG    1       -3.144   7.169   0.726  0.00  0.00    -0.160 F 
ENDBRANCH  16  26
ENDBRANCH   1  19
TORSDOF 3
