REMARK  Name = ZINCpk00000e9UPo.0
REMARK                            x       y       z     vdW  Elec       q    Type
REMARK                         _______ _______ _______ _____ _____    ______ ____
ROOT
ATOM      1  C   LIG    1       -1.526   7.452  -0.365  0.00  0.00    +0.510 C 
ATOM      2  O   LIG    1       -0.563   8.192  -0.385  0.00  0.00    -0.490 OA
ENDROOT
BRANCH   1   7
ATOM      3  C   LIG    1       -4.352   9.910  -0.637  0.00  0.00    -0.690 A 
ATOM      4  C   LIG    1       -5.447   9.064  -0.616  0.00  0.00    +0.160 A 
ATOM      5  C   LIG    1       -5.270   7.695  -0.513  0.00  0.00    +0.000 A 
ATOM      6  C   LIG    1       -3.999   7.165  -0.436  0.00  0.00    +0.150 A 
ATOM      7  C   LIG    1       -2.890   8.013  -0.452  0.00  0.00    -0.150 A 
ATOM      8  C   LIG    1       -3.076   9.393  -0.556  0.00  0.00    +0.210 A 
BRANCH   3   9
ATOM      9  S   LIG    1       -4.589  11.651  -0.768  0.00  0.00    +2.700 S 
ATOM     10  O   LIG    1       -3.424  12.256  -0.224  0.00  0.00    -0.950 OA
ATOM     11  O   LIG    1       -5.899  11.915  -0.286  0.00  0.00    -0.950 OA
BRANCH   9  13
ATOM     12  C   LIG    1       -5.669  11.515  -3.243  0.00  0.00    +0.300 C 
ATOM     13  N   LIG    1       -4.600  12.024  -2.381  0.00  0.00    -1.120 NA
ATOM     14  H   LIG    1       -3.898  12.580  -2.755  0.00  0.00    +0.420 HD
ENDBRANCH   9  13
ENDBRANCH   3   9
ENDBRANCH   1   7
BRANCH   1  15
ATOM     15  O   LIG    1       -1.350   6.121  -0.266  0.00  0.00    -0.330 OA
BRANCH  15  16
ATOM     16  C   LIG    1        0.018   5.640  -0.184  0.00  0.00    +0.270 C 
BRANCH  16  17
ATOM     17  C   LIG    1        0.017   4.137  -0.079  0.00  0.00    +0.510 C 
ATOM     18  N   LIG    1        1.183   3.467   0.009  0.00  0.00    -0.660 N 
ATOM     19  H   LIG    1        2.019   3.955   0.078  0.00  0.00    +0.420 HD
ATOM     20  O   LIG    1       -1.033   3.530  -0.072  0.00  0.00    -0.440 OA
BRANCH  18  21
ATOM     21  C   LIG    1        1.188   2.072   0.000  0.00  0.00    +0.360 A 
ATOM     22  C   LIG    1        2.398   1.389  -0.017  0.00  0.00    -0.040 A 
ATOM     23  C   LIG    1        2.390   0.005  -0.025  0.00  0.00    +0.110 A 
ATOM     24  C   LIG    1        1.165  -0.650  -0.016  0.00  0.00    -0.120 A 
ATOM     25  C   LIG    1        0.001   0.094   0.000  0.00  0.00    +0.320 A 
ATOM     26 CL   LIG    1        1.098  -2.385  -0.026  0.00  0.00    -0.050 Cl
ATOM     27  N   LIG    1        0.041   1.413   0.007  0.00  0.00    -0.460 NA
ENDBRANCH  18  21
ENDBRANCH  16  17
ENDBRANCH  15  16
ENDBRANCH   1  15
TORSDOF 7
