REMARK  Name = ZINCnE00000hdbyU.0
REMARK                            x       y       z     vdW  Elec       q    Type
REMARK                         _______ _______ _______ _____ _____    ______ ____
ROOT
ATOM      1  S   LIG    1        3.783   3.091  -0.363  0.00  0.00    +2.720 S 
ATOM      2  O   LIG    1        4.642   4.062  -0.945  0.00  0.00    -0.950 OA
ATOM      3  O   LIG    1        3.421   1.881  -1.016  0.00  0.00    -0.940 OA
ENDROOT
BRANCH   1   4
ATOM      4  N   LIG    1        2.366   3.872  -0.008  0.00  0.00    -0.940 N 
ATOM      5  C   LIG    1        2.316   5.339   0.044  0.00  0.00    +0.290 C 
ATOM      6  C   LIG    1        1.054   5.791  -0.703  0.00  0.00    +0.030 C 
ATOM      7  C   LIG    1       -0.174   5.252   0.031  0.00  0.00    +0.030 C 
ATOM      8  C   LIG    1       -0.038   3.772   0.269  0.00  0.00    -0.110 A 
ATOM      9  C   LIG    1       -1.178   3.025   0.516  0.00  0.00    +0.040 A 
ATOM     10  C   LIG    1       -1.086   1.665   0.737  0.00  0.00    -0.030 A 
ATOM     11  C   LIG    1        0.147   1.040   0.724  0.00  0.00    +0.050 A 
ATOM     12  C   LIG    1        1.289   1.777   0.477  0.00  0.00    -0.030 A 
ATOM     13  C   LIG    1       -1.420   5.516  -0.817  0.00  0.00    +0.040 C 
ATOM     14  C   LIG    1        1.198   3.145   0.248  0.00  0.00    +0.190 A 
ENDBRANCH   1   4
BRANCH   1  19
ATOM     15  C   LIG    1        4.865   0.069   3.837  0.00  0.00    +0.120 C 
ATOM     16  C   LIG    1        4.977   1.304   2.980  0.00  0.00    -0.120 A 
ATOM     17  C   LIG    1        5.763   2.377   3.304  0.00  0.00    -0.170 A 
ATOM     18  S   LIG    1        5.612   3.600   2.049  0.00  0.00    +0.300 S 
ATOM     19  C   LIG    1        4.521   2.627   1.168  0.00  0.00    -0.870 A 
ATOM     20  C   LIG    1        4.296   1.467   1.799  0.00  0.00    +0.140 A 
BRANCH  17  21
ATOM     21  C   LIG    1        6.570   2.486   4.464  0.00  0.00    +0.530 C 
ATOM     22  O   LIG    1        6.601   1.569   5.276  0.00  0.00    -0.660 OA
ATOM     23  O   LIG    1        7.236   3.496   4.655  0.00  0.00    -0.680 OA
ENDBRANCH  17  21
ENDBRANCH   1  19
TORSDOF 3
