REMARK  Name = ZINCpk00000y6yDo.0
REMARK                            x       y       z     vdW  Elec       q    Type
REMARK                         _______ _______ _______ _____ _____    ______ ____
ROOT
ATOM      1  N   LIG    1       -4.899   0.812   0.685  0.00  0.00    -0.700 N 
ATOM      2  H   LIG    1       -4.791   1.516   0.027  0.00  0.00    +0.410 HD
ATOM      3  C   LIG    1       -5.876   0.897   1.609  0.00  0.00    +0.570 C 
ATOM      4  O   LIG    1       -6.012   0.015   2.434  0.00  0.00    -0.520 OA
ENDROOT
BRANCH   3   5
ATOM      5  C   LIG    1       -6.784   2.064   1.620  0.00  0.00    -0.160 A 
ATOM      6  C   LIG    1       -7.806   2.163   2.571  0.00  0.00    +0.150 A 
ATOM      7  C   LIG    1       -8.624   3.278   2.541  0.00  0.00    +0.040 A 
ATOM      8  C   LIG    1       -8.415   4.246   1.575  0.00  0.00    +0.060 A 
ATOM      9  N   LIG    1       -7.446   4.124   0.688  0.00  0.00    -0.440 NA
ATOM     10  C   LIG    1       -6.638   3.084   0.678  0.00  0.00    +0.310 A 
BRANCH   8  11
ATOM     11  C   LIG    1       -9.308   5.459   1.536  0.00  0.00    +0.520 C 
ATOM     12  F   LIG    1       -9.122   6.213   2.699  0.00  0.00    -0.170 F 
ATOM     13  F   LIG    1      -10.644   5.052   1.453  0.00  0.00    -0.170 F 
ATOM     14  F   LIG    1       -8.988   6.237   0.418  0.00  0.00    -0.160 F 
ENDBRANCH   8  11
ENDBRANCH   3   5
BRANCH   1  19
ATOM     15  C   LIG    1       -2.650   0.024   0.013  0.00  0.00    +0.150 C 
ATOM     16  C   LIG    1       -2.841  -0.500  -1.433  0.00  0.00    +0.220 C 
ATOM     17  O   LIG    1       -3.596  -1.718  -1.252  0.00  0.00    -0.360 OA
ATOM     18  C   LIG    1       -4.567  -1.461  -0.225  0.00  0.00    +0.210 C 
ATOM     19  C   LIG    1       -4.000  -0.345   0.674  0.00  0.00    +0.240 C 
BRANCH  15  20
ATOM     20  O   LIG    1       -2.449   1.439   0.020  0.00  0.00    -0.290 OA
BRANCH  20  24
ATOM     21  C   LIG    1        1.452   4.377   0.012  0.00  0.00    +0.360 C 
ATOM     22  N   LIG    1        0.599   3.186   0.013  0.00  0.00    -0.370 N 
ATOM     23  C   LIG    1       -0.760   3.176   0.026  0.00  0.00    +0.210 A 
ATOM     24  C   LIG    1       -1.160   1.880   0.017  0.00  0.00    -0.040 A 
ATOM     25  C   LIG    1       -0.013   1.076   0.008  0.00  0.00    +0.190 A 
ATOM     26  N   LIG    1        1.038   1.856   0.002  0.00  0.00    -0.270 NA
ENDBRANCH  20  24
ENDBRANCH  15  20
ENDBRANCH   1  19
TORSDOF 5
