REMARK  Name = ZINCpk000000oigg.0
REMARK                            x       y       z     vdW  Elec       q    Type
REMARK                         _______ _______ _______ _____ _____    ______ ____
ROOT
ATOM      1  C   LIG    1       -1.269  -0.758   0.010  0.00  0.00    +0.550 C 
ATOM      2  O   LIG    1       -2.328  -0.163   0.022  0.00  0.00    -0.490 OA
ENDROOT
BRANCH   1   5
ATOM      3  N   LIG    1        2.277  -0.041  -0.020  0.00  0.00    -0.330 N 
ATOM      4  N   LIG    1        1.147  -0.650  -0.012  0.00  0.00    -0.140 NA
ATOM      5  C   LIG    1        0.002  -0.004   0.002  0.00  0.00    +0.020 A 
ATOM      6  C   LIG    1       -0.017   1.412   0.010  0.00  0.00    +0.140 A 
ATOM      7  C   LIG    1        1.175   2.073   0.002  0.00  0.00    +0.000 A 
ATOM      8  C   LIG    1        2.359   1.303  -0.013  0.00  0.00    +0.480 A 
ATOM      9  O   LIG    1        3.448   1.851  -0.021  0.00  0.00    -0.510 OA
BRANCH   3  10
ATOM     10  C   LIG    1        3.511  -0.830  -0.036  0.00  0.00    +0.320 C 
BRANCH  10  11
ATOM     11  C   LIG    1        3.955  -1.113   1.400  0.00  0.00    +0.000 C 
BRANCH  11  13
ATOM     12  C   LIG    1        5.688  -2.219   2.820  0.00  0.00    +0.020 C 
ATOM     13  C   LIG    1        5.244  -1.937   1.383  0.00  0.00    +0.020 C 
ENDBRANCH  11  13
ENDBRANCH  10  11
ENDBRANCH   3  10
ENDBRANCH   1   5
BRANCH   1  14
ATOM     14  O   LIG    1       -1.253  -2.105   0.002  0.00  0.00    -0.320 OA
BRANCH  14  15
ATOM     15  C   LIG    1       -2.539  -2.780   0.010  0.00  0.00    +0.340 C 
BRANCH  15  16
ATOM     16  C   LIG    1       -2.324  -4.271   0.000  0.00  0.00    +0.210 A 
ATOM     17  C   LIG    1       -2.711  -5.040   1.077  0.00  0.00    -0.110 A 
ATOM     18  C   LIG    1       -2.502  -6.419   1.043  0.00  0.00    +0.530 A 
ATOM     19  N   LIG    1       -1.917  -6.989  -0.051  0.00  0.00    -0.470 N 
ATOM     20  C   LIG    1       -1.642  -8.320  -0.242  0.00  0.00    +0.240 A 
ATOM     21  C   LIG    1       -1.069  -8.701  -1.370  0.00  0.00    +0.020 A 
ATOM     22  S   LIG    1       -0.844  -7.216  -2.311  0.00  0.00    +0.190 S 
ATOM     23  C   LIG    1       -1.561  -6.167  -1.076  0.00  0.00    +0.320 A 
ATOM     24  O   LIG    1       -2.839  -7.114   1.989  0.00  0.00    -0.510 OA
ATOM     25  N   LIG    1       -1.763  -4.863  -1.048  0.00  0.00    -0.490 NA
ENDBRANCH  15  16
ENDBRANCH  14  15
ENDBRANCH   1  14
TORSDOF 7
