REMARK  Name = ZINCpk00000y6vPF.0
REMARK                            x       y       z     vdW  Elec       q    Type
REMARK                         _______ _______ _______ _____ _____    ______ ____
ROOT
ATOM      1  C   LIG    1       -0.821  -0.984  -0.421  0.00  0.00    +0.640 C 
ATOM      2  N   LIG    1        0.002  -0.004   0.002  0.00  0.00    -0.640 N 
ATOM      3  C   LIG    1       -0.018   1.466   0.010  0.00  0.00    +0.290 C 
ATOM      4  C   LIG    1        1.517   1.433  -0.005  0.00  0.00    +0.250 C 
ATOM      5  C   LIG    1        1.316   0.064   0.660  0.00  0.00    +0.290 C 
ATOM      6  O   LIG    1       -1.882  -0.702  -0.947  0.00  0.00    -0.510 OA
ENDROOT
BRANCH   1  11
ATOM      7  C   LIG    1        1.810  -5.053   0.840  0.00  0.00    +0.180 C 
ATOM      8  C   LIG    1        0.709  -4.176   0.303  0.00  0.00    +0.030 A 
ATOM      9  C   LIG    1       -0.434  -4.610  -0.273  0.00  0.00    -0.060 A 
ATOM     10  C   LIG    1       -1.176  -3.473  -0.629  0.00  0.00    -0.080 A 
ATOM     11  C   LIG    1       -0.439  -2.389  -0.248  0.00  0.00    -0.090 A 
ATOM     12  C   LIG    1       -2.525  -3.454  -1.301  0.00  0.00    +0.140 C 
ATOM     13  O   LIG    1        0.704  -2.836   0.311  0.00  0.00    -0.160 OA
ENDBRANCH   1  11
BRANCH   4  14
ATOM     14  N   LIG    1        2.147   2.434   0.860  0.00  0.00    -0.610 N 
ATOM     15  C   LIG    1        3.062   3.479   0.386  0.00  0.00    +0.300 C 
ATOM     16  C   LIG    1        3.113   4.526   1.523  0.00  0.00    +0.140 C 
ATOM     17  C   LIG    1        2.760   3.665   2.758  0.00  0.00    +0.090 C 
ATOM     18  C   LIG    1        1.967   2.509   2.190  0.00  0.00    +0.520 C 
ATOM     19  O   LIG    1        1.270   1.760   2.840  0.00  0.00    -0.510 OA
BRANCH  16  20
ATOM     20  C   LIG    1        2.088   5.611   1.311  0.00  0.00    +0.180 A 
ATOM     21  N   LIG    1        2.313   6.903   1.284  0.00  0.00    -0.470 NA
ATOM     22  C   LIG    1        1.114   7.474   1.070  0.00  0.00    +0.170 A 
ATOM     23  N   LIG    1        0.238   6.518   0.981  0.00  0.00    -0.380 NA
ATOM     24  C   LIG    1        0.838   8.951   0.956  0.00  0.00    +0.200 C 
ATOM     25  O   LIG    1        0.778   5.440   1.111  0.00  0.00    +0.090 OA
ENDBRANCH  16  20
ENDBRANCH   4  14
TORSDOF 3
