REMARK  Name = ZINCpe00000VPt5N.0
REMARK                            x       y       z     vdW  Elec       q    Type
REMARK                         _______ _______ _______ _____ _____    ______ ____
ROOT
ATOM      1  C   LIG    1       -2.589   0.192  -1.227  0.00  0.00    +0.520 C 
ATOM      2  N   LIG    1       -3.365  -0.240  -2.241  0.00  0.00    -0.610 N 
ATOM      3  C   LIG    1       -3.691   0.649  -3.365  0.00  0.00    +0.270 C 
ATOM      4  C   LIG    1       -5.213   0.690  -3.536  0.00  0.00    +0.040 C 
ATOM      5  C   LIG    1       -5.743  -0.738  -3.690  0.00  0.00    +0.030 C 
ATOM      6  C   LIG    1       -5.420  -1.542  -2.428  0.00  0.00    +0.090 C 
ATOM      7  C   LIG    1       -3.896  -1.609  -2.247  0.00  0.00    +0.300 C 
ATOM      8  O   LIG    1       -2.328  -0.551  -0.305  0.00  0.00    -0.530 OA
ENDROOT
BRANCH   6   9
ATOM      9  C   LIG    1       -5.971  -2.938  -2.567  0.00  0.00    +0.290 A 
ATOM     10  N   LIG    1       -6.457  -3.648  -1.591  0.00  0.00    -0.480 NA
ATOM     11  C   LIG    1       -6.866  -4.853  -2.063  0.00  0.00    +0.050 A 
ATOM     12  C   LIG    1       -7.451  -5.973  -1.466  0.00  0.00    +0.070 A 
ATOM     13  C   LIG    1       -7.752  -7.069  -2.225  0.00  0.00    +0.000 A 
ATOM     14  C   LIG    1       -7.483  -7.083  -3.586  0.00  0.00    +0.030 A 
ATOM     15  C   LIG    1       -6.907  -5.989  -4.196  0.00  0.00    +0.010 A 
ATOM     16  C   LIG    1       -6.594  -4.867  -3.441  0.00  0.00    +0.050 A 
ATOM     17  N   LIG    1       -6.027  -3.641  -3.730  0.00  0.00    -0.600 N 
ATOM     18  H   LIG    1       -5.726  -3.338  -4.600  0.00  0.00    +0.420 HD
ENDBRANCH   6   9
BRANCH   1  19
ATOM     19  C   LIG    1       -2.047   1.598  -1.239  0.00  0.00    +0.090 C 
BRANCH  19  25
ATOM     20  O   LIG    1        2.207   1.393  -0.011  0.00  0.00    -0.540 OA
ATOM     21  C   LIG    1        1.057   1.784   0.002  0.00  0.00    +0.700 C 
ATOM     22  N   LIG    1        0.710   3.076   0.011  0.00  0.00    -0.680 N 
ATOM     23  H   LIG    1        1.344   3.811   0.009  0.00  0.00    +0.440 HD
ATOM     24  C   LIG    1       -0.628   3.232   0.024  0.00  0.00    +0.530 C 
ATOM     25  C   LIG    1       -1.204   1.830   0.017  0.00  0.00    +0.250 C 
ATOM     26  O   LIG    1       -1.244   4.276   0.034  0.00  0.00    -0.460 OA
ATOM     27  N   LIG    1       -0.011   0.966   0.007  0.00  0.00    -0.710 N 
ATOM     28  H   LIG    1        0.002  -0.004   0.002  0.00  0.00    +0.450 HD
ENDBRANCH  19  25
ENDBRANCH   1  19
TORSDOF 3
