REMARK  Name = ZINCpk00000FecX8.0
REMARK                            x       y       z     vdW  Elec       q    Type
REMARK                         _______ _______ _______ _____ _____    ______ ____
ROOT
ATOM      1  C   LIG    1        0.524   5.633  -1.122  0.00  0.00    +0.360 A 
ATOM      2  C   LIG    1        0.799   4.271  -1.172  0.00  0.00    -0.050 A 
ATOM      3  C   LIG    1        0.941   3.570   0.012  0.00  0.00    -0.040 A 
ATOM      4  C   LIG    1        0.814   4.259   1.210  0.00  0.00    -0.050 A 
ATOM      5  C   LIG    1        0.545   5.614   1.185  0.00  0.00    +0.300 A 
ATOM      6  N   LIG    1        0.409   6.255   0.041  0.00  0.00    -0.470 NA
ENDROOT
BRANCH   1   8
ATOM      7  C   LIG    1        0.006   7.647  -2.268  0.00  0.00    +0.510 C 
ATOM      8  N   LIG    1        0.373   6.351  -2.308  0.00  0.00    -0.660 N 
ATOM      9  H   LIG    1        0.533   5.918  -3.161  0.00  0.00    +0.420 HD
ATOM     10  O   LIG    1       -0.104   8.214  -1.202  0.00  0.00    -0.460 OA
BRANCH   7  14
ATOM     11  C   LIG    1       -2.961  10.863  -2.919  0.00  0.00    +0.050 C 
ATOM     12  C   LIG    1       -2.101   9.974  -3.820  0.00  0.00    +0.140 C 
ATOM     13  C   LIG    1       -0.671   9.854  -3.250  0.00  0.00    +0.050 C 
ATOM     14  C   LIG    1       -0.269   8.392  -3.549  0.00  0.00    -0.030 C 
ATOM     15  C   LIG    1       -1.504   7.802  -4.264  0.00  0.00    +0.230 C 
ATOM     16  O   LIG    1       -2.610   8.622  -3.828  0.00  0.00    -0.370 OA
ENDBRANCH   7  14
ENDBRANCH   1   8
BRANCH   3  17
ATOM     17  C   LIG    1        1.235   2.091   0.001  0.00  0.00    +0.330 C 
BRANCH  17  18
ATOM     18  N   LIG    1       -0.025   1.343   0.008  0.00  0.00    -0.730 N 
ATOM     19  H   LIG    1       -0.871   1.818   0.014  0.00  0.00    +0.400 HD
ATOM     20  C   LIG    1       -0.009  -0.004   0.000  0.00  0.00    +0.530 C 
ATOM     21  O   LIG    1        1.049  -0.598  -0.013  0.00  0.00    -0.530 OA
BRANCH  20  22
ATOM     22  C   LIG    1       -1.305  -0.773   0.007  0.00  0.00    -0.040 C 
ATOM     23  C   LIG    1       -2.118  -0.468   1.283  0.00  0.00    +0.210 C 
ATOM     24  O   LIG    1       -2.692  -1.700   1.735  0.00  0.00    -0.370 OA
ATOM     25  C   LIG    1       -2.348  -2.763   0.832  0.00  0.00    +0.140 C 
ATOM     26  C   LIG    1       -2.109  -4.061   1.606  0.00  0.00    +0.050 C 
ATOM     27  C   LIG    1       -1.042  -2.298   0.141  0.00  0.00    +0.050 C 
ENDBRANCH  20  22
ENDBRANCH  17  18
ENDBRANCH   3  17
TORSDOF 5
