REMARK  Name = ZINCrD00000hQ458.0
REMARK                            x       y       z     vdW  Elec       q    Type
REMARK                         _______ _______ _______ _____ _____    ______ ____
ROOT
ATOM      1  O   LIG    1        4.686   5.268  -0.719  0.00  0.00    -0.580 OA
ATOM      2  C   LIG    1        3.997   4.869  -1.639  0.00  0.00    +0.710 C 
ATOM      3  N   LIG    1        4.371   5.106  -2.912  0.00  0.00    -0.630 N 
ATOM      4  C   LIG    1        5.591   5.840  -3.200  0.00  0.00    +0.290 C 
ATOM      5  C   LIG    1        5.405   6.646  -4.491  0.00  0.00    +0.030 C 
ATOM      6  C   LIG    1        4.276   7.657  -4.307  0.00  0.00    +0.280 C 
ATOM      7  N   LIG    1        2.966   7.048  -4.588  0.00  0.00    -0.480 N 
ATOM      8  C   LIG    1        2.601   5.733  -4.433  0.00  0.00    +0.060 A 
ATOM      9  C   LIG    1        1.294   5.579  -4.692  0.00  0.00    -0.040 A 
ATOM     10  C   LIG    1        0.775   6.892  -5.077  0.00  0.00    -0.110 A 
ATOM     11  C   LIG    1       -0.481   7.365  -5.462  0.00  0.00    +0.050 A 
ATOM     12  C   LIG    1       -0.636   8.682  -5.793  0.00  0.00    -0.030 A 
ATOM     13  C   LIG    1        0.444   9.553  -5.749  0.00  0.00    +0.020 A 
ATOM     14  C   LIG    1        1.690   9.107  -5.366  0.00  0.00    -0.010 A 
ATOM     15  C   LIG    1        1.869   7.772  -5.020  0.00  0.00    +0.100 A 
ATOM     16  C   LIG    1        3.550   4.631  -4.031  0.00  0.00    +0.370 C 
ATOM     17  N   LIG    1        2.860   4.191  -1.385  0.00  0.00    -0.740 N 
ATOM     18  H   LIG    1        2.311   3.873  -2.118  0.00  0.00    +0.400 HD
ENDROOT
BRANCH  17  19
ATOM     19  C   LIG    1        2.454   3.935  -0.001  0.00  0.00    +0.340 C 
BRANCH  19  20
ATOM     20  C   LIG    1        1.158   3.165   0.008  0.00  0.00    -0.080 A 
ATOM     21  C   LIG    1        1.175   1.783   0.000  0.00  0.00    +0.020 A 
ATOM     22  C   LIG    1       -0.013   1.076   0.008  0.00  0.00    +0.080 A 
ATOM     23  C   LIG    1       -1.219   1.750   0.017  0.00  0.00    -0.120 A 
ATOM     24  C   LIG    1       -1.237   3.135   0.031  0.00  0.00    +0.100 A 
ATOM     25  F   LIG    1       -2.416   3.795   0.045  0.00  0.00    -0.140 F 
ATOM     26  C   LIG    1       -0.047   3.842   0.023  0.00  0.00    +0.010 A 
BRANCH  23  27
ATOM     27  C   LIG    1       -2.513   0.979   0.019  0.00  0.00    +0.260 C 
BRANCH  27  28
ATOM     28  O   LIG    1       -2.233  -0.422   0.010  0.00  0.00    -0.570 OA
ATOM     29  H   LIG    1       -3.022  -0.981   0.011  0.00  0.00    +0.390 HD
ENDBRANCH  27  28
ENDBRANCH  23  27
ENDBRANCH  19  20
ENDBRANCH  17  19
TORSDOF 4
