REMARK  Name = ZINCpk00001AZiG7.0
REMARK                            x       y       z     vdW  Elec       q    Type
REMARK                         _______ _______ _______ _____ _____    ______ ____
ROOT
ATOM      1  C   LIG    1       -2.447  -0.463   0.504  0.00  0.00    +0.350 C 
ENDROOT
BRANCH   1   2
ATOM      2  C   LIG    1       -1.021  -0.853   0.209  0.00  0.00    -0.250 A 
ATOM      3  C   LIG    1        0.007  -0.008   0.005  0.00  0.00    +0.090 A 
ATOM      4  C   LIG    1       -0.017   1.502   0.015  0.00  0.00    +0.390 C 
ATOM      5  N   LIG    1        1.386   1.956  -0.000  0.00  0.00    -0.620 N 
ATOM      6  C   LIG    1        2.324   1.269  -0.901  0.00  0.00    +0.310 C 
ATOM      7  C   LIG    1        2.453  -0.197  -0.473  0.00  0.00    +0.320 C 
ATOM      8  C   LIG    1        1.797   2.970   0.787  0.00  0.00    +0.560 C 
ATOM      9  O   LIG    1        2.975   3.267   0.832  0.00  0.00    -0.530 OA
ATOM     10  N   LIG    1        1.118  -0.746  -0.221  0.00  0.00    -0.360 N 
ATOM     11  N   LIG    1        0.754  -2.094  -0.163  0.00  0.00    -0.280 NA
ATOM     12  C   LIG    1       -0.528  -2.159   0.097  0.00  0.00    +0.260 A 
BRANCH   8  13
ATOM     13  C   LIG    1        0.819   3.717   1.594  0.00  0.00    -0.100 C 
ATOM     14  C   LIG    1        1.208   4.778   2.295  0.00  0.00    +0.160 C 
ENDBRANCH   8  13
ENDBRANCH   1   2
BRANCH   1  16
ATOM     15  C   LIG    1       -4.411   0.292  -0.724  0.00  0.00    +0.520 C 
ATOM     16  N   LIG    1       -3.120  -0.094  -0.744  0.00  0.00    -0.730 N 
ATOM     17  H   LIG    1       -2.637  -0.128  -1.584  0.00  0.00    +0.400 HD
ATOM     18  O   LIG    1       -5.016   0.334   0.327  0.00  0.00    -0.540 OA
BRANCH  15  22
ATOM     19  C   LIG    1       -6.526   2.634  -3.654  0.00  0.00    +0.110 C 
ATOM     20  C   LIG    1       -7.255   1.452  -3.010  0.00  0.00    +0.030 C 
ATOM     21  C   LIG    1       -6.552   1.067  -1.707  0.00  0.00    +0.050 C 
ATOM     22  C   LIG    1       -5.104   0.671  -2.007  0.00  0.00    -0.010 C 
ATOM     23  C   LIG    1       -4.375   1.853  -2.650  0.00  0.00    +0.030 C 
ATOM     24  C   LIG    1       -5.079   2.238  -3.953  0.00  0.00    +0.030 C 
BRANCH  19  26
ATOM     25  C   LIG    1       -7.743   3.300  -5.907  0.00  0.00    +0.010 C 
ATOM     26  C   LIG    1       -7.203   3.004  -4.907  0.00  0.00    -0.190 C 
ENDBRANCH  19  26
ENDBRANCH  15  22
ENDBRANCH   1  16
TORSDOF 5
