REMARK  Name = ZINCbu0000000GKV.0
REMARK                            x       y       z     vdW  Elec       q    Type
REMARK                         _______ _______ _______ _____ _____    ______ ____
ROOT
ATOM      1  C   LIG    1        0.000   1.080   2.488  0.00  0.00    -0.080 A 
ATOM      2  C   LIG    1       -0.347  -0.133   3.052  0.00  0.00    +0.040 A 
ATOM      3  C   LIG    1        0.325  -0.594   4.170  0.00  0.00    -0.020 A 
ATOM      4  C   LIG    1        1.337   0.164   4.730  0.00  0.00    +0.060 A 
ATOM      5  C   LIG    1        1.681   1.381   4.168  0.00  0.00    -0.020 A 
ATOM      6 CL   LIG    1        2.951   2.333   4.870  0.00  0.00    -0.040 Cl
ATOM      7 CL   LIG    1       -0.107  -2.121   4.874  0.00  0.00    -0.040 Cl
ATOM      8  C   LIG    1        1.012   1.838   3.046  0.00  0.00    +0.040 A 
ENDROOT
BRANCH   1   9
ATOM      9  C   LIG    1       -0.729   1.579   1.267  0.00  0.00    +0.100 C 
BRANCH   9  10
ATOM     10  C   LIG    1       -0.013   1.086   0.008  0.00  0.00    +0.270 C 
BRANCH  10  11
ATOM     11  N   LIG    1       -0.723   1.572  -1.182  0.00  0.00    -0.640 N 
ATOM     12  H   LIG    1       -0.251   1.247  -2.012  0.00  0.00    +0.440 HD
ATOM     13  H   LIG    1       -0.737   2.581  -1.177  0.00  0.00    +0.440 HD
ATOM     14  H   LIG    1       -1.670   1.223  -1.175  0.00  0.00    +0.440 HD
ENDBRANCH  10  11
ENDBRANCH   9  10
ENDBRANCH   1   9
TORSDOF 3
