REMARK  Name = ZINCpe00000MJIQ6.0
REMARK                            x       y       z     vdW  Elec       q    Type
REMARK                         _______ _______ _______ _____ _____    ______ ____
ROOT
ATOM      1  C   LIG    1       -0.438   1.372  -5.041  0.00  0.00    +0.530 C 
ATOM      2  N   LIG    1       -1.029   1.776  -6.183  0.00  0.00    -0.610 N 
ATOM      3  C   LIG    1       -2.243   2.603  -6.145  0.00  0.00    +0.270 C 
ATOM      4  C   LIG    1       -3.326   1.936  -6.991  0.00  0.00    +0.050 C 
ATOM      5  C   LIG    1       -2.784   1.679  -8.399  0.00  0.00    +0.040 C 
ATOM      6  C   LIG    1       -1.581   0.736  -8.320  0.00  0.00    +0.260 C 
ATOM      7  C   LIG    1       -0.475   1.394  -7.489  0.00  0.00    +0.290 C 
ATOM      8  O   LIG    1        0.561   0.686  -5.086  0.00  0.00    -0.520 OA
ENDROOT
BRANCH   6   9
ATOM      9  N   LIG    1       -1.082   0.466  -9.671  0.00  0.00    -0.290 N 
ATOM     10  C   LIG    1       -1.071   1.339 -10.695  0.00  0.00    +0.430 A 
ATOM     11  N   LIG    1       -0.551   0.730 -11.730  0.00  0.00    -0.480 NA
ATOM     12  C   LIG    1       -0.241  -0.521 -11.343  0.00  0.00    +0.140 A 
ATOM     13  N   LIG    1       -0.574  -0.647 -10.077  0.00  0.00    -0.240 NA
BRANCH  12  14
ATOM     14  C   LIG    1        0.371  -1.567 -12.190  0.00  0.00    +0.620 C 
ATOM     15  O   LIG    1        0.605  -2.666 -11.725  0.00  0.00    -0.520 OA
ATOM     16  N   LIG    1        0.669  -1.303 -13.477  0.00  0.00    -0.830 N 
ATOM     17  H   LIG    1        1.070  -1.989 -14.033  0.00  0.00    +0.410 HD
ATOM     18  H   LIG    1        0.482  -0.427 -13.848  0.00  0.00    +0.410 HD
ENDBRANCH  12  14
ENDBRANCH   6   9
BRANCH   1  19
ATOM     19  C   LIG    1       -1.018   1.772  -3.709  0.00  0.00    +0.050 C 
BRANCH  19  20
ATOM     20  C   LIG    1       -0.163   1.186  -2.584  0.00  0.00    +0.130 C 
BRANCH  20  21
ATOM     21  C   LIG    1       -0.753   1.593  -1.232  0.00  0.00    +0.040 C 
ATOM     22  N   LIG    1       -1.492   2.854  -1.140  0.00  0.00    -0.120 NA
ATOM     23  N   LIG    1       -2.195   1.831  -1.138  0.00  0.00    -0.120 NA
BRANCH  21  24
ATOM     24  C   LIG    1       -0.013   1.086   0.008  0.00  0.00    +0.120 C 
BRANCH  24  25
ATOM     25  C   LIG    1       -0.729   1.579   1.267  0.00  0.00    +0.160 C 
BRANCH  25  27
ATOM     26  C   LIG    1        0.551   0.703   3.410  0.00  0.00    +0.030 C 
ATOM     27  C   LIG    1       -0.017   1.092   2.459  0.00  0.00    -0.200 C 
ENDBRANCH  25  27
ENDBRANCH  24  25
ENDBRANCH  21  24
ENDBRANCH  20  21
ENDBRANCH  19  20
ENDBRANCH   1  19
TORSDOF 8
