REMARK  Name = ZINCpe000000UpC7.0
REMARK                            x       y       z     vdW  Elec       q    Type
REMARK                         _______ _______ _______ _____ _____    ______ ____
ROOT
ATOM      1  C   LIG    1       -1.270   3.484  -0.185  0.00  0.00    +0.240 C 
ATOM      2  C   LIG    1       -1.950   3.508  -1.556  0.00  0.00    +0.040 C 
ATOM      3  C   LIG    1       -2.890   4.715  -1.632  0.00  0.00    +0.010 C 
ATOM      4  C   LIG    1       -3.912   4.628  -0.496  0.00  0.00    +0.020 C 
ATOM      5  C   LIG    1       -3.175   4.572   0.844  0.00  0.00    +0.180 C 
ATOM      6  N   LIG    1       -2.290   3.400   0.868  0.00  0.00    -0.520 NA
ENDROOT
BRANCH   1  12
ATOM      7  C   LIG    1        1.052   2.309  -0.178  0.00  0.00    -0.290 A 
ATOM      8  C   LIG    1        1.488   1.006  -0.053  0.00  0.00    +0.290 A 
ATOM      9  N   LIG    1        0.402   0.231   0.096  0.00  0.00    -0.460 N 
ATOM     10  H   LIG    1        0.403  -0.733   0.205  0.00  0.00    +0.450 HD
ATOM     11  N   LIG    1       -0.734   1.048   0.059  0.00  0.00    -0.260 NA
ATOM     12  C   LIG    1       -0.359   2.287  -0.098  0.00  0.00    +0.130 A 
BRANCH   7  15
ATOM     13  C   LIG    1        3.877   4.820   0.174  0.00  0.00    +0.290 C 
ATOM     14  N   LIG    1        3.074   3.600   0.291  0.00  0.00    -0.620 N 
ATOM     15  C   LIG    1        1.899   3.502  -0.361  0.00  0.00    +0.590 C 
ATOM     16  O   LIG    1        1.538   4.396  -1.102  0.00  0.00    -0.530 OA
ATOM     17  C   LIG    1        3.548   2.488   1.118  0.00  0.00    +0.280 C 
ENDBRANCH   7  15
ENDBRANCH   1  12
BRANCH   6  18
ATOM     18  C   LIG    1       -1.670   3.235   2.190  0.00  0.00    +0.150 C 
BRANCH  18  19
ATOM     19  C   LIG    1       -2.712   2.710   3.179  0.00  0.00    +0.220 C 
BRANCH  19  20
ATOM     20  O   LIG    1       -3.716   3.706   3.388  0.00  0.00    -0.530 OA
ATOM     21  H   LIG    1       -3.377   4.538   3.745  0.00  0.00    +0.370 HD
ENDBRANCH  19  20
BRANCH  19  22
ATOM     22  C   LIG    1       -2.032   2.385   4.511  0.00  0.00    +0.290 C 
BRANCH  22  23
ATOM     23  N   LIG    1       -3.005   1.771   5.419  0.00  0.00    -0.370 N 
ATOM     24  C   LIG    1       -2.871   0.579   6.037  0.00  0.00    +0.210 A 
ATOM     25  C   LIG    1       -3.979   0.377   6.787  0.00  0.00    -0.120 A 
ATOM     26  C   LIG    1       -4.823   1.479   6.613  0.00  0.00    +0.220 A 
ATOM     27  N   LIG    1       -4.240   2.316   5.794  0.00  0.00    -0.270 NA
ENDBRANCH  22  23
ENDBRANCH  19  22
ENDBRANCH  18  19
ENDBRANCH   6  18
TORSDOF 7
