REMARK  Name = ZINCqH0000032IzR.0
REMARK                            x       y       z     vdW  Elec       q    Type
REMARK                         _______ _______ _______ _____ _____    ______ ____
ROOT
ATOM      1  C   LIG    1        0.559   8.704  -2.036  0.00  0.00    +0.030 C 
ATOM      2  C   LIG    1        0.813   8.011  -0.696  0.00  0.00    -0.020 C 
ATOM      3  C   LIG    1       -0.340   7.052  -0.392  0.00  0.00    +0.030 C 
ATOM      4  C   LIG    1       -0.091   6.368   0.955  0.00  0.00    +0.050 C 
ATOM      5  C   LIG    1        1.228   5.605   0.905  0.00  0.00    +0.120 C 
ATOM      6  N   LIG    1        1.471   4.914   2.178  0.00  0.00    -0.720 N 
ATOM      7  H   LIG    1        1.575   5.325   3.050  0.00  0.00    +0.440 HD
ATOM      8  C   LIG    1        1.522   3.599   1.894  0.00  0.00    +0.710 C 
ATOM      9  N   LIG    1        1.341   3.350   0.591  0.00  0.00    -0.570 N 
ATOM     10  O   LIG    1        1.711   2.734   2.727  0.00  0.00    -0.540 OA
ATOM     11  C   LIG    1        2.384   6.544   0.578  0.00  0.00    +0.050 C 
ATOM     12  C   LIG    1        1.159   4.488  -0.111  0.00  0.00    +0.540 C 
ATOM     13  O   LIG    1        0.976   4.592  -1.305  0.00  0.00    -0.460 OA
ATOM     14  C   LIG    1        2.125   7.227  -0.768  0.00  0.00    +0.030 C 
ENDROOT
BRANCH   9  15
ATOM     15  C   LIG    1        1.346   2.010   0.000  0.00  0.00    +0.480 C 
BRANCH  15  16
ATOM     16  N   LIG    1       -0.018   1.465   0.010  0.00  0.00    -0.550 NA
ATOM     17  C   LIG    1       -0.802   1.987  -1.117  0.00  0.00    +0.200 C 
BRANCH  16  18
ATOM     18  C   LIG    1        0.002  -0.004   0.002  0.00  0.00    +0.240 C 
BRANCH  18  19
ATOM     19  C   LIG    1       -1.388  -0.527   0.259  0.00  0.00    -0.090 A 
ATOM     20  C   LIG    1       -1.804  -0.775   1.554  0.00  0.00    +0.030 A 
ATOM     21  C   LIG    1       -3.081  -1.250   1.790  0.00  0.00    +0.000 A 
ATOM     22  C   LIG    1       -3.937  -1.486   0.731  0.00  0.00    -0.070 A 
ATOM     23  C   LIG    1       -3.519  -1.243  -0.564  0.00  0.00    +0.000 A 
ATOM     24  C   LIG    1       -2.244  -0.763  -0.800  0.00  0.00    +0.010 A 
BRANCH  22  25
ATOM     25  C   LIG    1       -5.327  -2.010   0.988  0.00  0.00    +0.020 C 
ATOM     26  C   LIG    1       -6.091  -1.018   1.867  0.00  0.00    +0.040 C 
ATOM     27  C   LIG    1       -5.239  -3.361   1.702  0.00  0.00    +0.040 C 
ENDBRANCH  22  25
ENDBRANCH  18  19
ENDBRANCH  16  18
ENDBRANCH  15  16
ENDBRANCH   9  15
TORSDOF 5
