REMARK  Name = ZINCvU00000007CV.0
REMARK                            x       y       z     vdW  Elec       q    Type
REMARK                         _______ _______ _______ _____ _____    ______ ____
ROOT
ATOM      1  C   LIG    1        3.149   3.411   0.061  0.00  0.00    +0.530 C 
ATOM      2  O   LIG    1        3.257   4.015  -0.988  0.00  0.00    -0.480 OA
ENDROOT
BRANCH   1   3
ATOM      3  C   LIG    1        2.958   1.945   0.053  0.00  0.00    -0.060 A 
ATOM      4  C   LIG    1        4.053   1.082   0.084  0.00  0.00    -0.070 A 
ATOM      5  C   LIG    1        5.427   1.697   0.117  0.00  0.00    +0.080 C 
ATOM      6  C   LIG    1        6.462   0.673   0.577  0.00  0.00    +0.030 C 
ATOM      7  C   LIG    1        6.297  -0.595  -0.270  0.00  0.00    +0.030 C 
ATOM      8  C   LIG    1        4.989  -1.274   0.127  0.00  0.00    +0.110 C 
ATOM      9  C   LIG    1        3.845  -0.291   0.079  0.00  0.00    +0.170 A 
ATOM     10  N   LIG    1        2.625  -0.792   0.041  0.00  0.00    -0.460 NA
ATOM     11  C   LIG    1        1.534  -0.030   0.009  0.00  0.00    +0.140 A 
ATOM     12  C   LIG    1        0.248  -0.599  -0.029  0.00  0.00    +0.060 A 
ATOM     13  C   LIG    1       -0.847   0.209  -0.058  0.00  0.00    +0.040 A 
ATOM     14  C   LIG    1       -0.718   1.596  -0.051  0.00  0.00    +0.030 A 
ATOM     15  C   LIG    1        0.512   2.182  -0.015  0.00  0.00    +0.010 A 
ATOM     16  C   LIG    1        1.660   1.382   0.016  0.00  0.00    -0.070 A 
ENDBRANCH   1   3
BRANCH   1  17
ATOM     17  O   LIG    1        3.202   4.077   1.230  0.00  0.00    -0.330 OA
BRANCH  17  18
ATOM     18  C   LIG    1        3.390   5.515   1.162  0.00  0.00    +0.310 C 
BRANCH  18  19
ATOM     19  C   LIG    1        3.425   6.085   2.557  0.00  0.00    +0.460 C 
ATOM     20  O   LIG    1        3.303   5.353   3.511  0.00  0.00    -0.480 OA
BRANCH  19  21
ATOM     21  O   LIG    1        3.591   7.404   2.739  0.00  0.00    -0.330 OA
BRANCH  21  28
ATOM     22  C   LIG    1        4.500   9.126   4.202  0.00  0.00    +0.010 C 
ATOM     23  C   LIG    1        3.941  10.219   3.290  0.00  0.00    +0.030 C 
ATOM     24  C   LIG    1        2.519  10.573   3.731  0.00  0.00    +0.010 C 
ATOM     25  C   LIG    1        1.633   9.329   3.639  0.00  0.00    -0.020 C 
ATOM     26  C   LIG    1        2.192   8.236   4.551  0.00  0.00    +0.020 C 
ATOM     27  C   LIG    1        1.608   8.825   2.194  0.00  0.00    +0.010 C 
ATOM     28  C   LIG    1        3.614   7.882   4.110  0.00  0.00    +0.190 C 
BRANCH  22  30
ATOM     29  C   LIG    1        6.809  10.016   3.853  0.00  0.00    +0.020 C 
ATOM     30  C   LIG    1        5.922   8.772   3.761  0.00  0.00    -0.010 C 
ATOM     31  C   LIG    1        6.482   7.678   4.673  0.00  0.00    +0.020 C 
ENDBRANCH  22  30
ENDBRANCH  21  28
ENDBRANCH  19  21
ENDBRANCH  18  19
ENDBRANCH  17  18
ENDBRANCH   1  17
TORSDOF 7
