REMARK  Name = ZINCpk00000xKyut.0
REMARK                            x       y       z     vdW  Elec       q    Type
REMARK                         _______ _______ _______ _____ _____    ______ ____
ROOT
ATOM      1  N   LIG    1        2.589   2.858  -2.124  0.00  0.00    -0.690 N 
ATOM      2  H   LIG    1        2.073   3.473  -1.580  0.00  0.00    +0.410 HD
ATOM      3  C   LIG    1        2.592   2.984  -3.466  0.00  0.00    +0.510 C 
ATOM      4  O   LIG    1        3.238   2.215  -4.147  0.00  0.00    -0.510 OA
ENDROOT
BRANCH   3   5
ATOM      5  C   LIG    1        1.798   4.071  -4.116  0.00  0.00    +0.500 C 
ATOM      6  N   LIG    1        1.893   4.271  -5.446  0.00  0.00    -0.590 N 
ATOM      7  C   LIG    1        2.710   3.374  -6.265  0.00  0.00    +0.300 C 
ATOM      8  O   LIG    1        1.070   4.773  -3.447  0.00  0.00    -0.510 OA
BRANCH   6   9
ATOM      9  C   LIG    1        1.177   5.386  -6.071  0.00  0.00    +0.280 C 
BRANCH   9  10
ATOM     10  C   LIG    1        2.073   6.627  -6.079  0.00  0.00    +0.280 C 
BRANCH  10  11
ATOM     11  N   LIG    1        1.358   7.742  -6.704  0.00  0.00    -0.620 N 
ATOM     12  C   LIG    1        1.397   8.051  -8.138  0.00  0.00    +0.250 C 
ATOM     13  C   LIG    1        0.191   8.986  -8.390  0.00  0.00    +0.040 C 
ATOM     14  C   LIG    1       -0.004   9.627  -6.996  0.00  0.00    +0.050 C 
ATOM     15  C   LIG    1        0.586   8.617  -6.037  0.00  0.00    +0.510 C 
ATOM     16  O   LIG    1        0.390   8.599  -4.840  0.00  0.00    -0.520 OA
ENDBRANCH  10  11
ENDBRANCH   9  10
ENDBRANCH   6   9
ENDBRANCH   3   5
BRANCH   1  18
ATOM     17  C   LIG    1        4.811   2.260  -1.294  0.00  0.00    +0.020 C 
ATOM     18  C   LIG    1        3.367   1.792  -1.487  0.00  0.00    +0.250 C 
BRANCH  18  19
ATOM     19  C   LIG    1        2.753   1.456  -0.127  0.00  0.00    +0.100 C 
BRANCH  19  20
ATOM     20  C   LIG    1        1.375   0.880  -0.326  0.00  0.00    -0.070 A 
ATOM     21  C   LIG    1        1.212  -0.484  -0.476  0.00  0.00    +0.020 A 
ATOM     22  C   LIG    1       -0.052  -1.014  -0.660  0.00  0.00    +0.030 A 
ATOM     23  C   LIG    1       -1.153  -0.179  -0.692  0.00  0.00    +0.020 A 
ATOM     24  C   LIG    1       -0.990   1.186  -0.541  0.00  0.00    -0.030 A 
ATOM     25 CL   LIG    1       -2.372   2.236  -0.589  0.00  0.00    -0.070 Cl
ATOM     26  C   LIG    1        0.275   1.716  -0.357  0.00  0.00    +0.020 A 
ENDBRANCH  19  20
ENDBRANCH  18  19
ENDBRANCH   1  18
TORSDOF 7
