REMARK  Name = ZINCvU0000000IAF.0
REMARK                            x       y       z     vdW  Elec       q    Type
REMARK                         _______ _______ _______ _____ _____    ______ ____
ROOT
ATOM      1  N   LIG    1       -1.191   1.867   0.018  0.00  0.00    -0.610 N 
ATOM      2  H   LIG    1       -1.204   2.836   0.023  0.00  0.00    +0.440 HD
ATOM      3  C   LIG    1       -0.014   1.209   0.009  0.00  0.00    +0.520 C 
ATOM      4  O   LIG    1        0.002  -0.004   0.002  0.00  0.00    -0.490 OA
ENDROOT
BRANCH   1   6
ATOM      5  C   LIG    1       -3.632   1.726   0.034  0.00  0.00    -0.210 A 
ATOM      6  C   LIG    1       -2.380   1.158   0.020  0.00  0.00    +0.070 A 
ATOM      7  S   LIG    1       -2.500  -0.544   0.012  0.00  0.00    +0.350 S 
ATOM      8  C   LIG    1       -4.255  -0.481   0.021  0.00  0.00    -0.220 A 
ATOM      9  C   LIG    1       -4.672   0.793   0.030  0.00  0.00    +0.100 A 
BRANCH   8  10
ATOM     10  C   LIG    1       -5.144  -1.662   0.019  0.00  0.00    -0.010 A 
ATOM     11  C   LIG    1       -6.530  -1.496   0.032  0.00  0.00    +0.020 A 
ATOM     12  C   LIG    1       -7.353  -2.603   0.025  0.00  0.00    +0.020 A 
ATOM     13  C   LIG    1       -6.809  -3.875   0.016  0.00  0.00    +0.000 A 
ATOM     14  C   LIG    1       -5.436  -4.046   0.008  0.00  0.00    +0.020 A 
ATOM     15  C   LIG    1       -4.601  -2.948   0.009  0.00  0.00    +0.000 A 
ENDBRANCH   8  10
BRANCH   5  16
ATOM     16  C   LIG    1       -3.854   3.175   0.050  0.00  0.00    +0.540 C 
ATOM     17  O   LIG    1       -2.905   3.936   0.050  0.00  0.00    -0.530 OA
BRANCH  16  19
ATOM     18  C   LIG    1       -5.256   5.108   0.079  0.00  0.00    +0.290 C 
ATOM     19  O   LIG    1       -5.111   3.664   0.064  0.00  0.00    -0.350 OA
ENDBRANCH  16  19
ENDBRANCH   5  16
ENDBRANCH   1   6
BRANCH   3  20
ATOM     20  C   LIG    1        1.280   1.980   0.001  0.00  0.00    +0.110 C 
BRANCH  20  21
ATOM     21  S   LIG    1        2.672   0.822  -0.019  0.00  0.00    +0.080 S 
BRANCH  21  22
ATOM     22  C   LIG    1        4.017   1.961  -0.026  0.00  0.00    +0.190 A 
ATOM     23  C   LIG    1        5.357   1.494  -0.035  0.00  0.00    -0.150 A 
ATOM     24  C   LIG    1        6.375   2.451  -0.046  0.00  0.00    +0.100 A 
ATOM     25  S   LIG    1        7.938   1.650  -0.065  0.00  0.00    +0.180 S 
ATOM     26  C   LIG    1        7.199   0.060  -0.050  0.00  0.00    -0.170 A 
ATOM     27  C   LIG    1        7.969  -1.236  -0.057  0.00  0.00    +0.160 C 
ATOM     28  N   LIG    1        6.047   3.750  -0.036  0.00  0.00    -0.490 NA
ATOM     29  C   LIG    1        4.791   4.132  -0.022  0.00  0.00    +0.540 A 
ATOM     30  C   LIG    1        5.882   0.142  -0.041  0.00  0.00    -0.080 A 
ATOM     31  C   LIG    1        4.993  -1.075  -0.037  0.00  0.00    +0.140 C 
ATOM     32  N   LIG    1        3.793   3.268  -0.017  0.00  0.00    -0.530 NA
ENDBRANCH  21  22
ENDBRANCH  20  21
ENDBRANCH   3  20
TORSDOF 7
