REMARK  Name = ZINCpe000000VYiQ.0
REMARK                            x       y       z     vdW  Elec       q    Type
REMARK                         _______ _______ _______ _____ _____    ______ ____
ROOT
ATOM      1  N   LIG    1        2.953   3.500   1.762  0.00  0.00    -0.730 N 
ATOM      2  H   LIG    1        2.592   3.925   0.968  0.00  0.00    +0.400 HD
ATOM      3  C   LIG    1        2.664   2.210   2.025  0.00  0.00    +0.710 C 
ATOM      4  N   LIG    1        1.944   1.487   1.144  0.00  0.00    -0.630 N 
ATOM      5  C   LIG    1        1.371   2.114  -0.057  0.00  0.00    +0.280 C 
ATOM      6  C   LIG    1       -0.118   1.760  -0.127  0.00  0.00    +0.210 C 
ATOM      7  N   LIG    1       -0.276   0.302  -0.052  0.00  0.00    -0.470 N 
ATOM      8  C   LIG    1        0.208  -0.221   1.233  0.00  0.00    +0.210 C 
ATOM      9  C   LIG    1        1.710   0.051   1.359  0.00  0.00    +0.320 C 
ATOM     10  O   LIG    1        3.054   1.698   3.057  0.00  0.00    -0.590 OA
ENDROOT
BRANCH   7  11
ATOM     11  C   LIG    1       -1.593  -0.067  -0.274  0.00  0.00    +0.360 A 
ATOM     12  C   LIG    1       -1.966  -1.412  -0.248  0.00  0.00    -0.100 A 
ATOM     13  C   LIG    1       -3.291  -1.729  -0.476  0.00  0.00    +0.340 A 
ATOM     14  N   LIG    1       -4.158  -0.754  -0.709  0.00  0.00    -0.540 NA
ATOM     15  C   LIG    1       -3.774   0.507  -0.727  0.00  0.00    +0.340 A 
ATOM     16  C   LIG    1       -4.796   1.580  -0.997  0.00  0.00    +0.180 C 
ATOM     17  N   LIG    1       -2.522   0.854  -0.510  0.00  0.00    -0.560 NA
ENDBRANCH   7  11
BRANCH   1  18
ATOM     18  C   LIG    1        3.811   4.259   2.675  0.00  0.00    +0.280 C 
BRANCH  18  19
ATOM     19  C   LIG    1        5.233   4.310   2.114  0.00  0.00    +0.140 C 
ATOM     20  C   LIG    1        5.806   2.884   2.008  0.00  0.00    +0.000 C 
ATOM     21  C   LIG    1        6.151   2.723   0.508  0.00  0.00    +0.000 C 
ATOM     22  C   LIG    1        6.256   4.197   0.039  0.00  0.00    +0.190 C 
ATOM     23  O   LIG    1        5.216   4.866   0.788  0.00  0.00    -0.340 OA
ENDBRANCH  18  19
BRANCH  18  24
ATOM     24  C   LIG    1        3.268   5.683   2.819  0.00  0.00    +0.160 C 
BRANCH  24  26
ATOM     25  C   LIG    1        2.878   7.702   1.588  0.00  0.00    +0.200 C 
ATOM     26  O   LIG    1        3.361   6.358   1.563  0.00  0.00    -0.360 OA
ENDBRANCH  24  26
ENDBRANCH  18  24
ENDBRANCH   1  18
TORSDOF 5
