REMARK  Name = ZINCrg00000J1Lw9.0
REMARK                            x       y       z     vdW  Elec       q    Type
REMARK                         _______ _______ _______ _____ _____    ______ ____
ROOT
ATOM      1  O   LIG    1       -1.542   1.145   3.227  0.00  0.00    -0.580 OA
ATOM      2  C   LIG    1       -1.049   0.717   2.202  0.00  0.00    +0.710 C 
ATOM      3  N   LIG    1       -0.713   1.565   1.210  0.00  0.00    -0.630 N 
ATOM      4  C   LIG    1       -1.034   2.999   1.299  0.00  0.00    +0.280 C 
ATOM      5  C   LIG    1       -1.738   3.418   0.003  0.00  0.00    +0.230 C 
ATOM      6  O   LIG    1       -0.946   3.013  -1.116  0.00  0.00    -0.360 OA
ATOM      7  C   LIG    1       -0.770   1.598  -1.226  0.00  0.00    +0.220 C 
ATOM      8  C   LIG    1       -0.016   1.085   0.006  0.00  0.00    +0.270 C 
ATOM      9  N   LIG    1       -0.838  -0.607   2.057  0.00  0.00    -0.750 N 
ATOM     10  H   LIG    1       -0.378  -0.941   1.271  0.00  0.00    +0.390 HD
ENDROOT
BRANCH   7  11
ATOM     11  C   LIG    1        0.025   1.285  -2.468  0.00  0.00    +0.200 A 
ATOM     12  C   LIG    1       -0.551   0.572  -3.508  0.00  0.00    -0.090 A 
ATOM     13  C   LIG    1        0.214   0.306  -4.632  0.00  0.00    +0.350 A 
ATOM     14  N   LIG    1        1.463   0.738  -4.680  0.00  0.00    -0.550 NA
ATOM     15  C   LIG    1        1.984   1.417  -3.668  0.00  0.00    +0.490 A 
ATOM     16  N   LIG    1        1.278   1.692  -2.581  0.00  0.00    -0.500 NA
BRANCH  15  17
ATOM     17  N   LIG    1        3.295   1.853  -3.751  0.00  0.00    -0.450 N 
ATOM     18  C   LIG    1        4.131   1.230  -2.693  0.00  0.00    +0.200 C 
ATOM     19  C   LIG    1        5.572   1.391  -3.240  0.00  0.00    +0.030 C 
ATOM     20  C   LIG    1        5.393   1.162  -4.758  0.00  0.00    +0.020 C 
ATOM     21  C   LIG    1        3.907   1.453  -5.036  0.00  0.00    +0.220 C 
ENDBRANCH  15  17
ENDBRANCH   7  11
BRANCH   9  22
ATOM     22  C   LIG    1       -1.304  -1.540   3.086  0.00  0.00    +0.290 C 
BRANCH  22  23
ATOM     23  C   LIG    1       -0.940  -2.970   2.680  0.00  0.00    +0.320 C 
BRANCH  23  24
ATOM     24  N   LIG    1       -1.406  -3.903   3.709  0.00  0.00    -0.380 N 
ATOM     25  C   LIG    1       -2.217  -4.963   3.510  0.00  0.00    +0.220 A 
ATOM     26  C   LIG    1       -2.406  -5.567   4.706  0.00  0.00    -0.120 A 
ATOM     27  C   LIG    1       -1.693  -4.846   5.670  0.00  0.00    +0.240 A 
ATOM     28  N   LIG    1       -1.093  -3.848   5.073  0.00  0.00    -0.290 NA
ENDBRANCH  23  24
ENDBRANCH  22  23
ENDBRANCH   9  22
TORSDOF 5
