REMARK  Name = ZINCvU00000007vc.0
REMARK                            x       y       z     vdW  Elec       q    Type
REMARK                         _______ _______ _______ _____ _____    ______ ____
ROOT
ATOM      1  C   LIG    1       -1.239   3.160   0.040  0.00  0.00    +0.180 A 
ATOM      2  C   LIG    1       -0.039   3.855   0.043  0.00  0.00    -0.080 A 
ATOM      3  C   LIG    1        1.159   3.167   0.034  0.00  0.00    +0.080 A 
ATOM      4  C   LIG    1        1.172   1.782   0.024  0.00  0.00    -0.030 A 
ATOM      5  C   LIG    1       -0.012   1.076   0.022  0.00  0.00    +0.080 A 
ATOM      6  C   LIG    1       -1.230   1.759   0.024  0.00  0.00    -0.170 A 
ENDROOT
BRANCH   6   7
ATOM      7  C   LIG    1       -2.501   1.009   0.015  0.00  0.00    +0.560 C 
ATOM      8  N   LIG    1       -2.488  -0.339   0.005  0.00  0.00    -0.730 N 
ATOM      9  H   LIG    1       -1.643  -0.816   0.004  0.00  0.00    +0.400 HD
ATOM     10  O   LIG    1       -3.560   1.607   0.018  0.00  0.00    -0.500 OA
BRANCH   8  11
ATOM     11  C   LIG    1       -3.750  -1.083  -0.003  0.00  0.00    +0.240 C 
ATOM     12  C   LIG    1       -4.250  -1.223  -1.443  0.00  0.00    +0.020 C 
ATOM     13  C   LIG    1       -5.567  -2.001  -1.452  0.00  0.00    +0.040 C 
ATOM     14  C   LIG    1       -5.343  -3.390  -0.852  0.00  0.00    +0.040 C 
ATOM     15  C   LIG    1       -4.844  -3.250   0.587  0.00  0.00    -0.010 C 
ATOM     16  C   LIG    1       -3.526  -2.473   0.596  0.00  0.00    +0.030 C 
BRANCH  15  17
ATOM     17  C   LIG    1       -4.620  -4.640   1.187  0.00  0.00    +0.450 C 
ATOM     18  F   LIG    1       -3.667  -5.328   0.427  0.00  0.00    -0.180 F 
ATOM     19  F   LIG    1       -5.825  -5.351   1.179  0.00  0.00    -0.180 F 
ATOM     20  F   LIG    1       -4.163  -4.512   2.503  0.00  0.00    -0.180 F 
ENDBRANCH  15  17
ENDBRANCH   8  11
ENDBRANCH   6   7
BRANCH   1  21
ATOM     21  O   LIG    1       -2.416   3.835   0.047  0.00  0.00    -0.250 OA
BRANCH  21  22
ATOM     22  C   LIG    1       -2.346   5.262   0.057  0.00  0.00    +0.240 C 
BRANCH  22  24
ATOM     23  O   LIG    1       -4.700   5.091   0.060  0.00  0.00    -0.480 OA
ATOM     24  C   LIG    1       -3.741   5.833   0.064  0.00  0.00    +0.510 C 
ATOM     25  N   LIG    1       -3.922   7.168   0.074  0.00  0.00    -0.670 N 
ATOM     26  H   LIG    1       -3.158   7.761   0.145  0.00  0.00    +0.410 HD
BRANCH  25  27
ATOM     27  C   LIG    1       -5.214   7.700  -0.017  0.00  0.00    +0.160 A 
ATOM     28  C   LIG    1       -5.430   8.889  -0.701  0.00  0.00    +0.000 A 
ATOM     29  C   LIG    1       -6.706   9.408  -0.794  0.00  0.00    +0.070 A 
ATOM     30  C   LIG    1       -7.767   8.751  -0.198  0.00  0.00    -0.100 A 
ATOM     31  C   LIG    1       -7.554   7.569   0.489  0.00  0.00    +0.070 A 
ATOM     32 BR   LIG    1       -9.512   9.469  -0.321  0.00  0.00    -0.050 Br
ATOM     33  C   LIG    1       -6.281   7.042   0.580  0.00  0.00    +0.030 A 
ENDBRANCH  25  27
ENDBRANCH  22  24
ENDBRANCH  21  22
ENDBRANCH   1  21
TORSDOF 7
