REMARK  Name = ZINCrg000000oju0.0
REMARK                            x       y       z     vdW  Elec       q    Type
REMARK                         _______ _______ _______ _____ _____    ______ ____
ROOT
ATOM      1  N   LIG    1       -3.187   1.950   5.240  0.00  0.00    -0.610 N 
ATOM      2  C   LIG    1       -2.751   1.202   4.207  0.00  0.00    +0.530 C 
ATOM      3  O   LIG    1       -3.371   0.215   3.870  0.00  0.00    -0.530 OA
ATOM      4  C   LIG    1       -2.439   3.142   5.647  0.00  0.00    +0.280 C 
ENDROOT
BRANCH   2   5
ATOM      5  C   LIG    1       -1.495   1.591   3.471  0.00  0.00    +0.000 C 
ATOM      6  C   LIG    1       -1.646   2.984   2.817  0.00  0.00    +0.080 C 
ATOM      7  C   LIG    1       -0.907   2.858   1.503  0.00  0.00    +0.520 C 
ATOM      8  N   LIG    1       -0.707   1.562   1.207  0.00  0.00    -0.610 N 
ATOM      9  O   LIG    1       -0.546   3.791   0.817  0.00  0.00    -0.510 OA
ATOM     10  C   LIG    1       -1.279   0.686   2.236  0.00  0.00    +0.310 C 
BRANCH   8  11
ATOM     11  C   LIG    1       -0.013   1.086   0.008  0.00  0.00    +0.290 C 
ATOM     12  C   LIG    1        1.429   1.623  -0.003  0.00  0.00    +0.060 C 
ATOM     13  C   LIG    1        1.986   1.371  -1.428  0.00  0.00    -0.310 C 
ATOM     14  S   LIG    1        0.574   1.842  -2.497  0.00  0.00    +2.400 S 
ATOM     15  O   LIG    1        0.424   0.880  -3.531  0.00  0.00    -0.930 OA
ATOM     16  O   LIG    1        0.668   3.223  -2.820  0.00  0.00    -0.920 OA
ATOM     17  C   LIG    1       -0.742   1.601  -1.249  0.00  0.00    -0.330 C 
ENDBRANCH   8  11
ENDBRANCH   2   5
BRANCH   1  18
ATOM     18  C   LIG    1       -4.408   1.572   5.955  0.00  0.00    +0.340 C 
BRANCH  18  22
ATOM     19  C   LIG    1       -3.414  -1.034   9.193  0.00  0.00    +0.140 A 
ATOM     20  C   LIG    1       -3.446   0.339   9.390  0.00  0.00    -0.030 A 
ATOM     21  C   LIG    1       -3.768   1.179   8.342  0.00  0.00    +0.060 A 
ATOM     22  C   LIG    1       -4.058   0.653   7.097  0.00  0.00    -0.150 A 
ATOM     23  C   LIG    1       -4.032  -0.715   6.899  0.00  0.00    +0.080 A 
ATOM     24  C   LIG    1       -3.706  -1.559   7.942  0.00  0.00    -0.080 A 
BRANCH  19  25
ATOM     25  O   LIG    1       -3.098  -1.862  10.222  0.00  0.00    -0.320 OA
BRANCH  25  27
ATOM     26  C   LIG    1       -2.709  -4.030  11.216  0.00  0.00    +0.070 C 
ATOM     27  C   LIG    1       -3.084  -3.264   9.946  0.00  0.00    +0.170 C 
ENDBRANCH  25  27
ENDBRANCH  19  25
ENDBRANCH  18  22
ENDBRANCH   1  18
TORSDOF 6
