REMARK  Name = ZINCvU00000006gg.0
REMARK                            x       y       z     vdW  Elec       q    Type
REMARK                         _______ _______ _______ _____ _____    ______ ____
ROOT
ATOM      1  C   LIG    1       -1.148   2.919  -2.176  0.00  0.00    +0.050 C 
ATOM      2  C   LIG    1       -0.274   2.035  -3.073  0.00  0.00    +0.290 C 
ATOM      3  N   LIG    1       -0.947   0.814  -3.453  0.00  0.00    -0.540 N 
ATOM      4  C   LIG    1       -2.214   0.611  -2.990  0.00  0.00    +0.400 C 
ATOM      5  N   LIG    1       -2.955  -0.442  -3.244  0.00  0.00    -0.460 NA
ATOM      6  C   LIG    1       -0.341  -0.096  -4.242  0.00  0.00    +0.520 C 
ATOM      7  O   LIG    1       -0.883  -1.156  -4.470  0.00  0.00    -0.440 OA
ATOM      8  S   LIG    1       -2.700   1.986  -1.994  0.00  0.00    -0.110 S 
ENDROOT
BRANCH   5   9
ATOM      9  C   LIG    1       -4.216  -0.534  -2.720  0.00  0.00    +0.140 A 
ATOM     10  C   LIG    1       -4.409  -0.450  -1.339  0.00  0.00    -0.050 A 
ATOM     11  C   LIG    1       -5.682  -0.543  -0.815  0.00  0.00    +0.070 A 
ATOM     12  C   LIG    1       -6.768  -0.721  -1.651  0.00  0.00    -0.090 A 
ATOM     13  C   LIG    1       -6.586  -0.805  -3.025  0.00  0.00    +0.140 A 
ATOM     14  C   LIG    1       -5.315  -0.708  -3.563  0.00  0.00    -0.010 A 
BRANCH  13  15
ATOM     15  O   LIG    1       -7.658  -0.979  -3.843  0.00  0.00    -0.320 OA
ATOM     16  C   LIG    1       -8.941  -1.066  -3.220  0.00  0.00    +0.250 C 
ENDBRANCH  13  15
ENDBRANCH   5   9
BRANCH   1  18
ATOM     17  C   LIG    1       -1.310   4.105   0.017  0.00  0.00    +0.030 C 
ATOM     18  C   LIG    1       -0.483   3.122  -0.814  0.00  0.00    +0.050 C 
ENDBRANCH   1  18
BRANCH   6  19
ATOM     19  C   LIG    1        1.009   0.205  -4.840  0.00  0.00    +0.090 C 
BRANCH  19  20
ATOM     20  C   LIG    1        1.347  -0.842  -5.869  0.00  0.00    -0.080 A 
ATOM     21  C   LIG    1        1.545  -2.154  -5.482  0.00  0.00    +0.040 A 
ATOM     22  C   LIG    1        1.850  -3.115  -6.427  0.00  0.00    +0.000 A 
ATOM     23  C   LIG    1        1.968  -2.763  -7.758  0.00  0.00    +0.010 A 
ATOM     24  C   LIG    1        1.775  -1.450  -8.145  0.00  0.00    +0.000 A 
ATOM     25  C   LIG    1        1.464  -0.489  -7.201  0.00  0.00    +0.010 A 
ENDBRANCH  19  20
BRANCH  19  26
ATOM     26  C   LIG    1        2.053   0.197  -3.753  0.00  0.00    -0.080 A 
ATOM     27  C   LIG    1        1.992  -0.745  -2.743  0.00  0.00    +0.010 A 
ATOM     28  C   LIG    1        2.952  -0.756  -1.749  0.00  0.00    +0.020 A 
ATOM     29  C   LIG    1        3.968   0.181  -1.759  0.00  0.00    +0.020 A 
ATOM     30  C   LIG    1        4.026   1.126  -2.765  0.00  0.00    +0.020 A 
ATOM     31  C   LIG    1        3.069   1.134  -3.763  0.00  0.00    +0.020 A 
ENDBRANCH  19  26
ENDBRANCH   6  19
TORSDOF 6
