REMARK  Name = ZINCqH0000038GF7.0
REMARK                            x       y       z     vdW  Elec       q    Type
REMARK                         _______ _______ _______ _____ _____    ______ ____
ROOT
ATOM      1  N   LIG    1        3.164   4.560  -2.840  0.00  0.00    -0.730 N 
ATOM      2  H   LIG    1        3.287   5.397  -2.365  0.00  0.00    +0.400 HD
ATOM      3  C   LIG    1        3.265   3.390  -2.180  0.00  0.00    +0.720 C 
ATOM      4  N   LIG    1        3.536   3.382  -0.860  0.00  0.00    -0.630 N 
ATOM      5  C   LIG    1        3.744   4.574  -0.018  0.00  0.00    +0.240 C 
ATOM      6  C   LIG    1        4.599   4.075   1.173  0.00  0.00    +0.040 C 
ATOM      7  C   LIG    1        4.008   2.659   1.409  0.00  0.00    +0.040 C 
ATOM      8  C   LIG    1        3.673   2.183  -0.020  0.00  0.00    +0.290 C 
ATOM      9  O   LIG    1        3.112   2.341  -2.776  0.00  0.00    -0.570 OA
ENDROOT
BRANCH   1  15
ATOM     10  C   LIG    1        4.501   4.568 -10.072  0.00  0.00    +0.190 C 
ATOM     11  C   LIG    1        4.037   4.723  -8.647  0.00  0.00    +0.220 A 
ATOM     12  N   LIG    1        4.682   4.303  -7.587  0.00  0.00    -0.310 NA
ATOM     13  N   LIG    1        3.901   4.649  -6.481  0.00  0.00    -0.370 N 
ATOM     14  C   LIG    1        4.174   4.404  -5.065  0.00  0.00    +0.310 C 
ATOM     15  C   LIG    1        2.870   4.569  -4.276  0.00  0.00    +0.260 C 
ATOM     16  C   LIG    1        2.209   5.898  -4.653  0.00  0.00    +0.040 C 
ATOM     17  C   LIG    1        1.696   5.815  -6.097  0.00  0.00    +0.180 C 
ATOM     18  C   LIG    1        2.808   5.272  -6.962  0.00  0.00    +0.270 A 
ATOM     19  N   LIG    1        2.902   5.309  -8.261  0.00  0.00    -0.530 NA
ENDBRANCH   1  15
BRANCH   8  20
ATOM     20  C   LIG    1        2.378   1.412  -0.013  0.00  0.00    -0.070 A 
ATOM     21  C   LIG    1        2.397   0.030  -0.021  0.00  0.00    +0.050 A 
ATOM     22  C   LIG    1        1.210  -0.678  -0.013  0.00  0.00    +0.040 A 
ATOM     23  C   LIG    1        0.002  -0.004   0.002  0.00  0.00    -0.030 A 
ATOM     24  C   LIG    1       -0.017   1.381   0.010  0.00  0.00    -0.030 A 
ATOM     25 CL   LIG    1       -1.532   2.229   0.021  0.00  0.00    -0.050 Cl
ATOM     26 CL   LIG    1       -1.489  -0.893   0.011  0.00  0.00    -0.050 Cl
ATOM     27  C   LIG    1        1.172   2.088   0.002  0.00  0.00    +0.050 A 
ENDBRANCH   8  20
TORSDOF 2
