REMARK  Name = ZINCtV000002OLNx.0
REMARK                            x       y       z     vdW  Elec       q    Type
REMARK                         _______ _______ _______ _____ _____    ______ ____
ROOT
ATOM      1  O   LIG    1        1.317   2.981   0.079  0.00  0.00    -0.450 OA
ATOM      2  C   LIG    1        1.221   1.772   0.049  0.00  0.00    +0.520 C 
ATOM      3  N   LIG    1        0.005   1.192   0.075  0.00  0.00    -0.630 N 
ATOM      4  H   LIG    1       -0.071   0.225   0.051  0.00  0.00    +0.430 HD
ENDROOT
BRANCH   3   5
ATOM      5  C   LIG    1       -1.137   1.976   0.130  0.00  0.00    +0.340 A 
ATOM      6  N   LIG    1       -1.143   3.262   0.170  0.00  0.00    -0.470 NA
ATOM      7  C   LIG    1       -2.337   3.887   0.217  0.00  0.00    +0.120 A 
ATOM      8  C   LIG    1       -2.608   5.271   0.264  0.00  0.00    +0.100 A 
ATOM      9  C   LIG    1       -3.890   5.727   0.315  0.00  0.00    +0.040 A 
ATOM     10  C   LIG    1       -4.961   4.836   0.323  0.00  0.00    -0.090 A 
ATOM     11  C   LIG    1       -4.723   3.473   0.277  0.00  0.00    +0.110 A 
ATOM     12  C   LIG    1       -3.415   2.996   0.225  0.00  0.00    -0.170 A 
ATOM     13  S   LIG    1       -2.781   1.354   0.161  0.00  0.00    +0.080 S 
BRANCH  10  14
ATOM     14  S   LIG    1       -6.614   5.442   0.388  0.00  0.00    -0.080 S 
BRANCH  14  15
ATOM     15  C   LIG    1       -6.387   7.241   0.432  0.00  0.00    +0.430 C 
ATOM     16  F   LIG    1       -5.709   7.654  -0.720  0.00  0.00    -0.180 F 
ATOM     17  F   LIG    1       -5.641   7.590   1.563  0.00  0.00    -0.180 F 
ENDBRANCH  14  15
ENDBRANCH  10  14
ENDBRANCH   3   5
BRANCH   2  18
ATOM     18  C   LIG    1        2.462   0.920  -0.017  0.00  0.00    +0.100 C 
BRANCH  18  19
ATOM     19  C   LIG    1        2.515   0.017   1.189  0.00  0.00    -0.090 A 
ATOM     20  C   LIG    1        2.377   0.548   2.457  0.00  0.00    +0.010 A 
ATOM     21  C   LIG    1        2.421  -0.281   3.563  0.00  0.00    +0.020 A 
ATOM     22  C   LIG    1        2.614  -1.640   3.400  0.00  0.00    +0.020 A 
ATOM     23  C   LIG    1        2.758  -2.171   2.132  0.00  0.00    +0.010 A 
ATOM     24  C   LIG    1        2.708  -1.342   1.026  0.00  0.00    +0.020 A 
ENDBRANCH  18  19
BRANCH  18  25
ATOM     25  C   LIG    1        3.680   1.807  -0.034  0.00  0.00    -0.070 A 
ATOM     26  C   LIG    1        3.856   2.760   0.951  0.00  0.00    +0.040 A 
ATOM     27  C   LIG    1        4.976   3.570   0.938  0.00  0.00    +0.000 A 
ATOM     28  C   LIG    1        5.915   3.434  -0.067  0.00  0.00    +0.010 A 
ATOM     29  C   LIG    1        5.737   2.484  -1.055  0.00  0.00    +0.000 A 
ATOM     30  C   LIG    1        4.620   1.671  -1.039  0.00  0.00    +0.010 A 
ENDBRANCH  18  25
ENDBRANCH   2  18
TORSDOF 6
