REMARK  Name = ZINCkj000005fEfV.0
REMARK                            x       y       z     vdW  Elec       q    Type
REMARK                         _______ _______ _______ _____ _____    ______ ____
ROOT
ATOM      1  N   LIG    1        1.176   0.819   0.634  0.00  0.00    -1.010 NA
ATOM      2  C   LIG    1       -0.234   0.929   0.238  0.00  0.00    +0.290 C 
ATOM      3  C   LIG    1       -0.707  -0.431  -0.285  0.00  0.00    +0.080 C 
ATOM      4  C   LIG    1        0.226  -0.894  -1.406  0.00  0.00    +0.060 C 
ATOM      5  C   LIG    1        1.646  -1.054  -0.857  0.00  0.00    +0.080 C 
ATOM      6  C   LIG    1        2.145   0.298  -0.340  0.00  0.00    +0.290 C 
ENDROOT
BRANCH   1   7
ATOM      7  S   LIG    1        1.665   1.274   2.150  0.00  0.00    +2.600 S 
ATOM      8  O   LIG    1        0.705   2.241   2.552  0.00  0.00    -0.940 OA
ATOM      9  O   LIG    1        3.033   1.624   1.986  0.00  0.00    -0.940 OA
BRANCH   7  10
ATOM     10  C   LIG    1        1.508  -0.233   3.147  0.00  0.00    -0.360 C 
BRANCH  10  11
ATOM     11  C   LIG    1        1.936   0.061   4.586  0.00  0.00    +0.040 C 
BRANCH  11  12
ATOM     12  C   LIG    1        1.804  -1.210   5.428  0.00  0.00    +0.030 C 
BRANCH  12  14
ATOM     13  C   LIG    1        2.099  -2.186   7.708  0.00  0.00    +0.000 C 
ATOM     14  C   LIG    1        2.232  -0.915   6.867  0.00  0.00    +0.010 C 
ENDBRANCH  12  14
ENDBRANCH  11  12
ENDBRANCH  10  11
ENDBRANCH   7  10
ENDBRANCH   1   7
BRANCH   4  15
ATOM     15  N   LIG    1        0.228   0.104  -2.484  0.00  0.00    -0.510 N 
ATOM     16  H   LIG    1        0.554   0.988  -2.124  0.00  0.00    +0.430 HD
ATOM     17  H   LIG    1       -0.708   0.212  -2.844  0.00  0.00    +0.430 HD
BRANCH  15  18
ATOM     18  C   LIG    1        1.119  -0.343  -3.563  0.00  0.00    +0.150 C 
ATOM     19  C   LIG    1        2.511   0.259  -3.359  0.00  0.00    +0.080 C 
ATOM     20  C   LIG    1        0.558   0.116  -4.911  0.00  0.00    +0.090 C 
ENDBRANCH  15  18
ENDBRANCH   4  15
BRANCH   4  21
ATOM     21  C   LIG    1       -0.263  -2.236  -1.955  0.00  0.00    +0.210 C 
BRANCH  21  22
ATOM     22  O   LIG    1       -0.265  -3.207  -0.906  0.00  0.00    -0.550 OA
ATOM     23  H   LIG    1       -0.565  -4.084  -1.183  0.00  0.00    +0.410 HD
ENDBRANCH  21  22
ENDBRANCH   4  21
TORSDOF 9
