REMARK  Name = ZINCtV00000tRPLq.0
REMARK                            x       y       z     vdW  Elec       q    Type
REMARK                         _______ _______ _______ _____ _____    ______ ____
ROOT
ATOM      1  C   LIG    1       -0.729   1.579   1.267  0.00  0.00    +0.040 C 
ATOM      2  C   LIG    1       -0.209   1.080   2.617  0.00  0.00    +0.040 C 
ATOM      3  C   LIG    1        0.038   2.528   2.190  0.00  0.00    +0.000 C 
ATOM      4 CL   LIG    1       -0.904   3.817   3.028  0.00  0.00    -0.070 Cl
ATOM      5 CL   LIG    1        1.717   2.980   1.711  0.00  0.00    -0.070 Cl
ENDROOT
BRANCH   1   6
ATOM      6  C   LIG    1       -0.013   1.086   0.008  0.00  0.00    +0.280 C 
BRANCH   6   7
ATOM      7  O   LIG    1       -0.715   1.567  -1.168  0.00  0.00    -0.350 OA
BRANCH   7   9
ATOM      8  O   LIG    1        0.790   0.531  -2.429  0.00  0.00    -0.470 OA
ATOM      9  C   LIG    1       -0.210   1.218  -2.368  0.00  0.00    +0.510 C 
BRANCH   9  10
ATOM     10  C   LIG    1       -0.871   1.671  -3.607  0.00  0.00    -0.120 A 
ATOM     11  C   LIG    1       -2.024   2.456  -3.540  0.00  0.00    +0.120 A 
ATOM     12  C   LIG    1       -2.635   2.880  -4.701  0.00  0.00    +0.030 A 
ATOM     13  C   LIG    1       -2.113   2.520  -5.933  0.00  0.00    +0.010 A 
ATOM     14  C   LIG    1       -0.973   1.738  -6.008  0.00  0.00    +0.040 A 
ATOM     15 CL   LIG    1       -2.893   3.052  -7.390  0.00  0.00    -0.040 Cl
ATOM     16  C   LIG    1       -0.349   1.311  -4.853  0.00  0.00    +0.030 A 
ATOM     17 CL   LIG    1        1.081   0.330  -4.948  0.00  0.00    -0.010 Cl
ENDBRANCH   9  10
ENDBRANCH   7   9
ENDBRANCH   6   7
ENDBRANCH   1   6
BRANCH   2  18
ATOM     18  C   LIG    1       -1.238   0.836   3.723  0.00  0.00    +0.280 C 
BRANCH  18  19
ATOM     19  O   LIG    1       -0.577   0.257   4.879  0.00  0.00    -0.350 OA
BRANCH  19  20
ATOM     20  C   LIG    1       -1.347  -0.021   5.949  0.00  0.00    +0.510 C 
ATOM     21  O   LIG    1       -2.539   0.213   5.916  0.00  0.00    -0.470 OA
BRANCH  20  22
ATOM     22  C   LIG    1       -0.744  -0.610   7.160  0.00  0.00    -0.120 A 
ATOM     23  C   LIG    1        0.625  -0.886   7.198  0.00  0.00    +0.120 A 
ATOM     24  C   LIG    1        1.184  -1.432   8.334  0.00  0.00    +0.030 A 
ATOM     25  C   LIG    1        0.389  -1.717   9.433  0.00  0.00    +0.010 A 
ATOM     26  C   LIG    1       -0.969  -1.451   9.401  0.00  0.00    +0.040 A 
ATOM     27 CL   LIG    1        1.100  -2.411  10.856  0.00  0.00    -0.040 Cl
ATOM     28  C   LIG    1       -1.541  -0.900   8.272  0.00  0.00    +0.030 A 
ATOM     29 CL   LIG    1       -3.244  -0.566   8.232  0.00  0.00    -0.010 Cl
ENDBRANCH  20  22
ENDBRANCH  19  20
ENDBRANCH  18  19
ENDBRANCH   2  18
TORSDOF 8
