REMARK  Name = ZINCrH00000tj1nh.0
REMARK                            x       y       z     vdW  Elec       q    Type
REMARK                         _______ _______ _______ _____ _____    ______ ____
ROOT
ATOM      1  O   LIG    1        6.743  -0.779   0.153  0.00  0.00    -0.530 OA
ATOM      2  C   LIG    1        5.864  -1.031  -0.644  0.00  0.00    +0.550 C 
ATOM      3  N   LIG    1        4.836  -0.174  -0.805  0.00  0.00    -0.720 N 
ATOM      4  H   LIG    1        4.133  -0.375  -1.442  0.00  0.00    +0.410 HD
ENDROOT
BRANCH   2   5
ATOM      5  C   LIG    1        5.920  -2.301  -1.452  0.00  0.00    -0.050 C 
ATOM      6  C   LIG    1        7.017  -2.415  -2.513  0.00  0.00    +0.080 C 
ATOM      7  C   LIG    1        7.112  -3.232  -1.223  0.00  0.00    +0.040 C 
BRANCH   7   8
ATOM      8  C   LIG    1        6.864  -4.716  -1.318  0.00  0.00    -0.020 A 
ATOM      9  C   LIG    1        6.386  -5.263  -2.494  0.00  0.00    +0.020 A 
ATOM     10  C   LIG    1        6.164  -6.624  -2.583  0.00  0.00    +0.070 A 
ATOM     11  C   LIG    1        6.410  -7.437  -1.493  0.00  0.00    -0.190 A 
ATOM     12  C   LIG    1        6.883  -6.890  -0.315  0.00  0.00    +0.070 A 
ATOM     13  C   LIG    1        7.110  -5.529  -0.228  0.00  0.00    +0.030 A 
BRANCH  11  14
ATOM     14  C   LIG    1        6.162  -8.921  -1.588  0.00  0.00    +0.510 C 
ATOM     15  F   LIG    1        7.048  -9.597  -0.743  0.00  0.00    -0.180 F 
ATOM     16  F   LIG    1        6.363  -9.343  -2.907  0.00  0.00    -0.180 F 
ATOM     17  F   LIG    1        4.846  -9.200  -1.204  0.00  0.00    -0.180 F 
ENDBRANCH  11  14
ENDBRANCH   7   8
ENDBRANCH   2   5
BRANCH   3  18
ATOM     18  C   LIG    1        4.782   1.061  -0.019  0.00  0.00    +0.310 C 
BRANCH  18  19
ATOM     19  C   LIG    1        3.523   1.848  -0.392  0.00  0.00    +0.130 C 
ATOM     20  C   LIG    1        3.508   3.187   0.357  0.00  0.00    +0.240 C 
ATOM     21  O   LIG    1        2.315   3.890  -0.005  0.00  0.00    -0.300 OA
ATOM     22  C   LIG    1        1.157   3.175   0.006  0.00  0.00    +0.050 A 
ATOM     23  C   LIG    1       -0.057   3.845   0.022  0.00  0.00    +0.030 A 
ATOM     24  C   LIG    1       -1.242   3.132   0.030  0.00  0.00    +0.020 A 
ATOM     25  C   LIG    1       -1.219   1.750   0.017  0.00  0.00    +0.020 A 
ATOM     26  C   LIG    1       -0.013   1.076   0.008  0.00  0.00    +0.020 A 
ATOM     27  C   LIG    1        1.179   1.785   0.000  0.00  0.00    +0.050 A 
ATOM     28  O   LIG    1        2.360   1.107  -0.010  0.00  0.00    -0.300 OA
ENDBRANCH  18  19
ENDBRANCH   3  18
TORSDOF 5
