REMARK  Name = ZINCvU0000000HBW.0
REMARK                            x       y       z     vdW  Elec       q    Type
REMARK                         _______ _______ _______ _____ _____    ______ ____
ROOT
ATOM      1  C   LIG    1        2.416   3.935  -0.001  0.00  0.00    +0.520 C 
ATOM      2  O   LIG    1        3.478   3.344  -0.014  0.00  0.00    -0.500 OA
ENDROOT
BRANCH   1   3
ATOM      3  C   LIG    1        1.151   3.177   0.008  0.00  0.00    -0.170 A 
ATOM      4  C   LIG    1        1.171   1.779   0.000  0.00  0.00    +0.140 A 
ATOM      5  C   LIG    1       -0.013   1.076   0.008  0.00  0.00    -0.020 A 
ATOM      6  C   LIG    1       -1.226   1.754   0.017  0.00  0.00    +0.170 A 
ATOM      7  C   LIG    1       -1.251   3.143   0.030  0.00  0.00    -0.090 A 
ATOM      8  C   LIG    1       -0.072   3.855   0.022  0.00  0.00    +0.120 A 
BRANCH   6   9
ATOM      9  O   LIG    1       -2.390   1.056   0.019  0.00  0.00    -0.300 OA
BRANCH   9  10
ATOM     10  C   LIG    1       -3.601   1.815   0.029  0.00  0.00    +0.300 C 
BRANCH  10  11
ATOM     11  C   LIG    1       -4.782   0.878   0.029  0.00  0.00    -0.220 A 
ATOM     12  C   LIG    1       -5.430   0.354   1.097  0.00  0.00    +0.010 A 
ATOM     13  O   LIG    1       -6.409  -0.418   0.605  0.00  0.00    +0.100 OA
ATOM     14  N   LIG    1       -6.415  -0.411  -0.604  0.00  0.00    -0.360 NA
ATOM     15  C   LIG    1       -5.112   0.591   2.551  0.00  0.00    +0.190 C 
ATOM     16  C   LIG    1       -5.472   0.348  -1.084  0.00  0.00    +0.040 A 
ATOM     17  C   LIG    1       -5.175   0.607  -2.538  0.00  0.00    +0.160 C 
ENDBRANCH  10  11
ENDBRANCH   9  10
ENDBRANCH   6   9
ENDBRANCH   1   3
BRANCH   1  18
ATOM     18  O   LIG    1        2.394   5.282   0.006  0.00  0.00    -0.350 OA
BRANCH  18  19
ATOM     19  C   LIG    1        3.677   5.962  -0.003  0.00  0.00    +0.350 C 
BRANCH  19  22
ATOM     20  C   LIG    1        4.150   9.572   0.011  0.00  0.00    +0.130 A 
ATOM     21  N   LIG    1        4.454   8.306   0.007  0.00  0.00    -0.460 NA
ATOM     22  C   LIG    1        3.456   7.453   0.007  0.00  0.00    +0.060 A 
ATOM     23  C   LIG    1        2.231   7.989   0.021  0.00  0.00    -0.040 A 
ATOM     24  S   LIG    1        2.397   9.743   0.029  0.00  0.00    +0.100 S 
BRANCH  20  29
ATOM     25  C   LIG    1        7.929  13.912  -0.002  0.00  0.00    +0.100 C 
ATOM     26  C   LIG    1        6.940  12.776   0.001  0.00  0.00    -0.060 A 
ATOM     27  C   LIG    1        5.583  13.044   0.014  0.00  0.00    +0.010 A 
ATOM     28  C   LIG    1        4.671  12.008   0.017  0.00  0.00    +0.040 A 
ATOM     29  C   LIG    1        5.121  10.687   0.007  0.00  0.00    -0.040 A 
ATOM     30  C   LIG    1        6.492  10.423  -0.002  0.00  0.00    +0.080 A 
ATOM     31  C   LIG    1        7.392  11.469  -0.010  0.00  0.00    +0.010 A 
ENDBRANCH  20  29
ENDBRANCH  19  22
ENDBRANCH  18  19
ENDBRANCH   1  18
TORSDOF 8
