REMARK  Name = ZINCrH000004tjN1.0
REMARK                            x       y       z     vdW  Elec       q    Type
REMARK                         _______ _______ _______ _____ _____    ______ ____
ROOT
ATOM      1  C   LIG    1        7.087   0.267   2.845  0.00  0.00    -0.110 A 
ATOM      2  C   LIG    1        6.647  -0.042   1.550  0.00  0.00    +0.460 A 
ATOM      3  N   LIG    1        7.521  -0.041   0.565  0.00  0.00    -0.520 NA
ATOM      4  C   LIG    1        8.810   0.232   0.725  0.00  0.00    +0.230 A 
ATOM      5  C   LIG    1        9.632   0.185  -0.543  0.00  0.00    +0.110 C 
ATOM      6  C   LIG    1        9.824   1.619  -1.048  0.00  0.00    +0.020 C 
ATOM      7  C   LIG    1       10.436   2.485   0.045  0.00  0.00    +0.010 C 
ATOM      8  C   LIG    1       11.799   1.876   0.282  0.00  0.00    +0.000 C 
ATOM      9  C   LIG    1       11.838   0.736   1.281  0.00  0.00    +0.020 C 
ATOM     10  C   LIG    1       10.766   0.868   2.353  0.00  0.00    +0.080 C 
ATOM     11  C   LIG    1        9.353   0.536   1.954  0.00  0.00    -0.120 A 
ATOM     12  C   LIG    1        8.447   0.556   3.047  0.00  0.00    +0.100 A 
ENDROOT
BRANCH   1  14
ATOM     13  N   LIG    1        5.439   0.311   4.815  0.00  0.00    -0.400 NA
ATOM     14  C   LIG    1        6.168   0.291   3.944  0.00  0.00    +0.240 C 
ENDBRANCH   1  14
BRANCH   2  15
ATOM     15  N   LIG    1        5.317  -0.340   1.311  0.00  0.00    -0.700 N 
ATOM     16  H   LIG    1        4.680  -0.336   2.043  0.00  0.00    +0.410 HD
BRANCH  15  17
ATOM     17  C   LIG    1        4.870  -0.661  -0.047  0.00  0.00    +0.380 C 
BRANCH  17  18
ATOM     18  C   LIG    1        3.390  -0.945  -0.035  0.00  0.00    -0.290 A 
ATOM     19  C   LIG    1        2.373   0.001  -0.021  0.00  0.00    +0.130 A 
ATOM     20  C   LIG    1        2.373   1.409  -0.013  0.00  0.00    +0.030 A 
ATOM     21  C   LIG    1        1.185   2.073   0.002  0.00  0.00    +0.070 A 
ATOM     22  C   LIG    1       -0.016   1.345   0.009  0.00  0.00    +0.000 A 
ATOM     23  C   LIG    1        0.002  -0.004   0.002  0.00  0.00    +0.280 A 
ATOM     24  N   LIG    1        1.186  -0.684  -0.013  0.00  0.00    -0.270 N 
ATOM     25  N   LIG    1        1.490  -2.051  -0.023  0.00  0.00    -0.320 NA
ATOM     26  C   LIG    1        2.797  -2.197  -0.036  0.00  0.00    +0.290 A 
ENDBRANCH  17  18
ENDBRANCH  15  17
ENDBRANCH   2  15
BRANCH  12  27
ATOM     27  C   LIG    1        8.890   0.876   4.372  0.00  0.00    +0.240 C 
ATOM     28  N   LIG    1        9.242   1.129   5.422  0.00  0.00    -0.370 NA
ENDBRANCH  12  27
TORSDOF 5
