REMARK  Name = ZINCrH000004l4oY.0
REMARK                            x       y       z     vdW  Elec       q    Type
REMARK                         _______ _______ _______ _____ _____    ______ ____
ROOT
ATOM      1  C   LIG    1        0.349   3.720   3.594  0.00  0.00    -0.000 A 
ATOM      2  C   LIG    1       -0.022   3.966   2.258  0.00  0.00    -0.200 A 
ATOM      3  C   LIG    1       -0.253   5.289   1.842  0.00  0.00    +0.300 A 
ATOM      4  O   LIG    1       -0.589   5.235   0.537  0.00  0.00    -0.080 OA
ATOM      5  N   LIG    1       -0.572   3.890   0.103  0.00  0.00    -0.260 NA
ATOM      6  N   LIG    1       -0.121   6.287   2.702  0.00  0.00    -0.450 NA
ATOM      7  C   LIG    1        0.225   6.087   3.955  0.00  0.00    +0.240 A 
ATOM      8  C   LIG    1       -0.248   3.114   1.092  0.00  0.00    +0.160 A 
ATOM      9  C   LIG    1        0.471   4.816   4.448  0.00  0.00    -0.020 A 
ENDROOT
BRANCH   1  12
ATOM     10  N   LIG    1        1.086   2.143   5.318  0.00  0.00    -0.620 N 
ATOM     11  H   LIG    1        1.268   2.901   5.896  0.00  0.00    +0.430 HD
ATOM     12  C   LIG    1        0.602   2.344   4.076  0.00  0.00    +0.540 C 
ATOM     13  O   LIG    1        0.373   1.395   3.352  0.00  0.00    -0.420 OA
BRANCH  10  17
ATOM     14  C   LIG    1        1.867  -1.251   6.919  0.00  0.00    -0.320 A 
ATOM     15  C   LIG    1        1.386  -1.367   5.643  0.00  0.00    +0.380 A 
ATOM     16  N   LIG    1        1.106  -0.223   5.074  0.00  0.00    -0.480 NA
ATOM     17  C   LIG    1        1.322   0.858   5.768  0.00  0.00    +0.280 A 
ATOM     18  S   LIG    1        1.932   0.464   7.315  0.00  0.00    +0.230 S 
BRANCH  14  19
ATOM     19  C   LIG    1        2.258  -2.354   7.795  0.00  0.00    +0.550 C 
ATOM     20  O   LIG    1        2.167  -3.502   7.405  0.00  0.00    -0.490 OA
BRANCH  19  22
ATOM     21  C   LIG    1        3.082  -3.222   9.839  0.00  0.00    +0.270 C 
ATOM     22  O   LIG    1        2.719  -2.097   9.037  0.00  0.00    -0.350 OA
ENDBRANCH  19  22
ENDBRANCH  14  19
ENDBRANCH  10  17
ENDBRANCH   1  12
BRANCH   7  23
ATOM     23  C   LIG    1        0.356   7.271   4.879  0.00  0.00    +0.020 C 
ATOM     24  C   LIG    1        0.380   6.995   6.383  0.00  0.00    +0.040 C 
ATOM     25  C   LIG    1       -0.855   7.632   5.741  0.00  0.00    +0.060 C 
ENDBRANCH   7  23
BRANCH   8  26
ATOM     26  C   LIG    1       -0.122   1.613   1.045  0.00  0.00    +0.110 C 
ATOM     27  C   LIG    1       -1.373   0.977   1.654  0.00  0.00    +0.070 C 
ATOM     28  C   LIG    1        0.025   1.159  -0.409  0.00  0.00    +0.040 C 
ENDBRANCH   8  26
TORSDOF 6
