REMARK  Name = ZINCpk000005C4We.1
REMARK                            x       y       z     vdW  Elec       q    Type
REMARK                         _______ _______ _______ _____ _____    ______ ____
ROOT
ATOM      1  N   LIG    1       -4.832   1.365   1.369  0.00  0.00    -0.690 N 
ATOM      2  H   LIG    1       -4.566   2.135   0.843  0.00  0.00    +0.420 HD
ENDROOT
BRANCH   1   3
ATOM      3  C   LIG    1       -5.851   0.539   0.923  0.00  0.00    +0.590 A 
ATOM      4  N   LIG    1       -6.447   0.821  -0.228  0.00  0.00    -0.520 NA
ATOM      5  C   LIG    1       -7.424   0.065  -0.698  0.00  0.00    +0.200 A 
ATOM      6  C   LIG    1       -7.825  -1.048   0.042  0.00  0.00    -0.070 A 
ATOM      7  N   LIG    1       -8.761  -2.017  -0.124  0.00  0.00    -0.460 NA
ATOM      8  C   LIG    1       -8.720  -2.837   0.885  0.00  0.00    +0.530 A 
ATOM      9  N   LIG    1       -7.754  -2.448   1.765  0.00  0.00    -0.580 N 
ATOM     10  H   LIG    1       -7.524  -2.891   2.597  0.00  0.00    +0.440 HD
ATOM     11  C   LIG    1       -7.167  -1.315   1.259  0.00  0.00    +0.330 A 
ATOM     12  N   LIG    1       -6.193  -0.508   1.656  0.00  0.00    -0.550 NA
BRANCH   5  13
ATOM     13  C   LIG    1       -8.092   0.398  -2.007  0.00  0.00    +0.530 C 
ATOM     14  F   LIG    1       -9.431   0.731  -1.776  0.00  0.00    -0.160 F 
ATOM     15  F   LIG    1       -8.027  -0.710  -2.859  0.00  0.00    -0.160 F 
ATOM     16  F   LIG    1       -7.438   1.482  -2.602  0.00  0.00    -0.160 F 
ENDBRANCH   5  13
ENDBRANCH   1   3
BRANCH   1  18
ATOM     17  C   LIG    1       -4.956   1.683   3.791  0.00  0.00    +0.040 C 
ATOM     18  C   LIG    1       -4.157   1.076   2.637  0.00  0.00    +0.250 C 
BRANCH  18  19
ATOM     19  C   LIG    1       -2.751   1.681   2.616  0.00  0.00    +0.280 C 
BRANCH  19  20
ATOM     20  N   LIG    1       -2.026   1.189   1.442  0.00  0.00    -0.730 N 
ATOM     21  H   LIG    1       -2.457   0.575   0.828  0.00  0.00    +0.400 HD
ATOM     22  C   LIG    1       -0.759   1.591   1.216  0.00  0.00    +0.510 C 
ATOM     23  O   LIG    1       -0.221   2.360   1.984  0.00  0.00    -0.510 OA
BRANCH  22  24
ATOM     24  C   LIG    1       -0.013   1.086   0.008  0.00  0.00    +0.160 C 
ATOM     25  C   LIG    1       -0.663   1.622  -1.292  0.00  0.00    +0.030 C 
ATOM     26  C   LIG    1        0.541   1.559  -2.272  0.00  0.00    +0.020 C 
ATOM     27  C   LIG    1        1.733   1.884  -1.347  0.00  0.00    +0.200 C 
ATOM     28  O   LIG    1        1.327   1.603  -0.002  0.00  0.00    -0.350 OA
ENDBRANCH  22  24
ENDBRANCH  19  20
ENDBRANCH  18  19
ENDBRANCH   1  18
TORSDOF 6
