REMARK  Name = ZINCrH000004t6AV.0
REMARK                            x       y       z     vdW  Elec       q    Type
REMARK                         _______ _______ _______ _____ _____    ______ ____
ROOT
ATOM      1  C   LIG    1       -0.559   0.542  -3.437  0.00  0.00    +0.570 C 
ATOM      2  N   LIG    1        0.050   0.437  -2.239  0.00  0.00    -0.610 N 
ATOM      3  C   LIG    1        1.428  -0.064  -2.142  0.00  0.00    +0.280 C 
ATOM      4  C   LIG    1        1.461  -1.226  -1.144  0.00  0.00    +0.040 C 
ATOM      5  C   LIG    1        0.863  -0.767   0.188  0.00  0.00    +0.040 C 
ATOM      6  C   LIG    1       -0.595  -0.352  -0.022  0.00  0.00    +0.110 C 
ATOM      7  C   LIG    1       -0.651   0.821  -1.007  0.00  0.00    +0.300 C 
ATOM      8  O   LIG    1       -1.730   0.860  -3.498  0.00  0.00    -0.530 OA
ENDROOT
BRANCH   1  15
ATOM      9  C   LIG    1        3.424  -0.421  -8.787  0.00  0.00    +0.340 C 
ATOM     10  N   LIG    1        2.074  -0.596  -8.245  0.00  0.00    -0.500 N 
ATOM     11  C   LIG    1        1.014  -1.156  -8.889  0.00  0.00    +0.480 A 
ATOM     12  N   LIG    1       -0.032  -1.153  -8.116  0.00  0.00    -0.490 NA
ATOM     13  C   LIG    1        0.287  -0.590  -6.921  0.00  0.00    +0.040 A 
ATOM     14  C   LIG    1       -0.435  -0.338  -5.756  0.00  0.00    +0.150 A 
ATOM     15  C   LIG    1        0.198   0.271  -4.676  0.00  0.00    -0.150 A 
ATOM     16  C   LIG    1        1.548   0.633  -4.763  0.00  0.00    +0.060 A 
ATOM     17  C   LIG    1        2.260   0.383  -5.901  0.00  0.00    +0.020 A 
ATOM     18  C   LIG    1        1.644  -0.225  -6.990  0.00  0.00    +0.070 A 
ENDBRANCH   1  15
BRANCH   6  19
ATOM     19  C   LIG    1       -1.193   0.069   1.296  0.00  0.00    +0.260 A 
ATOM     20  N   LIG    1       -2.222  -0.492   1.857  0.00  0.00    -0.470 NA
ATOM     21  C   LIG    1       -2.482   0.144   3.031  0.00  0.00    +0.020 A 
ATOM     22  C   LIG    1       -3.443  -0.024   4.029  0.00  0.00    +0.080 A 
ATOM     23  C   LIG    1       -3.439   0.805   5.128  0.00  0.00    +0.020 A 
ATOM     24  C   LIG    1       -2.486   1.806   5.249  0.00  0.00    +0.050 A 
ATOM     25  C   LIG    1       -1.530   1.984   4.271  0.00  0.00    +0.050 A 
ATOM     26  C   LIG    1       -1.519   1.157   3.158  0.00  0.00    +0.010 A 
ATOM     27  O   LIG    1       -0.735   1.072   2.061  0.00  0.00    -0.210 OA
ENDBRANCH   6  19
TORSDOF 2
