REMARK  Name = ZINCqH0000004eVi.0
REMARK                            x       y       z     vdW  Elec       q    Type
REMARK                         _______ _______ _______ _____ _____    ______ ____
ROOT
ATOM      1  C   LIG    1       -0.014   1.395   0.004  0.00  0.00    +0.170 A 
ATOM      2  C   LIG    1       -1.212   2.076   0.188  0.00  0.00    -0.010 A 
ATOM      3  C   LIG    1       -1.233   3.459   0.196  0.00  0.00    +0.030 A 
ATOM      4  C   LIG    1       -0.068   4.173   0.010  0.00  0.00    +0.020 A 
ATOM      5  C   LIG    1        1.141   3.498  -0.182  0.00  0.00    +0.030 A 
ATOM      6  C   LIG    1        1.163   2.102  -0.184  0.00  0.00    +0.050 A 
ENDROOT
BRANCH   1  10
ATOM      7  N   LIG    1        1.136  -2.009   0.383  0.00  0.00    -0.730 N 
ATOM      8  H   LIG    1        0.410  -2.499  -0.034  0.00  0.00    +0.400 HD
ATOM      9  C   LIG    1        1.074  -0.666   0.481  0.00  0.00    +0.700 C 
ATOM     10  N   LIG    1        0.002  -0.004   0.002  0.00  0.00    -0.690 N 
ATOM     11  H   LIG    1       -0.758  -0.497  -0.344  0.00  0.00    +0.410 HD
ATOM     12  O   LIG    1        1.984  -0.052   1.004  0.00  0.00    -0.570 OA
BRANCH   7  13
ATOM     13  C   LIG    1        2.301  -2.728   0.904  0.00  0.00    +0.250 C 
ATOM     14  C   LIG    1        2.109  -2.994   2.398  0.00  0.00    +0.020 C 
BRANCH  13  16
ATOM     15  C   LIG    1        2.766  -3.792  -1.309  0.00  0.00    +0.020 C 
ATOM     16  C   LIG    1        2.451  -4.059   0.164  0.00  0.00    +0.020 C 
ENDBRANCH  13  16
ENDBRANCH   7  13
ENDBRANCH   1  10
BRANCH   5  17
ATOM     17  C   LIG    1        2.353   4.236  -0.376  0.00  0.00    -0.100 C 
ATOM     18  C   LIG    1        3.347   4.841  -0.535  0.00  0.00    -0.120 C 
BRANCH  18  19
ATOM     19  C   LIG    1        4.559   5.579  -0.729  0.00  0.00    +0.010 A 
ATOM     20  C   LIG    1        5.768   4.903  -0.916  0.00  0.00    +0.080 A 
ATOM     21  C   LIG    1        6.936   5.614  -1.109  0.00  0.00    +0.010 A 
ATOM     22  C   LIG    1        6.921   6.994  -1.107  0.00  0.00    +0.090 A 
ATOM     23  C   LIG    1        5.720   7.683  -0.916  0.00  0.00    -0.130 A 
ATOM     24  C   LIG    1        4.536   6.974  -0.726  0.00  0.00    +0.110 A 
BRANCH  23  25
ATOM     25  C   LIG    1        5.706   9.161  -0.915  0.00  0.00    +0.510 C 
ATOM     26  O   LIG    1        4.662   9.758  -0.749  0.00  0.00    -0.500 OA
BRANCH  25  27
ATOM     27  O   LIG    1        6.852   9.845  -1.099  0.00  0.00    -0.350 OA
ATOM     28  C   LIG    1        6.763  11.294  -1.086  0.00  0.00    +0.290 C 
ENDBRANCH  25  27
ENDBRANCH  23  25
ENDBRANCH  18  19
ENDBRANCH   5  17
TORSDOF 7
