REMARK  Name = ZINCrD00000F5LDl.0
REMARK                            x       y       z     vdW  Elec       q    Type
REMARK                         _______ _______ _______ _____ _____    ______ ____
ROOT
ATOM      1  N   LIG    1        3.404   3.137  -0.090  0.00  0.00    -0.680 N 
ATOM      2  H   LIG    1        2.949   3.424  -0.897  0.00  0.00    +0.410 HD
ATOM      3  C   LIG    1        4.750   3.172  -0.026  0.00  0.00    +0.710 C 
ATOM      4  N   LIG    1        5.459   3.709  -1.038  0.00  0.00    -0.730 N 
ATOM      5  H   LIG    1        5.000   4.071  -1.813  0.00  0.00    +0.400 HD
ATOM      6  O   LIG    1        5.324   2.719   0.945  0.00  0.00    -0.570 OA
ENDROOT
BRANCH   1  12
ATOM      7  C   LIG    1        3.117   2.217   4.732  0.00  0.00    +0.100 C 
ATOM      8  C   LIG    1        2.499   2.232   3.357  0.00  0.00    -0.070 A 
ATOM      9  C   LIG    1        1.197   1.800   3.181  0.00  0.00    -0.020 A 
ATOM     10  C   LIG    1        0.624   1.816   1.923  0.00  0.00    +0.030 A 
ATOM     11  C   LIG    1        1.355   2.253   0.835  0.00  0.00    -0.090 A 
ATOM     12  C   LIG    1        2.663   2.688   1.009  0.00  0.00    +0.180 A 
ATOM     13  C   LIG    1        3.233   2.675   2.275  0.00  0.00    +0.020 A 
BRANCH  11  14
ATOM     14  C   LIG    1        0.732   2.265  -0.537  0.00  0.00    -0.010 C 
ATOM     15  C   LIG    1       -0.524   3.117  -0.735  0.00  0.00    +0.030 C 
ATOM     16  C   LIG    1       -0.631   1.591  -0.699  0.00  0.00    +0.030 C 
ENDBRANCH  11  14
ENDBRANCH   1  12
BRANCH   4  17
ATOM     17  C   LIG    1        6.922   3.747  -0.969  0.00  0.00    +0.360 C 
ATOM     18  C   LIG    1        7.364   4.990  -0.195  0.00  0.00    +0.070 C 
BRANCH  17  19
ATOM     19  C   LIG    1        7.490   3.796  -2.364  0.00  0.00    +0.170 A 
ATOM     20  N   LIG    1        7.389   4.790  -3.212  0.00  0.00    -0.280 NA
ATOM     21  N   LIG    1        7.995   4.488  -4.312  0.00  0.00    -0.270 NA
ATOM     22  C   LIG    1        8.503   3.302  -4.215  0.00  0.00    +0.140 A 
ATOM     23  C   LIG    1        9.296   2.498  -5.212  0.00  0.00    +0.380 C 
ATOM     24  O   LIG    1        9.991   1.453  -4.516  0.00  0.00    -0.360 OA
ATOM     25  C   LIG    1        9.169   0.641  -3.669  0.00  0.00    +0.310 C 
ATOM     26  C   LIG    1        8.629   1.512  -2.525  0.00  0.00    +0.030 C 
ATOM     27  C   LIG    1        7.864   0.828  -1.398  0.00  0.00    +0.070 C 
ATOM     28  C   LIG    1        9.273   1.372  -1.150  0.00  0.00    +0.070 C 
ATOM     29  N   LIG    1        8.197   2.835  -2.970  0.00  0.00    -0.430 N 
ENDBRANCH  17  19
ENDBRANCH   4  17
TORSDOF 4
