REMARK  Name = ZINCrH000004mBbD.0
REMARK                            x       y       z     vdW  Elec       q    Type
REMARK                         _______ _______ _______ _____ _____    ______ ____
ROOT
ATOM      1  N   LIG    1       -0.068   1.119  -2.437  0.00  0.00    -0.750 N 
ATOM      2  H   LIG    1        0.728   0.569  -2.358  0.00  0.00    +0.390 HD
ATOM      3  C   LIG    1       -0.543   1.446  -3.655  0.00  0.00    +0.710 C 
ATOM      4  N   LIG    1        0.142   1.097  -4.762  0.00  0.00    -0.630 N 
ATOM      5  C   LIG    1       -0.297   1.526  -6.100  0.00  0.00    +0.310 C 
ATOM      6  C   LIG    1        0.788   2.444  -6.673  0.00  0.00    +0.060 C 
ATOM      7  C   LIG    1        2.153   1.832  -6.502  0.00  0.00    -0.050 A 
ATOM      8  C   LIG    1        3.179   2.308  -7.309  0.00  0.00    -0.090 A 
ATOM      9  C   LIG    1        4.459   1.808  -7.186  0.00  0.00    +0.030 A 
ATOM     10  C   LIG    1        4.726   0.825  -6.252  0.00  0.00    +0.010 A 
ATOM     11  C   LIG    1        3.708   0.346  -5.452  0.00  0.00    +0.030 A 
ATOM     12  C   LIG    1        2.419   0.846  -5.578  0.00  0.00    -0.100 A 
ATOM     13  C   LIG    1        1.351   0.271  -4.682  0.00  0.00    +0.320 C 
ATOM     14  O   LIG    1       -1.591   2.056  -3.755  0.00  0.00    -0.580 OA
ENDROOT
BRANCH   1  15
ATOM     15  C   LIG    1       -0.752   1.593  -1.232  0.00  0.00    +0.280 C 
BRANCH  15  16
ATOM     16  C   LIG    1       -0.013   1.084   0.008  0.00  0.00    +0.080 C 
BRANCH  16  20
ATOM     17  C   LIG    1       -2.010   2.467   3.525  0.00  0.00    +0.140 A 
ATOM     18  C   LIG    1       -0.935   3.177   3.011  0.00  0.00    -0.060 A 
ATOM     19  C   LIG    1       -0.287   2.725   1.877  0.00  0.00    +0.080 A 
ATOM     20  C   LIG    1       -0.718   1.572   1.248  0.00  0.00    -0.110 A 
ATOM     21  C   LIG    1       -1.790   0.861   1.758  0.00  0.00    +0.010 A 
ATOM     22 CL   LIG    1       -2.323  -0.591   0.970  0.00  0.00    -0.050 Cl
ATOM     23  C   LIG    1       -2.437   1.307   2.896  0.00  0.00    +0.000 A 
BRANCH  17  25
ATOM     24  C   LIG    1       -2.151   4.110   5.238  0.00  0.00    +0.250 C 
ATOM     25  O   LIG    1       -2.644   2.908   4.643  0.00  0.00    -0.310 OA
ENDBRANCH  17  25
ENDBRANCH  16  20
ENDBRANCH  15  16
ENDBRANCH   1  15
BRANCH   8  26
ATOM     26  C   LIG    1        2.890   3.379  -8.329  0.00  0.00    +0.250 C 
BRANCH  26  27
ATOM     27  C   LIG    1        2.970   4.702  -7.688  0.00  0.00    +0.200 C 
ATOM     28  N   LIG    1        3.031   5.722  -7.193  0.00  0.00    -0.430 NA
ENDBRANCH  26  27
ENDBRANCH   8  26
TORSDOF 6
