REMARK  Name = ZINCpk00000xIkg3.0
REMARK                            x       y       z     vdW  Elec       q    Type
REMARK                         _______ _______ _______ _____ _____    ______ ____
ROOT
ATOM      1  O   LIG    1        0.002  -0.004   0.002  0.00  0.00    -0.510 OA
ATOM      2  C   LIG    1       -0.014   1.209   0.009  0.00  0.00    +0.520 C 
ATOM      3  N   LIG    1       -1.191   1.867   0.018  0.00  0.00    -0.610 N 
ATOM      4  C   LIG    1       -1.233   3.337   0.032  0.00  0.00    +0.290 C 
ATOM      5  C   LIG    1       -2.163   3.803  -1.099  0.00  0.00    +0.180 C 
ATOM      6  N   LIG    1       -3.468   3.143  -0.957  0.00  0.00    -0.550 NA
ATOM      7  C   LIG    1       -3.347   1.687  -1.105  0.00  0.00    +0.200 C 
ATOM      8  C   LIG    1       -2.466   1.133   0.020  0.00  0.00    +0.300 C 
ENDROOT
BRANCH   2   9
ATOM      9  C   LIG    1        1.280   1.980   0.001  0.00  0.00    +0.160 C 
ATOM     10  C   LIG    1        1.417   2.788  -1.309  0.00  0.00    +0.020 C 
ATOM     11  C   LIG    1        2.921   2.701  -1.649  0.00  0.00    +0.010 C 
ATOM     12  C   LIG    1        3.516   1.850  -0.505  0.00  0.00    +0.200 C 
ATOM     13  O   LIG    1        2.405   1.074  -0.006  0.00  0.00    -0.340 OA
ENDBRANCH   2   9
BRANCH   6  14
ATOM     14  C   LIG    1       -4.441   3.690  -1.912  0.00  0.00    +0.530 C 
BRANCH  14  15
ATOM     15  N   LIG    1       -4.983   4.947  -1.390  0.00  0.00    -0.360 N 
ATOM     16  N   LIG    1       -5.923   5.086  -0.365  0.00  0.00    -0.280 NA
ATOM     17  C   LIG    1       -6.156   6.374  -0.175  0.00  0.00    +0.270 A 
ATOM     18  C   LIG    1       -7.148   6.790   0.870  0.00  0.00    +0.160 C 
ATOM     19  C   LIG    1       -6.474   7.596   2.003  0.00  0.00    +0.060 C 
ATOM     20  C   LIG    1       -5.672   8.736   1.281  0.00  0.00    -0.010 C 
ATOM     21  C   LIG    1       -6.276   9.129  -0.054  0.00  0.00    +0.060 C 
ATOM     22  C   LIG    1       -5.371   8.494  -1.107  0.00  0.00    +0.300 C 
ATOM     23  N   LIG    1       -5.391   7.036  -1.048  0.00  0.00    -0.460 N 
ATOM     24  C   LIG    1       -4.673   6.192  -1.812  0.00  0.00    +0.460 A 
ATOM     25  S   LIG    1       -3.586   6.611  -3.066  0.00  0.00    -0.590 S 
ENDBRANCH  14  15
ENDBRANCH   6  14
TORSDOF 3
