REMARK  Name = ZINCnE000001KDKV.0
REMARK                            x       y       z     vdW  Elec       q    Type
REMARK                         _______ _______ _______ _____ _____    ______ ____
ROOT
ATOM      1  C   LIG    1        1.185   2.086   0.002  0.00  0.00    +0.020 A 
ATOM      2  C   LIG    1        2.398   1.395  -0.013  0.00  0.00    +0.040 A 
ATOM      3  C   LIG    1        2.402   0.015  -0.021  0.00  0.00    +0.000 A 
ATOM      4  C   LIG    1        1.208  -0.683  -0.014  0.00  0.00    +0.010 A 
ATOM      5  C   LIG    1        0.002  -0.004   0.002  0.00  0.00    -0.090 A 
ATOM      6  C   LIG    1       -0.017   1.375   0.010  0.00  0.00    +0.020 A 
ENDROOT
BRANCH   1   8
ATOM      7  C   LIG    1        2.287   4.360   0.003  0.00  0.00    +0.120 A 
ATOM      8  C   LIG    1        1.173   3.563   0.009  0.00  0.00    -0.250 A 
ATOM      9  S   LIG    1       -0.273   4.563   0.020  0.00  0.00    +0.200 S 
ATOM     10  C   LIG    1        0.696   6.030   0.025  0.00  0.00    -0.160 A 
ATOM     11  C   LIG    1        2.027   5.705   0.012  0.00  0.00    -0.040 A 
BRANCH  10  12
ATOM     12  C   LIG    1        0.179   7.348   0.036  0.00  0.00    +0.540 C 
ATOM     13  O   LIG    1       -1.033   7.531   0.048  0.00  0.00    -0.680 OA
ATOM     14  O   LIG    1        0.943   8.306   0.034  0.00  0.00    -0.670 OA
ENDBRANCH  10  12
BRANCH   7  16
ATOM     15  C   LIG    1        4.625   4.799  -0.017  0.00  0.00    +0.230 C 
ATOM     16  O   LIG    1        3.551   3.856  -0.011  0.00  0.00    -0.310 OA
ENDBRANCH   7  16
ENDBRANCH   1   8
BRANCH   5  17
ATOM     17  C   LIG    1       -1.294  -0.773   0.010  0.00  0.00    +0.220 C 
BRANCH  17  18
ATOM     18  O   LIG    1       -1.716  -1.010  -1.334  0.00  0.00    -0.360 OA
BRANCH  18  19
ATOM     19  C   LIG    1       -2.942  -1.736  -1.439  0.00  0.00    +0.130 C 
ATOM     20  C   LIG    1       -3.004  -2.503  -2.783  0.00  0.00    +0.030 C 
ATOM     21  C   LIG    1       -4.481  -2.299  -3.206  0.00  0.00    +0.210 C 
ATOM     22  O   LIG    1       -4.769  -0.949  -2.781  0.00  0.00    -0.370 OA
ATOM     23  C   LIG    1       -4.139  -0.768  -1.502  0.00  0.00    +0.180 C 
ENDBRANCH  18  19
ENDBRANCH  17  18
ENDBRANCH   5  17
TORSDOF 6
