REMARK  Name = ZINCpe000000YUis.0
REMARK                            x       y       z     vdW  Elec       q    Type
REMARK                         _______ _______ _______ _____ _____    ______ ____
ROOT
ATOM      1  C   LIG    1       -1.332   2.113   0.020  0.00  0.00    +0.220 C 
ENDROOT
BRANCH   1   2
ATOM      2  C   LIG    1        0.023   1.463  -0.087  0.00  0.00    -0.090 A 
ATOM      3  C   LIG    1        0.220   0.190   0.415  0.00  0.00    +0.020 A 
ATOM      4  C   LIG    1        1.461  -0.410   0.312  0.00  0.00    +0.050 A 
ATOM      5  C   LIG    1        2.507   0.262  -0.292  0.00  0.00    -0.010 A 
ATOM      6  C   LIG    1        2.311   1.537  -0.794  0.00  0.00    +0.100 A 
ATOM      7  F   LIG    1        3.332   2.196  -1.385  0.00  0.00    -0.140 F 
ATOM      8  C   LIG    1        1.067   2.138  -0.691  0.00  0.00    -0.010 A 
ENDBRANCH   1   2
BRANCH   1   9
ATOM      9  N   LIG    1       -1.277   3.202   1.005  0.00  0.00    -0.520 NA
ATOM     10  C   LIG    1       -0.265   4.200   0.631  0.00  0.00    +0.150 C 
ATOM     11  C   LIG    1       -0.282   5.343   1.649  0.00  0.00    +0.220 C 
ATOM     12  O   LIG    1       -0.061   4.812   2.958  0.00  0.00    -0.380 OA
ATOM     13  C   LIG    1       -1.029   3.837   3.355  0.00  0.00    +0.220 C 
ATOM     14  C   LIG    1       -1.019   2.679   2.354  0.00  0.00    +0.150 C 
ENDBRANCH   1   9
BRANCH   1  15
ATOM     15  C   LIG    1       -1.735   2.679  -1.343  0.00  0.00    +0.280 C 
BRANCH  15  18
ATOM     16  O   LIG    1       -2.998   3.925  -3.373  0.00  0.00    -0.530 OA
ATOM     17  C   LIG    1       -3.546   4.003  -2.294  0.00  0.00    +0.490 C 
ATOM     18  N   LIG    1       -2.995   3.414  -1.214  0.00  0.00    -0.720 N 
ATOM     19  H   LIG    1       -3.434   3.477  -0.351  0.00  0.00    +0.410 HD
BRANCH  17  20
ATOM     20  C   LIG    1       -4.843   4.760  -2.161  0.00  0.00    +0.340 C 
BRANCH  20  21
ATOM     21  N   LIG    1       -5.228   5.301  -3.466  0.00  0.00    -0.600 N 
ATOM     22  C   LIG    1       -6.069   4.526  -4.390  0.00  0.00    +0.380 C 
ATOM     23  S   LIG    1       -5.822   5.382  -5.996  0.00  0.00    -0.230 S 
ATOM     24  C   LIG    1       -5.283   6.961  -5.224  0.00  0.00    +0.170 C 
ATOM     25  C   LIG    1       -4.834   6.510  -3.849  0.00  0.00    +0.520 C 
ATOM     26  O   LIG    1       -4.148   7.214  -3.138  0.00  0.00    -0.510 OA
ENDBRANCH  20  21
ENDBRANCH  17  20
ENDBRANCH  15  18
ENDBRANCH   1  15
TORSDOF 6
