REMARK  Name = ZINCrg00001JduQg.0
REMARK                            x       y       z     vdW  Elec       q    Type
REMARK                         _______ _______ _______ _____ _____    ______ ____
ROOT
ATOM      1  C   LIG    1        3.117   7.564   0.029  0.00  0.00    +0.320 C 
ENDROOT
BRANCH   1   4
ATOM      2  N   LIG    1        1.485   5.705  -0.004  0.00  0.00    -0.720 N 
ATOM      3  H   LIG    1        2.234   5.089   0.021  0.00  0.00    +0.420 HD
ATOM      4  C   LIG    1        1.706   7.035  -0.006  0.00  0.00    +0.490 C 
ATOM      5  O   LIG    1        0.770   7.805  -0.036  0.00  0.00    -0.520 OA
BRANCH   2   6
ATOM      6  C   LIG    1        0.114   5.191  -0.037  0.00  0.00    +0.390 C 
BRANCH   6  13
ATOM      7  C   LIG    1        2.717   1.057   0.058  0.00  0.00    +0.140 C 
ATOM      8  C   LIG    1        1.371   1.735   0.018  0.00  0.00    +0.180 A 
ATOM      9  C   LIG    1        0.232   0.988  -0.008  0.00  0.00    -0.130 A 
ATOM     10  C   LIG    1       -1.010   1.653  -0.051  0.00  0.00    +0.520 A 
ATOM     11  N   LIG    1       -1.020   3.003  -0.054  0.00  0.00    -0.620 N 
ATOM     12  H   LIG    1       -1.863   3.483  -0.080  0.00  0.00    +0.420 HD
ATOM     13  C   LIG    1        0.142   3.684  -0.027  0.00  0.00    +0.390 A 
ATOM     14  O   LIG    1       -2.054   1.023  -0.081  0.00  0.00    -0.530 OA
ATOM     15  N   LIG    1        1.293   3.067   0.008  0.00  0.00    -0.540 NA
ENDBRANCH   6  13
ENDBRANCH   2   6
ENDBRANCH   1   4
BRANCH   1  16
ATOM     16  N   LIG    1        3.090   9.029   0.019  0.00  0.00    -0.570 N 
ATOM     17  C   LIG    1        3.046   9.710   1.181  0.00  0.00    +0.530 C 
ATOM     18  O   LIG    1        3.090  10.922   1.175  0.00  0.00    -0.510 OA
BRANCH  16  19
ATOM     19  C   LIG    1        3.110   9.753  -1.255  0.00  0.00    +0.200 C 
ATOM     20  C   LIG    1        3.480  11.237  -1.217  0.00  0.00    +0.040 C 
ATOM     21  C   LIG    1        2.032  10.815  -1.480  0.00  0.00    +0.010 C 
ENDBRANCH  16  19
BRANCH  17  22
ATOM     22  C   LIG    1        2.941   8.965   2.487  0.00  0.00    +0.160 C 
BRANCH  22  23
ATOM     23  C   LIG    1        2.785   9.951   3.616  0.00  0.00    -0.220 A 
ATOM     24  C   LIG    1        1.629  10.422   4.094  0.00  0.00    +0.090 A 
ATOM     25  N   LIG    1        1.757  11.277   5.088  0.00  0.00    -0.470 NA
ATOM     26  C   LIG    1        2.956  11.555   5.475  0.00  0.00    +0.050 A 
ATOM     27  C   LIG    1        3.304  12.505   6.592  0.00  0.00    +0.180 C 
ATOM     28  C   LIG    1        0.289  10.008   3.542  0.00  0.00    +0.140 C 
ATOM     29  S   LIG    1        4.093  10.681   4.543  0.00  0.00    +0.130 S 
ENDBRANCH  22  23
ENDBRANCH  17  22
ENDBRANCH   1  16
TORSDOF 7
