REMARK  Name = ZINCrD00000hQ56C.0
REMARK                            x       y       z     vdW  Elec       q    Type
REMARK                         _______ _______ _______ _____ _____    ______ ____
ROOT
ATOM      1  C   LIG    1       -0.011   1.090   2.498  0.00  0.00    +0.300 A 
ATOM      2  N   LIG    1       -0.297   0.007   3.176  0.00  0.00    -0.510 NA
ATOM      3  C   LIG    1        0.570  -0.142   4.177  0.00  0.00    +0.200 A 
ATOM      4  N   LIG    1        1.419   0.852   4.158  0.00  0.00    -0.260 NA
ATOM      5  N   LIG    1        1.062   1.670   3.073  0.00  0.00    -0.320 N 
ENDROOT
BRANCH   5   6
ATOM      6  C   LIG    1        1.693   2.849   2.670  0.00  0.00    +0.220 A 
ATOM      7  C   LIG    1        0.964   3.995   2.417  0.00  0.00    -0.010 A 
ATOM      8  C   LIG    1        1.618   5.156   2.017  0.00  0.00    +0.330 A 
ATOM      9  N   LIG    1        2.921   5.197   1.870  0.00  0.00    -0.450 NA
ATOM     10  C   LIG    1        3.686   4.125   2.098  0.00  0.00    +0.090 A 
ATOM     11  C   LIG    1        5.084   4.182   1.936  0.00  0.00    +0.120 A 
ATOM     12  C   LIG    1        5.809   3.052   2.184  0.00  0.00    +0.000 A 
ATOM     13  C   LIG    1        5.164   1.885   2.586  0.00  0.00    +0.310 A 
ATOM     14  N   LIG    1        3.862   1.836   2.735  0.00  0.00    -0.450 NA
ATOM     15  C   LIG    1        3.099   2.907   2.514  0.00  0.00    +0.090 A 
ENDBRANCH   5   6
BRANCH   1  16
ATOM     16  C   LIG    1       -0.755   1.602   1.292  0.00  0.00    +0.150 C 
BRANCH  16  17
ATOM     17  C   LIG    1       -0.058   1.116   0.019  0.00  0.00    +0.030 C 
BRANCH  17  18
ATOM     18  C   LIG    1       -0.813   1.636  -1.206  0.00  0.00    +0.030 C 
BRANCH  18  19
ATOM     19  C   LIG    1       -0.116   1.151  -2.478  0.00  0.00    +0.030 C 
BRANCH  19  21
ATOM     20  C   LIG    1       -0.226   2.353  -4.601  0.00  0.00    +0.000 C 
ATOM     21  C   LIG    1       -0.859   1.663  -3.685  0.00  0.00    -0.050 C 
ENDBRANCH  19  21
ENDBRANCH  18  19
ENDBRANCH  17  18
ENDBRANCH  16  17
ENDBRANCH   1  16
BRANCH   3  22
ATOM     22  C   LIG    1        0.568  -1.271   5.175  0.00  0.00    +0.460 C 
BRANCH  22  23
ATOM     23  N   LIG    1       -0.268  -0.908   6.322  0.00  0.00    -0.460 N 
ATOM     24  C   LIG    1        0.148  -0.271   7.460  0.00  0.00    +0.120 A 
ATOM     25  C   LIG    1       -0.937  -0.131   8.246  0.00  0.00    +0.140 A 
ATOM     26  N   LIG    1       -1.984  -0.676   7.609  0.00  0.00    -0.490 NA
ATOM     27  C   LIG    1       -1.591  -1.143   6.456  0.00  0.00    +0.400 A 
ENDBRANCH  22  23
ENDBRANCH   3  22
TORSDOF 8
