REMARK  Name = ZINCqH0000006E8x.0
REMARK                            x       y       z     vdW  Elec       q    Type
REMARK                         _______ _______ _______ _____ _____    ______ ____
ROOT
ATOM      1  C   LIG    1        1.163   3.574   0.010  0.00  0.00    +0.210 A 
ATOM      2  N   LIG    1        2.206   4.362   0.010  0.00  0.00    -0.370 NA
ATOM      3  O   LIG    1        1.852   5.522   0.013  0.00  0.00    +0.080 OA
ATOM      4  C   LIG    1        0.517   5.593   0.026  0.00  0.00    +0.150 A 
ATOM      5  N   LIG    1        0.066   4.363   0.024  0.00  0.00    -0.460 NA
ENDROOT
BRANCH   1   8
ATOM      6  C   LIG    1        2.403   0.020  -0.021  0.00  0.00    +0.120 A 
ATOM      7  C   LIG    1        2.393   1.405  -0.013  0.00  0.00    -0.030 A 
ATOM      8  C   LIG    1        1.180   2.089   0.002  0.00  0.00    +0.010 A 
ATOM      9  C   LIG    1       -0.017   1.377   0.010  0.00  0.00    +0.030 A 
ATOM     10  C   LIG    1        0.002  -0.004   0.002  0.00  0.00    +0.050 A 
ATOM     11  C   LIG    1        1.206  -0.682  -0.013  0.00  0.00    -0.090 A 
ATOM     12  C   LIG    1        1.219  -2.189  -0.021  0.00  0.00    +0.100 C 
BRANCH   6  14
ATOM     13  C   LIG    1        4.778   0.136  -0.044  0.00  0.00    +0.240 C 
ATOM     14  O   LIG    1        3.585  -0.651  -0.037  0.00  0.00    -0.310 OA
ENDBRANCH   6  14
ENDBRANCH   1   8
BRANCH   4  15
ATOM     15  C   LIG    1       -0.313   6.851   0.040  0.00  0.00    +0.380 C 
BRANCH  15  16
ATOM     16  N   LIG    1       -0.569   7.253   1.429  0.00  0.00    -0.470 NA
ATOM     17  C   LIG    1        0.668   7.737   2.078  0.00  0.00    +0.170 C 
ATOM     18  C   LIG    1        0.595   7.320   3.559  0.00  0.00    +0.020 C 
ATOM     19  C   LIG    1       -0.738   6.548   3.696  0.00  0.00    +0.050 C 
ATOM     20  C   LIG    1       -1.027   6.096   2.242  0.00  0.00    +0.190 C 
BRANCH  20  21
ATOM     21  C   LIG    1       -2.502   5.857   2.043  0.00  0.00    +0.140 A 
ATOM     22  C   LIG    1       -3.023   4.595   2.251  0.00  0.00    -0.030 A 
ATOM     23  C   LIG    1       -4.382   4.386   2.070  0.00  0.00    +0.060 A 
ATOM     24  C   LIG    1       -5.167   5.458   1.674  0.00  0.00    -0.050 A 
ATOM     25  C   LIG    1       -4.574   6.691   1.480  0.00  0.00    +0.260 A 
ATOM     26  N   LIG    1       -3.279   6.854   1.667  0.00  0.00    -0.450 NA
ENDBRANCH  20  21
ENDBRANCH  15  16
ENDBRANCH   4  15
TORSDOF 5
