REMARK  Name = ZINCqH0000002peB.0
REMARK                            x       y       z     vdW  Elec       q    Type
REMARK                         _______ _______ _______ _____ _____    ______ ____
ROOT
ATOM      1  N   LIG    1       -1.696   7.504   0.056  0.00  0.00    -0.670 N 
ATOM      2  H   LIG    1       -1.469   6.698  -0.434  0.00  0.00    +0.420 HD
ATOM      3  C   LIG    1       -0.725   8.237   0.636  0.00  0.00    +0.510 C 
ATOM      4  O   LIG    1       -0.999   9.287   1.176  0.00  0.00    -0.520 OA
ENDROOT
BRANCH   1   8
ATOM      5  C   LIG    1       -5.675   8.699   0.367  0.00  0.00    -0.090 A 
ATOM      6  C   LIG    1       -4.675   9.649   0.268  0.00  0.00    +0.030 A 
ATOM      7  C   LIG    1       -3.355   9.256   0.165  0.00  0.00    +0.020 A 
ATOM      8  C   LIG    1       -3.033   7.905   0.161  0.00  0.00    +0.130 A 
ATOM      9  C   LIG    1       -4.040   6.954   0.256  0.00  0.00    -0.010 A 
ATOM     10  C   LIG    1       -5.357   7.353   0.363  0.00  0.00    +0.030 A 
BRANCH   5  11
ATOM     11  C   LIG    1       -7.115   9.131   0.478  0.00  0.00    +0.060 C 
BRANCH  11  12
ATOM     12  C   LIG    1       -7.721   9.253  -0.921  0.00  0.00    +0.010 C 
BRANCH  12  13
ATOM     13  C   LIG    1       -9.182   9.692  -0.808  0.00  0.00    +0.000 C 
BRANCH  13  15
ATOM     14  C   LIG    1      -11.249  10.252  -2.095  0.00  0.00    +0.000 C 
ATOM     15  C   LIG    1       -9.788   9.813  -2.208  0.00  0.00    -0.010 C 
ENDBRANCH  13  15
ENDBRANCH  12  13
ENDBRANCH  11  12
ENDBRANCH   5  11
ENDBRANCH   1   8
BRANCH   3  16
ATOM     16  C   LIG    1        0.701   7.751   0.613  0.00  0.00    +0.310 C 
BRANCH  16  17
ATOM     17  N   LIG    1        1.558   8.717   1.303  0.00  0.00    -0.720 N 
ATOM     18  H   LIG    1        1.172   9.521   1.686  0.00  0.00    +0.410 HD
ATOM     19  C   LIG    1        2.882   8.491   1.407  0.00  0.00    +0.570 C 
ATOM     20  O   LIG    1        3.366   7.484   0.928  0.00  0.00    -0.520 OA
BRANCH  19  21
ATOM     21  C   LIG    1        3.745   9.464   2.103  0.00  0.00    -0.180 A 
ATOM     22  C   LIG    1        3.193  10.623   2.655  0.00  0.00    +0.080 A 
ATOM     23  C   LIG    1        4.005  11.528   3.304  0.00  0.00    -0.040 A 
ATOM     24  C   LIG    1        5.366  11.295   3.412  0.00  0.00    +0.080 A 
ATOM     25  C   LIG    1        5.924  10.154   2.870  0.00  0.00    -0.080 A 
ATOM     26  C   LIG    1        5.123   9.232   2.214  0.00  0.00    +0.190 A 
BRANCH  26  27
ATOM     27  O   LIG    1        5.670   8.111   1.682  0.00  0.00    -0.280 OA
ATOM     28  C   LIG    1        7.081   7.942   1.834  0.00  0.00    +0.240 C 
ENDBRANCH  26  27
ENDBRANCH  19  21
ENDBRANCH  16  17
ENDBRANCH   3  16
TORSDOF 9
