REMARK  Name = ZINCqH0000008kVi.0
REMARK                            x       y       z     vdW  Elec       q    Type
REMARK                         _______ _______ _______ _____ _____    ______ ____
ROOT
ATOM      1  C   LIG    1        3.558   1.790  -0.124  0.00  0.00    +0.510 C 
ATOM      2  N   LIG    1        2.403   1.103  -0.015  0.00  0.00    -0.660 N 
ATOM      3  H   LIG    1        2.419   0.135   0.048  0.00  0.00    +0.410 HD
ATOM      4  O   LIG    1        3.545   3.003  -0.117  0.00  0.00    -0.520 OA
ENDROOT
BRANCH   2   5
ATOM      5  C   LIG    1        1.181   1.787   0.008  0.00  0.00    +0.100 A 
ATOM      6  C   LIG    1        0.059   1.225  -0.586  0.00  0.00    +0.030 A 
ATOM      7  C   LIG    1       -1.144   1.902  -0.568  0.00  0.00    -0.060 A 
ATOM      8  C   LIG    1       -1.236   3.138   0.054  0.00  0.00    +0.120 A 
ATOM      9  C   LIG    1       -0.115   3.701   0.648  0.00  0.00    +0.010 A 
ATOM     10  C   LIG    1        1.090   3.027   0.626  0.00  0.00    +0.070 A 
BRANCH   8  11
ATOM     11  O   LIG    1       -2.422   3.802   0.076  0.00  0.00    -0.310 OA
BRANCH  11  12
ATOM     12  C   LIG    1       -3.534   3.164  -0.555  0.00  0.00    +0.240 C 
BRANCH  12  13
ATOM     13  C   LIG    1       -4.753   4.042  -0.431  0.00  0.00    -0.100 A 
ATOM     14  C   LIG    1       -5.595   3.905   0.656  0.00  0.00    +0.020 A 
ATOM     15  C   LIG    1       -6.711   4.714   0.772  0.00  0.00    +0.010 A 
ATOM     16  C   LIG    1       -6.989   5.651  -0.205  0.00  0.00    +0.020 A 
ATOM     17  C   LIG    1       -6.151   5.783  -1.295  0.00  0.00    +0.010 A 
ATOM     18  C   LIG    1       -5.032   4.979  -1.409  0.00  0.00    +0.020 A 
ENDBRANCH  12  13
ENDBRANCH  11  12
ENDBRANCH   8  11
ENDBRANCH   2   5
BRANCH   1  20
ATOM     19  C   LIG    1        4.834   0.177  -1.509  0.00  0.00    +0.060 C 
ATOM     20  C   LIG    1        4.865   1.051  -0.253  0.00  0.00    +0.250 C 
BRANCH  20  21
ATOM     21  N   LIG    1        5.963   2.015  -0.356  0.00  0.00    -0.710 N 
ATOM     22  H   LIG    1        5.793   2.909  -0.692  0.00  0.00    +0.410 HD
ATOM     23  C   LIG    1        7.208   1.660   0.018  0.00  0.00    +0.530 C 
ATOM     24  O   LIG    1        7.420   0.543   0.439  0.00  0.00    -0.540 OA
BRANCH  23  25
ATOM     25  C   LIG    1        8.338   2.652  -0.087  0.00  0.00    -0.080 C 
ATOM     26  C   LIG    1        8.026   3.874   0.779  0.00  0.00    +0.050 C 
ATOM     27  C   LIG    1        8.499   3.088  -1.545  0.00  0.00    +0.050 C 
ATOM     28  C   LIG    1        9.635   2.001   0.397  0.00  0.00    +0.050 C 
ENDBRANCH  23  25
ENDBRANCH  20  21
ENDBRANCH   1  20
TORSDOF 7
