REMARK  Name = ZINCrD000000Dbu8.0
REMARK                            x       y       z     vdW  Elec       q    Type
REMARK                         _______ _______ _______ _____ _____    ______ ____
ROOT
ATOM      1  O   LIG    1        8.881  -5.882  -0.619  0.00  0.00    -0.500 OA
ATOM      2  C   LIG    1        7.701  -5.640  -0.418  0.00  0.00    +0.520 A 
ATOM      3  C   LIG    1        7.247  -4.314  -0.391  0.00  0.00    -0.140 A 
ATOM      4  C   LIG    1        5.905  -4.068  -0.161  0.00  0.00    +0.230 A 
ATOM      5  C   LIG    1        5.028  -5.153   0.047  0.00  0.00    +0.280 A 
ATOM      6  N   LIG    1        5.473  -6.378   0.012  0.00  0.00    -0.200 NA
ATOM      7 CL   LIG    1        8.352  -2.999  -0.643  0.00  0.00    -0.000 Cl
ATOM      8  N   LIG    1        6.827  -6.646  -0.219  0.00  0.00    -0.370 N 
ENDROOT
BRANCH   4   9
ATOM      9  N   LIG    1        5.428  -2.768  -0.128  0.00  0.00    -0.650 N 
ATOM     10  C   LIG    1        4.850  -2.206   1.102  0.00  0.00    +0.310 C 
ATOM     11  C   LIG    1        3.484  -1.599   0.765  0.00  0.00    +0.180 C 
ATOM     12  N   LIG    1        3.635  -0.645  -0.342  0.00  0.00    -0.500 N 
ATOM     13  C   LIG    1        4.096  -1.317  -1.565  0.00  0.00    +0.190 C 
ATOM     14  C   LIG    1        5.487  -1.912  -1.323  0.00  0.00    +0.300 C 
BRANCH  12  15
ATOM     15  C   LIG    1        2.443   0.050  -0.571  0.00  0.00    +0.050 A 
ATOM     16  C   LIG    1        1.289  -0.642  -0.911  0.00  0.00    +0.010 A 
ATOM     17  C   LIG    1        0.112   0.047  -1.136  0.00  0.00    +0.010 A 
ATOM     18  C   LIG    1        0.083   1.425  -1.023  0.00  0.00    +0.040 A 
ATOM     19  C   LIG    1        1.231   2.119  -0.685  0.00  0.00    -0.010 A 
ATOM     20  C   LIG    1        2.412   1.436  -0.458  0.00  0.00    +0.130 A 
ATOM     21  F   LIG    1        3.532   2.113  -0.127  0.00  0.00    -0.130 F 
ENDBRANCH  12  15
ENDBRANCH   4   9
BRANCH   8  22
ATOM     22  C   LIG    1        7.277  -7.971  -0.245  0.00  0.00    +0.140 A 
ATOM     23  C   LIG    1        8.079  -8.413  -1.290  0.00  0.00    +0.040 A 
ATOM     24  C   LIG    1        8.526  -9.720  -1.309  0.00  0.00    +0.020 A 
ATOM     25  C   LIG    1        8.166 -10.591  -0.297  0.00  0.00    +0.020 A 
ATOM     26  C   LIG    1        7.364 -10.155   0.742  0.00  0.00    +0.020 A 
ATOM     27  C   LIG    1        6.918  -8.848   0.770  0.00  0.00    +0.030 A 
ENDBRANCH   8  22
TORSDOF 3
