REMARK  Name = ZINCrg00001Jdv7C.0
REMARK                            x       y       z     vdW  Elec       q    Type
REMARK                         _______ _______ _______ _____ _____    ______ ____
ROOT
ATOM      1  C   LIG    1        1.672  -1.855  -0.024  0.00  0.00    +0.030 A 
ATOM      2  C   LIG    1        3.030  -2.169  -0.045  0.00  0.00    +0.050 A 
ATOM      3  C   LIG    1        3.430  -3.490  -0.050  0.00  0.00    +0.130 A 
ATOM      4  C   LIG    1        2.486  -4.501  -0.046  0.00  0.00    -0.660 A 
ATOM      5  C   LIG    1        1.137  -4.195  -0.032  0.00  0.00    +0.130 A 
ATOM      6  C   LIG    1        0.726  -2.878  -0.021  0.00  0.00    +0.040 A 
ENDROOT
BRANCH   1   9
ATOM      7  C   LIG    1        1.235   1.683  -0.001  0.00  0.00    +0.200 A 
ATOM      8  N   LIG    1        2.040   0.650  -0.014  0.00  0.00    -0.460 NA
ATOM      9  C   LIG    1        1.236  -0.437  -0.012  0.00  0.00    +0.200 A 
ATOM     10  N   LIG    1        0.002  -0.004   0.002  0.00  0.00    -0.360 NA
ATOM     11  O   LIG    1       -0.014   1.209   0.009  0.00  0.00    +0.110 OA
BRANCH   7  17
ATOM     12  N   LIG    1        0.817   3.877  -0.962  0.00  0.00    -0.530 NA
ATOM     13  C   LIG    1        1.167   5.305  -0.956  0.00  0.00    +0.170 C 
ATOM     14  C   LIG    1        0.964   5.869   0.453  0.00  0.00    +0.240 C 
ATOM     15  O   LIG    1        1.749   5.115   1.381  0.00  0.00    -0.370 OA
ATOM     16  C   LIG    1        1.433   3.720   1.402  0.00  0.00    +0.250 C 
ATOM     17  C   LIG    1        1.641   3.135   0.003  0.00  0.00    +0.240 C 
BRANCH  12  19
ATOM     18  C   LIG    1       -0.105   3.939  -3.230  0.00  0.00    +0.040 C 
ATOM     19  C   LIG    1        0.944   3.310  -2.310  0.00  0.00    +0.160 C 
ENDBRANCH  12  19
ENDBRANCH   7  17
ENDBRANCH   1   9
BRANCH   4  20
ATOM     20  S   LIG    1        3.004  -6.185  -0.061  0.00  0.00    +2.700 S 
ATOM     21  O   LIG    1        1.932  -6.939   0.489  0.00  0.00    -0.950 OA
ATOM     22  O   LIG    1        4.321  -6.205   0.471  0.00  0.00    -0.950 OA
BRANCH  20  23
ATOM     23  N   LIG    1        3.133  -6.645  -1.647  0.00  0.00    -1.110 NA
ATOM     24  H   LIG    1        2.544  -7.328  -2.003  0.00  0.00    +0.420 HD
BRANCH  23  25
ATOM     25  C   LIG    1        4.137  -6.020  -2.511  0.00  0.00    +0.300 C 
BRANCH  25  26
ATOM     26  C   LIG    1        4.307  -6.855  -3.782  0.00  0.00    +0.180 C 
BRANCH  26  27
ATOM     27  O   LIG    1        3.093  -6.831  -4.534  0.00  0.00    -0.390 OA
ATOM     28  C   LIG    1        3.145  -7.585  -5.747  0.00  0.00    +0.200 C 
ENDBRANCH  26  27
ENDBRANCH  25  26
ENDBRANCH  23  25
ENDBRANCH  20  23
ENDBRANCH   4  20
TORSDOF 8
