REMARK  Name = ZINCpk000000mZKN.0
REMARK                            x       y       z     vdW  Elec       q    Type
REMARK                         _______ _______ _______ _____ _____    ______ ____
ROOT
ATOM      1  C   LIG    1       -1.324   7.437   0.045  0.00  0.00    +0.310 C 
ENDROOT
BRANCH   1   2
ATOM      2  N   LIG    1       -1.301   5.973   0.028  0.00  0.00    -0.710 N 
ATOM      3  H   LIG    1       -2.133   5.474   0.032  0.00  0.00    +0.420 HD
ATOM      4  C   LIG    1       -0.123   5.318   0.005  0.00  0.00    +0.560 C 
ATOM      5  O   LIG    1        0.920   5.942  -0.001  0.00  0.00    -0.520 OA
BRANCH   4   6
ATOM      6  C   LIG    1       -0.100   3.846  -0.013  0.00  0.00    +0.080 A 
ATOM      7  C   LIG    1        1.104   3.178  -0.036  0.00  0.00    +0.110 A 
ATOM      8  C   LIG    1        1.126   1.779  -0.052  0.00  0.00    +0.090 A 
ATOM      9  C   LIG    1       -0.046   1.083  -0.045  0.00  0.00    +0.100 A 
ATOM     10  C   LIG    1       -1.270   1.777  -0.027  0.00  0.00    +0.280 A 
ATOM     11  N   LIG    1       -2.535   1.374  -0.009  0.00  0.00    -0.530 NA
ATOM     12  C   LIG    1       -3.340   2.425   0.013  0.00  0.00    +0.480 A 
ATOM     13  N   LIG    1       -2.625   3.527   0.017  0.00  0.00    -0.350 NA
ATOM     14  N   LIG    1       -1.277   3.143  -0.006  0.00  0.00    -0.280 N 
ENDBRANCH   4   6
ENDBRANCH   1   2
BRANCH   1  15
ATOM     15  C   LIG    1       -2.775   7.924   0.069  0.00  0.00    +0.210 C 
BRANCH  15  16
ATOM     16  O   LIG    1       -3.392   7.522   1.294  0.00  0.00    -0.320 OA
BRANCH  16  22
ATOM     17  C   LIG    1       -5.358   7.513   2.644  0.00  0.00    +0.120 A 
ATOM     18  C   LIG    1       -6.682   7.883   2.826  0.00  0.00    +0.050 A 
ATOM     19  C   LIG    1       -7.340   8.602   1.845  0.00  0.00    +0.000 A 
ATOM     20  C   LIG    1       -6.680   8.958   0.685  0.00  0.00    +0.030 A 
ATOM     21  C   LIG    1       -5.358   8.598   0.498  0.00  0.00    -0.060 A 
ATOM     22  C   LIG    1       -4.692   7.877   1.476  0.00  0.00    +0.100 A 
BRANCH  17  25
ATOM     23  C   LIG    1       -4.690   5.326   5.635  0.00  0.00    +0.110 C 
ATOM     24  C   LIG    1       -5.393   6.015   4.494  0.00  0.00    +0.510 C 
ATOM     25  N   LIG    1       -4.691   6.780   3.634  0.00  0.00    -0.660 N 
ATOM     26  H   LIG    1       -3.724   6.822   3.700  0.00  0.00    +0.410 HD
ATOM     27  O   LIG    1       -6.590   5.882   4.350  0.00  0.00    -0.530 OA
ENDBRANCH  17  25
ENDBRANCH  16  22
ENDBRANCH  15  16
ENDBRANCH   1  15
TORSDOF 6
