REMARK  Name = ZINCrD000000Deo7.0
REMARK                            x       y       z     vdW  Elec       q    Type
REMARK                         _______ _______ _______ _____ _____    ______ ____
ROOT
ATOM      1  C   LIG    1       -0.016   1.333   0.009  0.00  0.00    -0.060 A 
ATOM      2  C   LIG    1        1.276   1.736  -0.001  0.00  0.00    +0.180 A 
ATOM      3  N   LIG    1        2.022   0.607  -0.014  0.00  0.00    -0.290 N 
ATOM      4  N   LIG    1        1.225  -0.404  -0.012  0.00  0.00    -0.070 NA
ATOM      5  N   LIG    1        0.002  -0.004   0.002  0.00  0.00    -0.240 NA
ENDROOT
BRANCH   1   6
ATOM      6  C   LIG    1       -1.236   2.219   0.020  0.00  0.00    +0.370 C 
BRANCH   6   7
ATOM      7  C   LIG    1       -2.127   1.860  -1.141  0.00  0.00    -0.110 A 
ATOM      8  C   LIG    1       -1.840   2.338  -2.405  0.00  0.00    +0.050 A 
ATOM      9  C   LIG    1       -2.655   2.005  -3.472  0.00  0.00    +0.020 A 
ATOM     10  C   LIG    1       -3.763   1.203  -3.271  0.00  0.00    +0.070 A 
ATOM     11  C   LIG    1       -4.052   0.729  -2.005  0.00  0.00    -0.180 A 
ATOM     12  C   LIG    1       -3.235   1.058  -0.940  0.00  0.00    +0.100 A 
BRANCH  11  13
ATOM     13  C   LIG    1       -5.260  -0.145  -1.786  0.00  0.00    +0.510 C 
ATOM     14  F   LIG    1       -5.015  -1.021  -0.722  0.00  0.00    -0.170 F 
ATOM     15  F   LIG    1       -5.519  -0.882  -2.946  0.00  0.00    -0.180 F 
ATOM     16  F   LIG    1       -6.367   0.655  -1.485  0.00  0.00    -0.180 F 
ENDBRANCH  11  13
ENDBRANCH   6   7
BRANCH   6  17
ATOM     17  O   LIG    1       -0.833   3.585  -0.092  0.00  0.00    -0.540 OA
ATOM     18  H   LIG    1       -0.343   3.785  -0.901  0.00  0.00    +0.380 HD
ENDBRANCH   6  17
ENDBRANCH   1   6
BRANCH   3  19
ATOM     19  C   LIG    1        3.486   0.545  -0.029  0.00  0.00    +0.460 C 
BRANCH  19  20
ATOM     20  C   LIG    1        3.965  -0.297   1.126  0.00  0.00    +0.250 A 
ATOM     21  N   LIG    1        3.662  -0.091   2.374  0.00  0.00    -0.460 NA
ATOM     22  C   LIG    1        4.257  -1.034   3.150  0.00  0.00    +0.040 A 
ATOM     23  C   LIG    1        4.269  -1.283   4.524  0.00  0.00    +0.070 A 
ATOM     24  C   LIG    1        4.987  -2.335   5.019  0.00  0.00    +0.000 A 
ATOM     25  C   LIG    1        5.708  -3.162   4.169  0.00  0.00    +0.040 A 
ATOM     26  C   LIG    1        5.710  -2.934   2.809  0.00  0.00    +0.020 A 
ATOM     27  C   LIG    1        4.987  -1.871   2.288  0.00  0.00    +0.060 A 
ATOM     28  N   LIG    1        4.782  -1.379   1.015  0.00  0.00    -0.590 N 
ATOM     29  H   LIG    1        5.152  -1.738   0.193  0.00  0.00    +0.430 HD
ENDBRANCH  19  20
ENDBRANCH   3  19
TORSDOF 6
