REMARK  Name = ZINCvU0000000ErN.0
REMARK                            x       y       z     vdW  Elec       q    Type
REMARK                         _______ _______ _______ _____ _____    ______ ____
ROOT
ATOM      1  O   LIG    1        1.076  -0.573   0.025  0.00  0.00    -0.490 OA
ATOM      2  C   LIG    1        0.012   0.008   0.063  0.00  0.00    +0.520 C 
ATOM      3  N   LIG    1       -0.024   1.354   0.005  0.00  0.00    -0.580 N 
ENDROOT
BRANCH   3   4
ATOM      4  C   LIG    1        1.226   2.119  -0.024  0.00  0.00    +0.210 C 
ATOM      5  C   LIG    1        2.507   1.366  -0.388  0.00  0.00    +0.050 C 
ATOM      6  C   LIG    1        2.266   1.815   1.056  0.00  0.00    +0.000 C 
ENDBRANCH   3   4
BRANCH   3   7
ATOM      7  C   LIG    1       -1.311   2.052  -0.035  0.00  0.00    +0.470 C 
BRANCH   7   8
ATOM      8  C   LIG    1       -1.763   2.353   1.371  0.00  0.00    +0.140 A 
ATOM      9  N   LIG    1       -1.487   3.427   2.055  0.00  0.00    -0.260 NA
ATOM     10  N   LIG    1       -2.037   3.351   3.216  0.00  0.00    -0.270 NA
ATOM     11  C   LIG    1       -2.681   2.212   3.316  0.00  0.00    +0.210 A 
ATOM     12  O   LIG    1       -2.519   1.558   2.148  0.00  0.00    -0.200 OA
BRANCH  11  13
ATOM     13  C   LIG    1       -3.441   1.734   4.490  0.00  0.00    -0.020 A 
ATOM     14  C   LIG    1       -3.524   2.522   5.639  0.00  0.00    +0.100 A 
ATOM     15  C   LIG    1       -4.236   2.071   6.732  0.00  0.00    +0.030 A 
ATOM     16  C   LIG    1       -4.867   0.840   6.691  0.00  0.00    +0.060 A 
ATOM     17  C   LIG    1       -4.789   0.053   5.556  0.00  0.00    +0.040 A 
ATOM     18  C   LIG    1       -4.085   0.495   4.453  0.00  0.00    -0.010 A 
ATOM     19 CL   LIG    1       -3.994  -0.490   3.027  0.00  0.00    -0.050 Cl
ENDBRANCH  11  13
ENDBRANCH   7   8
ENDBRANCH   3   7
BRANCH   2  20
ATOM     20  C   LIG    1       -1.271  -0.775   0.175  0.00  0.00    +0.160 C 
BRANCH  20  21
ATOM     21  C   LIG    1       -0.953  -2.239   0.341  0.00  0.00    +0.090 A 
ATOM     22  C   LIG    1       -1.420  -2.954   1.369  0.00  0.00    -0.080 A 
ATOM     23  S   LIG    1       -0.832  -4.607   1.202  0.00  0.00    +0.100 S 
ATOM     24  C   LIG    1        0.015  -4.152  -0.274  0.00  0.00    +0.120 A 
ATOM     25  N   LIG    1       -0.196  -2.889  -0.512  0.00  0.00    -0.440 NA
BRANCH  24  26
ATOM     26  C   LIG    1        0.834  -5.057  -1.108  0.00  0.00    -0.030 A 
ATOM     27  C   LIG    1        1.453  -4.578  -2.263  0.00  0.00    +0.070 A 
ATOM     28  C   LIG    1        2.220  -5.427  -3.034  0.00  0.00    +0.010 A 
ATOM     29  C   LIG    1        2.367  -6.754  -2.670  0.00  0.00    +0.030 A 
ATOM     30  C   LIG    1        1.751  -7.237  -1.529  0.00  0.00    +0.010 A 
ATOM     31  C   LIG    1        0.986  -6.397  -0.747  0.00  0.00    +0.020 A 
ENDBRANCH  24  26
ENDBRANCH  20  21
ENDBRANCH   2  20
TORSDOF 7
