REMARK  Name = ZINCvU0000000Amd.0
REMARK                            x       y       z     vdW  Elec       q    Type
REMARK                         _______ _______ _______ _____ _____    ______ ____
ROOT
ATOM      1  C   LIG    1        3.498   1.163  -0.025  0.00  0.00    +0.580 C 
ATOM      2  N   LIG    1        2.166   0.958  -0.013  0.00  0.00    -0.460 N 
ATOM      3  N   LIG    1        1.193   1.955   0.001  0.00  0.00    -0.230 NA
ATOM      4  C   LIG    1       -0.018   1.508   0.010  0.00  0.00    +0.180 C 
ATOM      5  C   LIG    1        0.002  -0.004   0.002  0.00  0.00    +0.100 C 
ATOM      6  C   LIG    1        1.503  -0.355  -0.014  0.00  0.00    +0.310 C 
ATOM      7  O   LIG    1        4.258   0.217  -0.037  0.00  0.00    -0.490 OA
ENDROOT
BRANCH   4   8
ATOM      8  C   LIG    1       -1.227   2.338   0.021  0.00  0.00    -0.160 A 
ATOM      9  C   LIG    1       -1.248   3.701   0.028  0.00  0.00    +0.070 A 
ATOM     10  C   LIG    1       -2.510   4.251   0.038  0.00  0.00    +0.010 A 
ATOM     11  C   LIG    1       -3.516   3.370   0.038  0.00  0.00    -0.030 A 
ATOM     12  S   LIG    1       -2.878   1.731   0.018  0.00  0.00    +0.160 S 
ENDBRANCH   4   8
BRANCH   6  13
ATOM     13  C   LIG    1        1.853  -1.129  -1.259  0.00  0.00    -0.200 A 
ATOM     14  C   LIG    1        2.007  -2.452  -1.325  0.00  0.00    +0.030 A 
ATOM     15  C   LIG    1        2.326  -2.941  -2.580  0.00  0.00    +0.000 A 
ATOM     16  C   LIG    1        2.439  -2.014  -3.532  0.00  0.00    -0.030 A 
ATOM     17  S   LIG    1        2.128  -0.424  -2.847  0.00  0.00    +0.110 S 
ENDBRANCH   6  13
BRANCH   1  18
ATOM     18  C   LIG    1        4.044   2.568  -0.022  0.00  0.00    +0.130 C 
BRANCH  18  19
ATOM     19  S   LIG    1        5.853   2.512  -0.039  0.00  0.00    +0.150 S 
BRANCH  19  23
ATOM     20  C   LIG    1        7.245   6.133  -0.034  0.00  0.00    +0.220 A 
ATOM     21  N   LIG    1        5.951   6.343  -0.021  0.00  0.00    -0.260 NA
ATOM     22  N   LIG    1        5.335   5.213  -0.026  0.00  0.00    -0.280 NA
ATOM     23  C   LIG    1        6.213   4.237  -0.034  0.00  0.00    +0.120 A 
ATOM     24  O   LIG    1        7.438   4.796  -0.042  0.00  0.00    -0.200 OA
BRANCH  20  30
ATOM     25  C   LIG    1        8.570  10.944  -0.023  0.00  0.00    +0.100 C 
ATOM     26  C   LIG    1        8.942   9.483  -0.034  0.00  0.00    -0.090 A 
ATOM     27  C   LIG    1       10.274   9.110  -0.048  0.00  0.00    +0.040 A 
ATOM     28  C   LIG    1       10.624   7.771  -0.058  0.00  0.00    +0.010 A 
ATOM     29  C   LIG    1        9.645   6.799  -0.048  0.00  0.00    +0.040 A 
ATOM     30  C   LIG    1        8.299   7.169  -0.039  0.00  0.00    -0.020 A 
ATOM     31  C   LIG    1        7.953   8.521  -0.029  0.00  0.00    +0.070 A 
ENDBRANCH  20  30
ENDBRANCH  19  23
ENDBRANCH  18  19
ENDBRANCH   1  18
TORSDOF 6
