REMARK  Name = ZINCqH0000033NX4.0
REMARK                            x       y       z     vdW  Elec       q    Type
REMARK                         _______ _______ _______ _____ _____    ______ ____
ROOT
ATOM      1  N   LIG    1        5.531  -1.028  -1.886  0.00  0.00    -0.680 N 
ATOM      2  H   LIG    1        6.171  -1.160  -1.169  0.00  0.00    +0.410 HD
ATOM      3  C   LIG    1        4.409  -0.315  -1.665  0.00  0.00    +0.510 C 
ATOM      4  O   LIG    1        3.651  -0.077  -2.581  0.00  0.00    -0.500 OA
ENDROOT
BRANCH   1   8
ATOM      5  C   LIG    1        6.251  -2.668  -5.653  0.00  0.00    +0.120 A 
ATOM      6  C   LIG    1        5.620  -1.436  -5.541  0.00  0.00    +0.020 A 
ATOM      7  C   LIG    1        5.382  -0.893  -4.294  0.00  0.00    +0.040 A 
ATOM      8  C   LIG    1        5.773  -1.579  -3.152  0.00  0.00    +0.140 A 
ATOM      9  C   LIG    1        6.409  -2.808  -3.264  0.00  0.00    +0.010 A 
ATOM     10  C   LIG    1        6.642  -3.354  -4.510  0.00  0.00    +0.030 A 
BRANCH   5  11
ATOM     11  N   LIG    1        6.494  -3.217  -6.916  0.00  0.00    -1.060 N 
ATOM     12  H   LIG    1        5.797  -3.208  -7.591  0.00  0.00    +0.430 HD
BRANCH  11  13
ATOM     13  S   LIG    1        7.970  -3.885  -7.259  0.00  0.00    +2.610 S 
ATOM     14  O   LIG    1        7.862  -4.296  -8.615  0.00  0.00    -0.950 OA
ATOM     15  O   LIG    1        8.176  -4.832  -6.221  0.00  0.00    -0.950 OA
BRANCH  13  17
ATOM     16  C   LIG    1       10.534  -2.970  -7.520  0.00  0.00    +0.070 C 
ATOM     17  C   LIG    1        9.138  -2.506  -7.104  0.00  0.00    -0.370 C 
ENDBRANCH  13  17
ENDBRANCH  11  13
ENDBRANCH   5  11
ENDBRANCH   1   8
BRANCH   3  18
ATOM     18  C   LIG    1        4.097   0.188  -0.279  0.00  0.00    +0.120 C 
BRANCH  18  19
ATOM     19  C   LIG    1        2.797   0.950  -0.302  0.00  0.00    -0.060 A 
ATOM     20  C   LIG    1        2.800   2.304  -0.440  0.00  0.00    +0.020 A 
ATOM     21  C   LIG    1        1.608   3.026  -0.464  0.00  0.00    +0.000 A 
ATOM     22  C   LIG    1        0.406   2.398  -0.350  0.00  0.00    +0.030 A 
ATOM     23  C   LIG    1        0.362   1.001  -0.206  0.00  0.00    -0.050 A 
ATOM     24  C   LIG    1       -0.859   0.317  -0.086  0.00  0.00    +0.030 A 
ATOM     25  C   LIG    1       -0.862  -1.037   0.053  0.00  0.00    +0.000 A 
ATOM     26  C   LIG    1        0.329  -1.759   0.076  0.00  0.00    +0.010 A 
ATOM     27  C   LIG    1        1.532  -1.130  -0.038  0.00  0.00    +0.010 A 
ATOM     28  C   LIG    1        1.575   0.267  -0.182  0.00  0.00    -0.030 A 
ENDBRANCH  18  19
ENDBRANCH   3  18
TORSDOF 6
