REMARK  Name = ZINCtV000002K7n7.0
REMARK                            x       y       z     vdW  Elec       q    Type
REMARK                         _______ _______ _______ _____ _____    ______ ____
ROOT
ATOM      1  C   LIG    1       -7.361   4.976   0.454  0.00  0.00    +0.190 C 
ATOM      2  C   LIG    1       -6.267   5.935   0.849  0.00  0.00    +0.350 A 
ATOM      3  N   LIG    1       -5.013   5.523   0.813  0.00  0.00    -0.530 NA
ATOM      4  C   LIG    1       -4.016   6.326   1.156  0.00  0.00    +0.200 A 
ATOM      5  C   LIG    1       -4.314   7.657   1.557  0.00  0.00    -0.170 A 
ATOM      6  C   LIG    1       -3.434   8.729   1.971  0.00  0.00    +0.070 A 
ATOM      7  C   LIG    1       -4.055   9.866   2.284  0.00  0.00    -0.120 A 
ATOM      8  S   LIG    1       -5.792   9.714   2.095  0.00  0.00    +0.200 S 
ATOM      9  C   LIG    1       -5.658   8.042   1.572  0.00  0.00    +0.100 A 
ATOM     10  N   LIG    1       -6.593   7.154   1.212  0.00  0.00    -0.490 NA
ENDROOT
BRANCH   7  11
ATOM     11  C   LIG    1       -3.368  11.096   2.732  0.00  0.00    -0.030 A 
ATOM     12  C   LIG    1       -1.978  11.117   2.857  0.00  0.00    +0.030 A 
ATOM     13  C   LIG    1       -1.343  12.270   3.271  0.00  0.00    +0.020 A 
ATOM     14  C   LIG    1       -2.082  13.400   3.572  0.00  0.00    +0.020 A 
ATOM     15  C   LIG    1       -3.460  13.384   3.456  0.00  0.00    +0.020 A 
ATOM     16  C   LIG    1       -4.107  12.240   3.038  0.00  0.00    +0.010 A 
ENDBRANCH   7  11
BRANCH   4  17
ATOM     17  S   LIG    1       -2.350   5.757   1.108  0.00  0.00    +0.070 S 
BRANCH  17  18
ATOM     18  C   LIG    1       -2.615   4.057   0.543  0.00  0.00    +0.110 C 
BRANCH  18  19
ATOM     19  C   LIG    1       -1.287   3.354   0.426  0.00  0.00    +0.540 C 
ATOM     20  N   LIG    1       -1.238   2.070   0.019  0.00  0.00    -0.680 N 
ATOM     21  H   LIG    1       -2.049   1.621  -0.267  0.00  0.00    +0.420 HD
ATOM     22  O   LIG    1       -0.262   3.944   0.697  0.00  0.00    -0.500 OA
BRANCH  20  23
ATOM     23  C   LIG    1       -0.017   1.385   0.010  0.00  0.00    +0.150 A 
ATOM     24  C   LIG    1        0.775   1.389  -1.131  0.00  0.00    -0.020 A 
ATOM     25  C   LIG    1        1.978   0.707  -1.139  0.00  0.00    +0.050 A 
ATOM     26  C   LIG    1        2.392   0.021  -0.012  0.00  0.00    +0.070 A 
ATOM     27  C   LIG    1        1.606   0.015   1.126  0.00  0.00    +0.050 A 
ATOM     28 CL   LIG    1        0.256   2.250  -2.547  0.00  0.00    -0.040 Cl
ATOM     29  C   LIG    1        0.403   0.695   1.141  0.00  0.00    -0.020 A 
ATOM     30 CL   LIG    1       -0.583   0.686   2.569  0.00  0.00    -0.040 Cl
ENDBRANCH  20  23
ENDBRANCH  18  19
ENDBRANCH  17  18
ENDBRANCH   4  17
TORSDOF 5
