REMARK  Name = ZINCvU00000006IW.0
REMARK                            x       y       z     vdW  Elec       q    Type
REMARK                         _______ _______ _______ _____ _____    ______ ____
ROOT
ATOM      1  C   LIG    1        0.183  -2.229   0.631  0.00  0.00    +0.140 A 
ATOM      2  C   LIG    1        0.071  -0.860   0.831  0.00  0.00    +0.160 A 
ATOM      3  C   LIG    1        0.107   0.000  -0.249  0.00  0.00    -0.660 A 
ATOM      4  C   LIG    1        0.250  -0.501  -1.530  0.00  0.00    +0.130 A 
ATOM      5  C   LIG    1        0.368  -1.864  -1.733  0.00  0.00    +0.040 A 
ATOM      6  C   LIG    1        0.332  -2.730  -0.657  0.00  0.00    -0.010 A 
ATOM      7 CL   LIG    1        0.473  -4.441  -0.913  0.00  0.00    -0.050 Cl
ENDROOT
BRANCH   1   9
ATOM      8  C   LIG    1       -0.624  -2.815   2.790  0.00  0.00    +0.550 C 
ATOM      9  N   LIG    1        0.147  -3.102   1.723  0.00  0.00    -0.670 N 
ATOM     10  H   LIG    1        0.677  -3.915   1.712  0.00  0.00    +0.420 HD
ATOM     11  O   LIG    1       -1.220  -1.755   2.844  0.00  0.00    -0.520 OA
BRANCH   8  13
ATOM     12  C   LIG    1       -1.519  -3.490   4.953  0.00  0.00    +0.150 C 
ATOM     13  C   LIG    1       -0.746  -3.778   3.884  0.00  0.00    -0.110 C 
BRANCH  12  17
ATOM     14  C   LIG    1       -1.873  -6.282   8.127  0.00  0.00    +0.150 A 
ATOM     15  C   LIG    1       -2.553  -5.072   8.190  0.00  0.00    -0.020 A 
ATOM     16  C   LIG    1       -2.442  -4.162   7.163  0.00  0.00    +0.090 A 
ATOM     17  C   LIG    1       -1.641  -4.458   6.053  0.00  0.00    -0.130 A 
ATOM     18  C   LIG    1       -0.963  -5.680   5.992  0.00  0.00    +0.080 A 
ATOM     19  C   LIG    1       -1.076  -6.580   7.027  0.00  0.00    -0.080 A 
BRANCH  14  21
ATOM     20  C   LIG    1       -1.260  -8.399   9.014  0.00  0.00    +0.240 C 
ATOM     21  O   LIG    1       -1.986  -7.176   9.143  0.00  0.00    -0.310 OA
ENDBRANCH  14  21
ENDBRANCH  12  17
ENDBRANCH   8  13
ENDBRANCH   1   9
BRANCH   3  22
ATOM     22  S   LIG    1       -0.036   1.738   0.004  0.00  0.00    +2.690 S 
ATOM     23  O   LIG    1       -0.802   1.909   1.189  0.00  0.00    -0.930 OA
ATOM     24  O   LIG    1       -0.406   2.297  -1.248  0.00  0.00    -0.940 OA
BRANCH  22  25
ATOM     25  N   LIG    1        1.481   2.311   0.342  0.00  0.00    -1.050 N 
ATOM     26  H   LIG    1        1.896   2.960  -0.247  0.00  0.00    +0.430 HD
BRANCH  25  27
ATOM     27  C   LIG    1        2.163   1.857   1.474  0.00  0.00    +0.140 A 
ATOM     28  C   LIG    1        1.512   1.794   2.700  0.00  0.00    +0.030 A 
ATOM     29  C   LIG    1        2.187   1.341   3.816  0.00  0.00    +0.050 A 
ATOM     30  C   LIG    1        3.513   0.960   3.717  0.00  0.00    -0.040 A 
ATOM     31  C   LIG    1        4.166   1.027   2.499  0.00  0.00    +0.050 A 
ATOM     32 CL   LIG    1        4.360   0.397   5.124  0.00  0.00    -0.060 Cl
ATOM     33  C   LIG    1        3.495   1.475   1.378  0.00  0.00    +0.020 A 
ENDBRANCH  25  27
ENDBRANCH  22  25
ENDBRANCH   3  22
TORSDOF 7
