REMARK  Name = ZINCkj000005iGWF.0
REMARK                            x       y       z     vdW  Elec       q    Type
REMARK                         _______ _______ _______ _____ _____    ______ ____
ROOT
ATOM      1  N   LIG    1       -0.018   1.461   0.010  0.00  0.00    -0.700 N 
ATOM      2  H   LIG    1        0.816   1.957   0.005  0.00  0.00    +0.410 HD
ATOM      3  C   LIG    1       -1.194   2.119   0.019  0.00  0.00    +0.500 C 
ATOM      4  O   LIG    1       -2.236   1.498   0.021  0.00  0.00    -0.520 OA
ENDROOT
BRANCH   3   5
ATOM      5  C   LIG    1       -1.214   3.626   0.028  0.00  0.00    +0.180 C 
ATOM      6  C   LIG    1       -0.987   4.161  -1.398  0.00  0.00    +0.110 C 
ATOM      7  C   LIG    1       -2.247   4.997  -1.721  0.00  0.00    +0.170 C 
ATOM      8  C   LIG    1       -2.802   5.344  -0.317  0.00  0.00    +0.270 C 
ATOM      9  N   LIG    1       -2.540   4.109   0.471  0.00  0.00    -0.500 N 
ATOM     10  H   LIG    1       -2.522   4.319   1.457  0.00  0.00    +0.440 HD
ATOM     11  H   LIG    1       -3.247   3.416   0.274  0.00  0.00    +0.440 HD
BRANCH   7  12
ATOM     12  O   LIG    1       -1.896   6.183  -2.438  0.00  0.00    -0.360 OA
ATOM     13  C   LIG    1       -2.912   6.643  -3.332  0.00  0.00    +0.240 C 
ENDBRANCH   7  12
ENDBRANCH   3   5
BRANCH   1  14
ATOM     14  C   LIG    1        0.002  -0.004   0.002  0.00  0.00    +0.350 C 
BRANCH  14  18
ATOM     15  C   LIG    1        4.051  -1.374  -0.045  0.00  0.00    +0.160 A 
ATOM     16  C   LIG    1        3.381  -1.145  -1.238  0.00  0.00    -0.060 A 
ATOM     17  C   LIG    1        2.070  -0.707  -1.219  0.00  0.00    +0.080 A 
ATOM     18  C   LIG    1        1.429  -0.487  -0.014  0.00  0.00    -0.160 A 
ATOM     19  C   LIG    1        2.095  -0.715   1.177  0.00  0.00    +0.090 A 
ATOM     20  C   LIG    1        3.404  -1.158   1.164  0.00  0.00    -0.080 A 
ATOM     21 CL   LIG    1        4.239  -1.443   2.659  0.00  0.00    -0.040 Cl
BRANCH  15  23
ATOM     22  C   LIG    1        5.939  -2.011  -1.341  0.00  0.00    +0.250 C 
ATOM     23  O   LIG    1        5.338  -1.810  -0.061  0.00  0.00    -0.300 OA
ENDBRANCH  15  23
ENDBRANCH  14  18
ENDBRANCH   1  14
TORSDOF 5
