REMARK  Name = ZINCtV00000tRTHE.0
REMARK                            x       y       z     vdW  Elec       q    Type
REMARK                         _______ _______ _______ _____ _____    ______ ____
ROOT
ATOM      1  C   LIG    1       -1.253   3.146   0.030  0.00  0.00    -0.130 A 
ATOM      2  C   LIG    1       -0.090   3.863   0.026  0.00  0.00    +0.160 A 
ATOM      3  C   LIG    1        1.133   3.194   0.015  0.00  0.00    -0.250 A 
ATOM      4  C   LIG    1        1.180   1.788   0.000  0.00  0.00    +0.180 A 
ATOM      5  O   LIG    1        2.361   1.143  -0.029  0.00  0.00    -0.210 OA
ATOM      6  C   LIG    1        3.501   1.769   0.267  0.00  0.00    +0.160 A 
ATOM      7  C   LIG    1        3.615   3.122   0.305  0.00  0.00    -0.250 A 
ATOM      8  C   LIG    1        4.719   0.936   0.572  0.00  0.00    +0.170 C 
ATOM      9  C   LIG    1       -0.013   1.076   0.008  0.00  0.00    -0.090 A 
ATOM     10  C   LIG    1        2.412   3.929   0.024  0.00  0.00    +0.430 A 
ATOM     11  O   LIG    1        2.471   5.128  -0.188  0.00  0.00    -0.450 OA
ATOM     12  C   LIG    1       -1.220   1.753   0.017  0.00  0.00    +0.200 A 
ENDROOT
BRANCH   7  13
ATOM     13  C   LIG    1        4.912   3.770   0.621  0.00  0.00    -0.030 A 
ATOM     14  C   LIG    1        5.483   3.612   1.882  0.00  0.00    +0.050 A 
ATOM     15  C   LIG    1        6.692   4.211   2.169  0.00  0.00    -0.010 A 
ATOM     16  C   LIG    1        7.333   4.979   1.210  0.00  0.00    +0.100 A 
ATOM     17  C   LIG    1        6.766   5.142  -0.044  0.00  0.00    -0.010 A 
ATOM     18  F   LIG    1        8.514   5.568   1.497  0.00  0.00    -0.140 F 
ATOM     19  C   LIG    1        5.560   4.542  -0.342  0.00  0.00    +0.070 A 
ENDBRANCH   7  13
BRANCH   1  21
ATOM     20  C   LIG    1       -3.077   3.990   1.483  0.00  0.00    +0.020 C 
ATOM     21  C   LIG    1       -2.578   3.865   0.042  0.00  0.00    +0.070 C 
ENDBRANCH   1  21
BRANCH  12  22
ATOM     22  O   LIG    1       -2.383   1.053   0.020  0.00  0.00    -0.290 OA
BRANCH  22  23
ATOM     23  C   LIG    1       -2.282  -0.372   0.012  0.00  0.00    +0.260 C 
BRANCH  23  24
ATOM     24  C   LIG    1       -3.664  -0.974   0.016  0.00  0.00    -0.100 A 
ATOM     25  C   LIG    1       -4.289  -1.261   1.215  0.00  0.00    +0.030 A 
ATOM     26  C   LIG    1       -5.559  -1.808   1.218  0.00  0.00    +0.010 A 
ATOM     27  C   LIG    1       -6.199  -2.078   0.023  0.00  0.00    +0.020 A 
ATOM     28  C   LIG    1       -5.571  -1.796  -1.176  0.00  0.00    +0.010 A 
ATOM     29  C   LIG    1       -4.303  -1.244  -1.179  0.00  0.00    +0.030 A 
ENDBRANCH  23  24
ENDBRANCH  22  23
ENDBRANCH  12  22
TORSDOF 5
