REMARK  Name = ZINCkj000005g6bc.0
REMARK                            x       y       z     vdW  Elec       q    Type
REMARK                         _______ _______ _______ _____ _____    ______ ____
ROOT
ATOM      1  C   LIG    1       -4.061   0.652   1.724  0.00  0.00    -0.050 A 
ATOM      2  C   LIG    1       -2.793   0.802   2.170  0.00  0.00    +0.170 A 
ATOM      3  N   LIG    1       -2.140   1.512   1.221  0.00  0.00    -0.280 N 
ATOM      4  N   LIG    1       -2.969   1.774   0.272  0.00  0.00    -0.060 NA
ATOM      5  N   LIG    1       -4.122   1.270   0.539  0.00  0.00    -0.260 NA
ENDROOT
BRANCH   1   6
ATOM      6  C   LIG    1       -5.185  -0.069   2.423  0.00  0.00    +0.150 C 
BRANCH   6   7
ATOM      7  C   LIG    1       -6.381   0.873   2.572  0.00  0.00    +0.260 C 
BRANCH   7   8
ATOM      8  N   LIG    1       -7.476   0.170   3.255  0.00  0.00    -0.510 N 
ATOM      9  H   LIG    1       -7.167  -0.129   4.168  0.00  0.00    +0.430 HD
ATOM     10  H   LIG    1       -7.748  -0.636   2.712  0.00  0.00    +0.430 HD
BRANCH   8  12
ATOM     11  C   LIG    1       -9.765   0.342   4.108  0.00  0.00    +0.080 C 
ATOM     12  C   LIG    1       -8.624   1.074   3.398  0.00  0.00    +0.250 C 
ENDBRANCH   8  12
ENDBRANCH   7   8
ENDBRANCH   6   7
ENDBRANCH   1   6
BRANCH   3  13
ATOM     13  C   LIG    1       -0.733   1.918   1.269  0.00  0.00    +0.320 C 
BRANCH  13  14
ATOM     14  C   LIG    1       -0.017   1.425   0.010  0.00  0.00    +0.280 C 
BRANCH  14  15
ATOM     15  C   LIG    1        1.397   1.946  -0.001  0.00  0.00    -0.140 A 
ATOM     16  C   LIG    1        2.389   1.264   0.678  0.00  0.00    +0.050 A 
ATOM     17  C   LIG    1        3.687   1.739   0.665  0.00  0.00    -0.010 A 
ATOM     18  C   LIG    1        3.991   2.904  -0.020  0.00  0.00    +0.110 A 
ATOM     19  C   LIG    1        2.994   3.589  -0.695  0.00  0.00    -0.010 A 
ATOM     20  F   LIG    1        5.258   3.372  -0.029  0.00  0.00    -0.130 F 
ATOM     21  C   LIG    1        1.698   3.110  -0.684  0.00  0.00    +0.070 A 
ENDBRANCH  14  15
BRANCH  14  22
ATOM     22  O   LIG    1        0.002  -0.004   0.002  0.00  0.00    -0.540 OA
ATOM     23  H   LIG    1        0.456  -0.395   0.761  0.00  0.00    +0.380 HD
ENDBRANCH  14  22
ENDBRANCH  13  14
ENDBRANCH   3  13
TORSDOF 8
