REMARK  Name = ZINCnE000001P1XV.0
REMARK                            x       y       z     vdW  Elec       q    Type
REMARK                         _______ _______ _______ _____ _____    ______ ____
ROOT
ATOM      1  N   LIG    1       -2.220   1.507   0.790  0.00  0.00    -0.480 NA
ATOM      2  C   LIG    1       -2.231   1.904  -0.635  0.00  0.00    +0.160 C 
ATOM      3  C   LIG    1       -0.822   1.629  -1.192  0.00  0.00    +0.010 C 
ATOM      4  C   LIG    1       -0.013   1.086   0.008  0.00  0.00    +0.040 C 
ATOM      5  C   LIG    1       -0.801   1.617   1.232  0.00  0.00    +0.220 C 
ENDROOT
BRANCH   5   6
ATOM      6  C   LIG    1       -0.548   0.755   2.442  0.00  0.00    +0.300 A 
ATOM      7  N   LIG    1       -1.106  -0.438   2.504  0.00  0.00    -0.500 NA
ATOM      8  C   LIG    1       -0.908  -1.228   3.544  0.00  0.00    +0.340 A 
ATOM      9  C   LIG    1       -0.098  -0.776   4.594  0.00  0.00    -0.230 A 
ATOM     10  C   LIG    1        0.469   0.500   4.486  0.00  0.00    +0.340 A 
ATOM     11  N   LIG    1        0.221   1.221   3.407  0.00  0.00    -0.530 NA
BRANCH   9  12
ATOM     12  C   LIG    1        0.149  -1.619   5.779  0.00  0.00    +0.530 C 
ATOM     13  O   LIG    1       -0.356  -2.730   5.855  0.00  0.00    -0.680 OA
ATOM     14  O   LIG    1        0.858  -1.206   6.686  0.00  0.00    -0.680 OA
ENDBRANCH   9  12
ENDBRANCH   5   6
BRANCH   1  15
ATOM     15  C   LIG    1       -3.088   2.384   1.587  0.00  0.00    +0.250 C 
BRANCH  15  21
ATOM     16  C   LIG    1       -2.529   7.012  -0.233  0.00  0.00    +0.100 C 
ATOM     17  C   LIG    1       -2.203   5.970   0.806  0.00  0.00    -0.080 A 
ATOM     18  C   LIG    1       -1.338   6.273   1.840  0.00  0.00    +0.020 A 
ATOM     19  C   LIG    1       -1.038   5.317   2.794  0.00  0.00    -0.030 A 
ATOM     20  C   LIG    1       -1.609   4.059   2.715  0.00  0.00    +0.050 A 
ATOM     21  C   LIG    1       -2.470   3.756   1.677  0.00  0.00    -0.110 A 
ATOM     22 CL   LIG    1        0.049   5.697   4.093  0.00  0.00    -0.060 Cl
ATOM     23  C   LIG    1       -2.769   4.712   0.725  0.00  0.00    +0.020 A 
ENDBRANCH  15  21
ENDBRANCH   1  15
TORSDOF 4
