REMARK  Name = ZINCrg00000aibwl.0
REMARK                            x       y       z     vdW  Elec       q    Type
REMARK                         _______ _______ _______ _____ _____    ______ ____
ROOT
ATOM      1  C   LIG    1       -1.313   2.063   0.019  0.00  0.00    +0.580 C 
ATOM      2  N   LIG    1       -1.344   3.406   0.129  0.00  0.00    -0.590 N 
ATOM      3  C   LIG    1       -0.099   4.186   0.135  0.00  0.00    +0.300 C 
ATOM      4  C   LIG    1       -0.195   5.268  -0.952  0.00  0.00    +0.050 C 
ATOM      5  C   LIG    1       -1.459   6.100  -0.725  0.00  0.00    +0.040 C 
ATOM      6  C   LIG    1       -2.692   5.199  -0.832  0.00  0.00    +0.250 C 
ATOM      7  C   LIG    1       -2.624   4.117   0.250  0.00  0.00    +0.310 C 
ATOM      8  O   LIG    1       -2.347   1.440  -0.125  0.00  0.00    -0.500 OA
ENDROOT
BRANCH   1  13
ATOM      9  C   LIG    1        1.261  -0.663  -0.180  0.00  0.00    +0.230 A 
ATOM     10  C   LIG    1        2.397   0.035   0.174  0.00  0.00    -0.190 A 
ATOM     11  C   LIG    1        2.289   1.405   0.477  0.00  0.00    +0.510 A 
ATOM     12  O   LIG    1        1.095   2.018   0.420  0.00  0.00    -0.250 OA
ATOM     13  C   LIG    1       -0.021   1.347   0.075  0.00  0.00    +0.100 A 
ATOM     14  O   LIG    1        3.282   2.037   0.792  0.00  0.00    -0.470 OA
ATOM     15  C   LIG    1        0.025   0.025  -0.227  0.00  0.00    +0.030 A 
BRANCH   9  16
ATOM     16  O   LIG    1        1.327  -1.982  -0.478  0.00  0.00    -0.290 OA
BRANCH  16  18
ATOM     17  C   LIG    1        2.491  -4.080  -0.775  0.00  0.00    +0.080 C 
ATOM     18  C   LIG    1        2.614  -2.600  -0.407  0.00  0.00    +0.210 C 
ENDBRANCH  16  18
ENDBRANCH   9  16
ENDBRANCH   1  13
BRANCH   6  19
ATOM     19  N   LIG    1       -3.902   6.003  -0.646  0.00  0.00    -0.290 N 
ATOM     20  C   LIG    1       -4.460   6.332   0.542  0.00  0.00    +0.140 A 
ATOM     21  C   LIG    1       -5.554   7.075   0.252  0.00  0.00    -0.010 A 
ATOM     22  N   LIG    1       -5.611   7.162  -1.082  0.00  0.00    -0.260 NA
ATOM     23  N   LIG    1       -4.615   6.521  -1.584  0.00  0.00    -0.080 NA
BRANCH  21  24
ATOM     24  C   LIG    1       -6.518   7.684   1.237  0.00  0.00    +0.100 C 
BRANCH  24  25
ATOM     25  C   LIG    1       -6.626   9.188   0.981  0.00  0.00    +0.220 C 
ATOM     26  C   LIG    1       -7.696   9.786   1.898  0.00  0.00    +0.010 C 
BRANCH  25  27
ATOM     27  O   LIG    1       -5.367   9.809   1.250  0.00  0.00    -0.560 OA
ATOM     28  H   LIG    1       -5.059   9.696   2.160  0.00  0.00    +0.370 HD
ENDBRANCH  25  27
ENDBRANCH  24  25
ENDBRANCH  21  24
ENDBRANCH   6  19
TORSDOF 7
