REMARK  Name = ZINCrH000004n00a.0
REMARK                            x       y       z     vdW  Elec       q    Type
REMARK                         _______ _______ _______ _____ _____    ______ ____
ROOT
ATOM      1  C   LIG    1       -1.307  -0.838   0.215  0.00  0.00    +0.190 C 
ATOM      2  C   LIG    1       -1.707  -1.583   1.502  0.00  0.00    +0.050 C 
ATOM      3  C   LIG    1       -3.153  -1.660   1.681  0.00  0.00    -0.010 C 
ATOM      4  C   LIG    1       -3.829  -2.435   0.528  0.00  0.00    +0.030 C 
ATOM      5  C   LIG    1       -3.913  -1.538  -0.678  0.00  0.00    +0.010 C 
ATOM      6  C   LIG    1       -2.698  -1.677  -1.613  0.00  0.00    +0.160 C 
ATOM      7  N   LIG    1       -1.409  -1.758  -0.892  0.00  0.00    -0.510 NA
ENDROOT
BRANCH   1  11
ATOM      8  C   LIG    1        2.715   0.566   0.555  0.00  0.00    +0.140 A 
ATOM      9  C   LIG    1        1.678   1.468   0.369  0.00  0.00    -0.070 A 
ATOM     10  C   LIG    1        0.379   1.012   0.259  0.00  0.00    +0.100 A 
ATOM     11  C   LIG    1        0.112  -0.343   0.335  0.00  0.00    -0.140 A 
ATOM     12  C   LIG    1        1.143  -1.244   0.522  0.00  0.00    +0.060 A 
ATOM     13  C   LIG    1        2.445  -0.793   0.632  0.00  0.00    -0.030 A 
BRANCH   8  15
ATOM     14  C   LIG    1        4.199   2.424   0.575  0.00  0.00    +0.240 C 
ATOM     15  O   LIG    1        3.994   1.012   0.663  0.00  0.00    -0.320 OA
ENDBRANCH   8  15
ENDBRANCH   1  11
BRANCH   7  16
ATOM     16  C   LIG    1       -0.278  -1.598  -1.815  0.00  0.00    +0.350 C 
BRANCH  16  17
ATOM     17  C   LIG    1       -0.400  -0.280  -2.536  0.00  0.00    +0.220 A 
ATOM     18  N   LIG    1        0.175   0.845  -2.197  0.00  0.00    -0.310 NA
ATOM     19  N   LIG    1       -0.133   1.777  -3.025  0.00  0.00    -0.040 NA
ATOM     20  N   LIG    1       -0.924   1.321  -3.935  0.00  0.00    -0.080 NA
ATOM     21  N   LIG    1       -1.127  -0.040  -3.648  0.00  0.00    -0.330 N 
BRANCH  21  22
ATOM     22  C   LIG    1       -1.916  -0.953  -4.364  0.00  0.00    +0.130 A 
ATOM     23  C   LIG    1       -1.433  -2.226  -4.635  0.00  0.00    +0.020 A 
ATOM     24  C   LIG    1       -2.213  -3.124  -5.336  0.00  0.00    +0.040 A 
ATOM     25  C   LIG    1       -3.471  -2.753  -5.776  0.00  0.00    +0.040 A 
ATOM     26  C   LIG    1       -3.953  -1.485  -5.511  0.00  0.00    +0.040 A 
ATOM     27  C   LIG    1       -3.178  -0.584  -4.807  0.00  0.00    +0.030 A 
ENDBRANCH  21  22
ENDBRANCH  16  17
ENDBRANCH   7  16
TORSDOF 5
