REMARK  Name = ZINCpe000000Ux3C.0
REMARK                            x       y       z     vdW  Elec       q    Type
REMARK                         _______ _______ _______ _____ _____    ______ ____
ROOT
ATOM      1  N   LIG    1       -6.826   4.047   0.653  0.00  0.00    -1.000 NA
ATOM      2  C   LIG    1       -6.824   5.192   1.574  0.00  0.00    +0.300 C 
ATOM      3  C   LIG    1       -5.764   6.199   1.094  0.00  0.00    +0.280 C 
ATOM      4  N   LIG    1       -5.966   6.444  -0.341  0.00  0.00    -0.600 N 
ATOM      5  C   LIG    1       -5.974   5.298  -1.261  0.00  0.00    +0.290 C 
ATOM      6  C   LIG    1       -6.141   7.697  -0.804  0.00  0.00    +0.610 C 
ATOM      7  O   LIG    1       -6.205   7.900  -2.002  0.00  0.00    -0.520 OA
ATOM      8  C   LIG    1       -7.028   4.293  -0.782  0.00  0.00    +0.300 C 
ENDROOT
BRANCH   6   9
ATOM      9  C   LIG    1       -6.253   8.818   0.136  0.00  0.00    -0.090 A 
ATOM     10  C   LIG    1       -6.546  10.111  -0.189  0.00  0.00    +0.050 A 
ATOM     11  C   LIG    1       -6.552  10.838   1.012  0.00  0.00    -0.060 A 
ATOM     12  C   LIG    1       -6.258   9.968   2.004  0.00  0.00    +0.200 A 
ATOM     13  O   LIG    1       -6.078   8.752   1.472  0.00  0.00    -0.160 OA
ENDBRANCH   6   9
BRANCH   1  14
ATOM     14  S   LIG    1       -6.611   2.507   1.222  0.00  0.00    +2.700 S 
ATOM     15  O   LIG    1       -6.993   2.529   2.591  0.00  0.00    -0.950 OA
ATOM     16  O   LIG    1       -7.201   1.639   0.264  0.00  0.00    -0.950 OA
BRANCH  14  20
ATOM     17  C   LIG    1       -2.201   1.696   1.226  0.00  0.00    +0.440 A 
ATOM     18  C   LIG    1       -2.929   1.380   0.084  0.00  0.00    -0.120 A 
ATOM     19  C   LIG    1       -4.292   1.619   0.067  0.00  0.00    +0.210 A 
ATOM     20  C   LIG    1       -4.881   2.177   1.194  0.00  0.00    -0.800 A 
ATOM     21  C   LIG    1       -4.097   2.470   2.292  0.00  0.00    +0.430 A 
ATOM     22  N   LIG    1       -2.800   2.227   2.281  0.00  0.00    -0.550 NA
BRANCH  17  24
ATOM     23  C   LIG    1       -0.145   0.972   0.059  0.00  0.00    +0.300 C 
ATOM     24  N   LIG    1       -0.833   1.457   1.259  0.00  0.00    -0.610 N 
ATOM     25  C   LIG    1       -0.077   1.690   2.492  0.00  0.00    +0.290 C 
ENDBRANCH  17  24
ENDBRANCH  14  20
ENDBRANCH   1  14
TORSDOF 4
