REMARK  Name = ZINCrD00000hQ7lG.0
REMARK                            x       y       z     vdW  Elec       q    Type
REMARK                         _______ _______ _______ _____ _____    ______ ____
ROOT
ATOM      1  C   LIG    1        4.619   2.067  -0.477  0.00  0.00    +0.150 C 
ATOM      2  N   LIG    1        4.487   1.933   0.797  0.00  0.00    -0.210 NA
ATOM      3  N   LIG    1        3.286   1.337   1.188  0.00  0.00    -0.850 N 
ATOM      4  C   LIG    1        2.498   1.031  -0.016  0.00  0.00    +0.290 C 
ATOM      5  C   LIG    1        3.392   1.521  -1.172  0.00  0.00    +0.110 C 
ENDROOT
BRANCH   4   6
ATOM      6  C   LIG    1        1.192   1.783   0.000  0.00  0.00    +0.080 A 
ATOM      7  N   LIG    1        1.199   3.096   0.007  0.00  0.00    -0.400 NA
ATOM      8  C   LIG    1        0.040   3.765   0.022  0.00  0.00    +0.080 A 
ATOM      9  C   LIG    1        0.013   5.170   0.029  0.00  0.00    +0.060 A 
ATOM     10  C   LIG    1       -1.181   5.822   0.043  0.00  0.00    +0.040 A 
ATOM     11  C   LIG    1       -2.383   5.116   0.051  0.00  0.00    +0.050 A 
ATOM     12  C   LIG    1       -2.396   3.755   0.044  0.00  0.00    +0.050 A 
ATOM     13  C   LIG    1       -1.182   3.047   0.030  0.00  0.00    +0.090 A 
ATOM     14  N   LIG    1       -1.163   1.710   0.017  0.00  0.00    -0.420 NA
ATOM     15  C   LIG    1       -0.013   1.076   0.008  0.00  0.00    +0.280 A 
ENDBRANCH   4   6
BRANCH   1  19
ATOM     16  C   LIG    1        7.980   3.776  -2.426  0.00  0.00    -0.060 A 
ATOM     17  C   LIG    1        7.956   3.687  -1.045  0.00  0.00    +0.010 A 
ATOM     18  C   LIG    1        6.867   3.133  -0.405  0.00  0.00    +0.050 A 
ATOM     19  C   LIG    1        5.787   2.661  -1.154  0.00  0.00    -0.040 A 
ATOM     20  C   LIG    1        5.820   2.749  -2.548  0.00  0.00    +0.050 A 
ATOM     21  C   LIG    1        6.914   3.310  -3.174  0.00  0.00    +0.010 A 
BRANCH  16  23
ATOM     22  C   LIG    1       10.197   3.288  -3.425  0.00  0.00    +0.030 C 
ATOM     23  C   LIG    1        9.173   4.383  -3.118  0.00  0.00    +0.050 C 
ENDBRANCH  16  23
ENDBRANCH   1  19
BRANCH   3  24
ATOM     24  S   LIG    1        2.823   1.026   2.748  0.00  0.00    +2.620 S 
ATOM     25  O   LIG    1        1.409   0.906   2.676  0.00  0.00    -0.940 OA
ATOM     26  O   LIG    1        3.433   2.061   3.507  0.00  0.00    -0.930 OA
ATOM     27  C   LIG    1        3.579  -0.577   3.134  0.00  0.00    -0.280 C 
ENDBRANCH   3  24
TORSDOF 4
