REMARK  Name = ZINCpk00000SirAO.0
REMARK                            x       y       z     vdW  Elec       q    Type
REMARK                         _______ _______ _______ _____ _____    ______ ____
ROOT
ATOM      1  C   LIG    1       -2.211   5.794   1.597  0.00  0.00    +0.620 C 
ATOM      2  N   LIG    1       -1.561   5.058   2.520  0.00  0.00    -0.600 N 
ATOM      3  C   LIG    1       -0.829   5.592   3.683  0.00  0.00    +0.260 C 
ATOM      4  C   LIG    1       -0.818   4.433   4.711  0.00  0.00    +0.030 C 
ATOM      5  C   LIG    1       -0.651   3.198   3.786  0.00  0.00    +0.030 C 
ATOM      6  C   LIG    1       -1.464   3.591   2.534  0.00  0.00    +0.240 C 
ATOM      7  O   LIG    1       -2.862   5.243   0.729  0.00  0.00    -0.530 OA
ENDROOT
BRANCH   6   8
ATOM      8  C   LIG    1       -0.746   3.105   1.274  0.00  0.00    +0.000 C 
ATOM      9  C   LIG    1        0.627   3.773   1.179  0.00  0.00    +0.030 C 
ATOM     10  C   LIG    1        1.345   3.287  -0.082  0.00  0.00    +0.000 C 
ATOM     11  C   LIG    1        1.520   1.768  -0.015  0.00  0.00    +0.000 C 
ATOM     12  C   LIG    1        0.146   1.100   0.079  0.00  0.00    -0.010 C 
ATOM     13  C   LIG    1       -0.572   1.587   1.340  0.00  0.00    +0.170 C 
BRANCH  13  14
ATOM     14  O   LIG    1       -1.854   0.963   1.428  0.00  0.00    -0.560 OA
ATOM     15  H   LIG    1       -1.825  -0.003   1.398  0.00  0.00    +0.380 HD
ENDBRANCH  13  14
ENDBRANCH   6   8
BRANCH   1  18
ATOM     16  N   LIG    1       -2.417   9.372   1.153  0.00  0.00    -0.360 N 
ATOM     17  C   LIG    1       -2.742   8.123   0.765  0.00  0.00    +0.290 A 
ATOM     18  C   LIG    1       -2.133   7.266   1.637  0.00  0.00    -0.100 A 
ATOM     19  N   LIG    1       -1.455   7.992   2.543  0.00  0.00    -0.210 NA
ATOM     20  N   LIG    1       -1.597   9.245   2.284  0.00  0.00    -0.060 NA
BRANCH  16  21
ATOM     21  C   LIG    1       -2.841  10.622   0.518  0.00  0.00    +0.350 C 
BRANCH  21  23
ATOM     22  C   LIG    1       -2.687  11.689   2.831  0.00  0.00    +0.080 C 
ATOM     23  C   LIG    1       -3.517  11.520   1.556  0.00  0.00    -0.140 C 
ATOM     24  C   LIG    1       -4.993  11.165   1.818  0.00  0.00    +0.210 C 
ATOM     25  O   LIG    1       -5.221  12.591   1.782  0.00  0.00    -0.370 OA
ATOM     26  C   LIG    1       -4.050  12.845   0.981  0.00  0.00    +0.240 C 
ENDBRANCH  21  23
ENDBRANCH  16  21
ENDBRANCH   1  18
TORSDOF 5
