REMARK  Name = ZINCqH0000004NiQ.0
REMARK                            x       y       z     vdW  Elec       q    Type
REMARK                         _______ _______ _______ _____ _____    ______ ____
ROOT
ATOM      1  C   LIG    1       -0.034   0.020  -2.495  0.00  0.00    +0.570 C 
ATOM      2  N   LIG    1       -1.214   0.331  -3.068  0.00  0.00    -0.720 N 
ATOM      3  H   LIG    1       -2.045   0.084  -2.631  0.00  0.00    +0.410 HD
ATOM      4  O   LIG    1        1.006   0.330  -3.042  0.00  0.00    -0.520 OA
ENDROOT
BRANCH   1  13
ATOM      5  C   LIG    1        0.023  -0.711   1.202  0.00  0.00    +0.170 A 
ATOM      6  N   LIG    1        0.042  -2.021   1.233  0.00  0.00    -0.460 NA
ATOM      7  C   LIG    1        0.041  -2.752   0.116  0.00  0.00    +0.130 A 
ATOM      8  C   LIG    1        0.061  -4.157   0.170  0.00  0.00    +0.050 A 
ATOM      9  C   LIG    1        0.059  -4.878  -0.985  0.00  0.00    +0.030 A 
ATOM     10  C   LIG    1        0.038  -4.246  -2.226  0.00  0.00    +0.030 A 
ATOM     11  C   LIG    1        0.019  -2.886  -2.317  0.00  0.00    +0.030 A 
ATOM     12  C   LIG    1        0.020  -2.113  -1.149  0.00  0.00    -0.070 A 
ATOM     13  C   LIG    1       -0.006  -0.696  -1.202  0.00  0.00    -0.070 A 
ATOM     14  C   LIG    1        0.002  -0.004   0.002  0.00  0.00    -0.090 A 
ATOM     15  C   LIG    1       -0.018   1.503   0.010  0.00  0.00    +0.110 C 
BRANCH   5  17
ATOM     16  C   LIG    1       -1.417   0.290   2.955  0.00  0.00    +0.040 C 
ATOM     17  C   LIG    1        0.025   0.052   2.502  0.00  0.00    +0.100 C 
ENDBRANCH   5  17
ENDBRANCH   1  13
BRANCH   2  18
ATOM     18  C   LIG    1       -1.243   1.040  -4.349  0.00  0.00    +0.340 C 
BRANCH  18  19
ATOM     19  C   LIG    1       -2.673   1.264  -4.768  0.00  0.00    -0.100 A 
ATOM     20  C   LIG    1       -3.319   0.321  -5.545  0.00  0.00    +0.050 A 
ATOM     21  C   LIG    1       -4.633   0.519  -5.927  0.00  0.00    +0.040 A 
ATOM     22  C   LIG    1       -5.302   1.669  -5.541  0.00  0.00    +0.040 A 
ATOM     23  O   LIG    1       -6.574   2.102  -5.784  0.00  0.00    -0.310 OA
ATOM     24  C   LIG    1       -6.562   3.512  -5.492  0.00  0.00    +0.430 C 
ATOM     25  O   LIG    1       -5.511   3.652  -4.518  0.00  0.00    -0.310 OA
ATOM     26  C   LIG    1       -4.648   2.622  -4.763  0.00  0.00    +0.030 A 
ATOM     27  C   LIG    1       -3.334   2.415  -4.379  0.00  0.00    +0.060 A 
ENDBRANCH  18  19
ENDBRANCH   2  18
TORSDOF 4
