REMARK  Name = ZINCrD00000752r3.0
REMARK                            x       y       z     vdW  Elec       q    Type
REMARK                         _______ _______ _______ _____ _____    ______ ____
ROOT
ATOM      1  C   LIG    1       -4.664  -3.356  -0.142  0.00  0.00    +0.520 C 
ATOM      2  O   LIG    1       -5.007  -3.723   0.965  0.00  0.00    -0.500 OA
ENDROOT
BRANCH   1  10
ATOM      3  C   LIG    1       -4.891  -2.546  -5.829  0.00  0.00    +0.190 C 
ATOM      4  C   LIG    1       -5.788  -3.530  -5.124  0.00  0.00    +0.130 A 
ATOM      5  N   LIG    1       -6.687  -4.288  -5.683  0.00  0.00    -0.240 NA
ATOM      6  N   LIG    1       -7.324  -5.072  -4.716  0.00  0.00    -0.390 N 
ATOM      7  C   LIG    1       -6.797  -4.790  -3.487  0.00  0.00    +0.350 A 
ATOM      8  N   LIG    1       -7.044  -5.248  -2.264  0.00  0.00    -0.510 NA
ATOM      9  C   LIG    1       -6.385  -4.814  -1.216  0.00  0.00    +0.260 A 
ATOM     10  C   LIG    1       -5.389  -3.833  -1.335  0.00  0.00    -0.230 A 
ATOM     11  C   LIG    1       -5.089  -3.319  -2.597  0.00  0.00    +0.240 A 
ATOM     12  C   LIG    1       -6.707  -5.377   0.144  0.00  0.00    +0.170 C 
ATOM     13  C   LIG    1       -8.389  -6.042  -4.979  0.00  0.00    +0.360 C 
ATOM     14  C   LIG    1       -5.806  -3.807  -3.691  0.00  0.00    -0.250 A 
ENDBRANCH   1  10
BRANCH   1  15
ATOM     15  O   LIG    1       -3.622  -2.514  -0.279  0.00  0.00    -0.350 OA
BRANCH  15  16
ATOM     16  C   LIG    1       -2.956  -2.085   0.938  0.00  0.00    +0.300 C 
BRANCH  16  17
ATOM     17  C   LIG    1       -1.824  -1.153   0.590  0.00  0.00    -0.080 A 
ATOM     18  C   LIG    1       -0.561  -1.661   0.352  0.00  0.00    +0.070 A 
ATOM     19  C   LIG    1        0.481  -0.808   0.035  0.00  0.00    -0.040 A 
ATOM     20  C   LIG    1        0.259   0.559  -0.047  0.00  0.00    +0.070 A 
ATOM     21  O   LIG    1        1.295   1.387  -0.355  0.00  0.00    -0.290 OA
ATOM     22  C   LIG    1        0.956   2.708  -0.791  0.00  0.00    +0.230 C 
ATOM     23  C   LIG    1       -0.111   3.269   0.159  0.00  0.00    +0.230 C 
ATOM     24  O   LIG    1       -1.252   2.406   0.112  0.00  0.00    -0.300 OA
ATOM     25  C   LIG    1       -1.012   1.069   0.190  0.00  0.00    +0.060 A 
ATOM     26 CL   LIG    1        2.067  -1.449  -0.263  0.00  0.00    -0.040 Cl
ATOM     27  C   LIG    1       -2.051   0.208   0.510  0.00  0.00    +0.070 A 
ENDBRANCH  16  17
ENDBRANCH  15  16
ENDBRANCH   1  15
TORSDOF 4
