REMARK  Name = ZINCrD00000lb2Mh.0
REMARK                            x       y       z     vdW  Elec       q    Type
REMARK                         _______ _______ _______ _____ _____    ______ ____
ROOT
ATOM      1  N   LIG    1        3.977  -2.813   4.361  0.00  0.00    -0.710 N 
ATOM      2  H   LIG    1        4.476  -2.588   3.560  0.00  0.00    +0.400 HD
ATOM      3  C   LIG    1        2.661  -2.534   4.435  0.00  0.00    +0.560 C 
ATOM      4  O   LIG    1        2.035  -2.815   5.438  0.00  0.00    -0.530 OA
ENDROOT
BRANCH   1   9
ATOM      5  C   LIG    1        7.959  -3.706   7.930  0.00  0.00    +0.020 C 
ATOM      6  C   LIG    1        6.693  -4.524   7.616  0.00  0.00    +0.080 C 
ATOM      7  C   LIG    1        6.567  -3.681   6.347  0.00  0.00    -0.100 C 
ATOM      8  C   LIG    1        5.913  -4.244   5.085  0.00  0.00    +0.040 C 
ATOM      9  C   LIG    1        4.654  -3.456   5.490  0.00  0.00    +0.240 C 
ATOM     10  C   LIG    1        5.585  -2.511   6.269  0.00  0.00    +0.040 C 
ATOM     11  C   LIG    1        8.076  -3.444   6.417  0.00  0.00    +0.080 C 
BRANCH   5  12
ATOM     12  C   LIG    1        9.088  -4.534   8.487  0.00  0.00    +0.470 C 
ATOM     13  O   LIG    1        8.944  -5.723   8.647  0.00  0.00    -0.510 OA
BRANCH  12  15
ATOM     14  C   LIG    1       11.297  -4.808   9.338  0.00  0.00    +0.250 C 
ATOM     15  O   LIG    1       10.254  -3.950   8.806  0.00  0.00    -0.360 OA
ENDBRANCH  12  15
ENDBRANCH   5  12
ENDBRANCH   1   9
BRANCH   3  16
ATOM     16  C   LIG    1        1.977  -1.884   3.296  0.00  0.00    -0.110 A 
ATOM     17  C   LIG    1        0.614  -1.593   3.369  0.00  0.00    +0.090 A 
ATOM     18  C   LIG    1       -0.017  -0.987   2.303  0.00  0.00    +0.060 A 
ATOM     19  C   LIG    1        0.698  -0.667   1.163  0.00  0.00    -0.070 A 
ATOM     20  C   LIG    1        2.048  -0.957   1.081  0.00  0.00    +0.060 A 
ATOM     21  C   LIG    1        2.693  -1.559   2.142  0.00  0.00    +0.050 A 
BRANCH  19  22
ATOM     22  C   LIG    1        0.002  -0.004   0.002  0.00  0.00    +0.000 C 
ATOM     23  N   LIG    1       -0.026  -0.699  -1.288  0.00  0.00    -0.050 NA
ATOM     24  N   LIG    1       -1.096  -0.717  -0.657  0.00  0.00    -0.050 NA
BRANCH  22  25
ATOM     25  C   LIG    1       -0.019   1.526   0.010  0.00  0.00    +0.500 C 
ATOM     26  F   LIG    1       -0.673   1.977   1.161  0.00  0.00    -0.150 F 
ATOM     27  F   LIG    1       -0.695   1.989  -1.123  0.00  0.00    -0.170 F 
ATOM     28  F   LIG    1        1.294   2.010   0.001  0.00  0.00    -0.150 F 
ENDBRANCH  22  25
ENDBRANCH  19  22
ENDBRANCH   3  16
TORSDOF 6
