REMARK  Name = ZINCrD000006fiMH.0
REMARK                            x       y       z     vdW  Elec       q    Type
REMARK                         _______ _______ _______ _____ _____    ______ ____
ROOT
ATOM      1  C   LIG    1       -1.037   0.716   2.226  0.00  0.00    +0.570 C 
ATOM      2  N   LIG    1       -1.270   1.489   1.146  0.00  0.00    -0.610 N 
ATOM      3  C   LIG    1       -1.228   0.925  -0.212  0.00  0.00    +0.250 C 
ATOM      4  C   LIG    1       -2.511   1.331  -0.945  0.00  0.00    +0.220 C 
ATOM      5  O   LIG    1       -2.680   2.747  -0.851  0.00  0.00    -0.370 OA
ATOM      6  C   LIG    1       -2.844   3.229   0.485  0.00  0.00    +0.200 C 
ATOM      7  C   LIG    1       -1.577   2.921   1.292  0.00  0.00    +0.280 C 
ATOM      8  O   LIG    1       -1.014   1.212   3.335  0.00  0.00    -0.530 OA
ENDROOT
BRANCH   6   9
ATOM      9  C   LIG    1       -3.075   4.718   0.459  0.00  0.00    -0.070 A 
ATOM     10  C   LIG    1       -2.434   5.499  -0.484  0.00  0.00    +0.080 A 
ATOM     11  C   LIG    1       -2.648   6.865  -0.513  0.00  0.00    +0.020 A 
ATOM     12  C   LIG    1       -3.497   7.452   0.408  0.00  0.00    +0.070 A 
ATOM     13  C   LIG    1       -4.137   6.668   1.357  0.00  0.00    +0.070 A 
ATOM     14  F   LIG    1       -4.966   7.239   2.258  0.00  0.00    -0.130 F 
ATOM     15  F   LIG    1       -3.703   8.787   0.383  0.00  0.00    -0.130 F 
ATOM     16  C   LIG    1       -3.924   5.301   1.381  0.00  0.00    +0.040 A 
ENDBRANCH   6   9
BRANCH   1  20
ATOM     17  C   LIG    1       -0.382  -3.453   1.750  0.00  0.00    +0.170 A 
ATOM     18  C   LIG    1       -1.031  -2.978   2.886  0.00  0.00    +0.020 A 
ATOM     19  C   LIG    1       -1.245  -1.627   3.043  0.00  0.00    +0.100 A 
ATOM     20  C   LIG    1       -0.809  -0.733   2.061  0.00  0.00    -0.150 A 
ATOM     21  C   LIG    1       -0.163  -1.215   0.919  0.00  0.00    +0.060 A 
ATOM     22  C   LIG    1        0.053  -2.566   0.771  0.00  0.00    -0.010 A 
BRANCH  17  24
ATOM     23  C   LIG    1       -1.085  -5.703   2.039  0.00  0.00    +0.550 C 
ATOM     24  N   LIG    1       -0.167  -4.821   1.595  0.00  0.00    -0.670 N 
ATOM     25  H   LIG    1        0.644  -5.139   1.167  0.00  0.00    +0.420 HD
ATOM     26  O   LIG    1       -2.059  -5.309   2.651  0.00  0.00    -0.520 OA
BRANCH  23  28
ATOM     27  C   LIG    1       -1.813  -8.010   2.221  0.00  0.00    +0.160 C 
ATOM     28  C   LIG    1       -0.907  -7.140   1.783  0.00  0.00    -0.090 C 
ENDBRANCH  23  28
ENDBRANCH  17  24
ENDBRANCH   1  20
TORSDOF 4
