REMARK  Name = ZINCqH000000689J.0
REMARK                            x       y       z     vdW  Elec       q    Type
REMARK                         _______ _______ _______ _____ _____    ______ ____
ROOT
ATOM      1  C   LIG    1        1.771  -4.008   0.018  0.00  0.00    -0.220 A 
ATOM      2  C   LIG    1        2.160  -2.714   0.032  0.00  0.00    +0.240 A 
ATOM      3  N   LIG    1        1.041  -1.943   0.031  0.00  0.00    -0.320 N 
ATOM      4  N   LIG    1       -0.071  -2.794   0.006  0.00  0.00    -0.270 NA
ATOM      5  C   LIG    1        0.363  -4.037  -0.002  0.00  0.00    +0.130 A 
ENDROOT
BRANCH   5   6
ATOM      6  C   LIG    1       -0.483  -5.255  -0.028  0.00  0.00    -0.010 A 
ATOM      7  C   LIG    1       -0.134  -6.332  -0.841  0.00  0.00    +0.060 A 
ATOM      8  C   LIG    1       -0.921  -7.465  -0.857  0.00  0.00    +0.030 A 
ATOM      9  C   LIG    1       -2.063  -7.529  -0.076  0.00  0.00    -0.030 A 
ATOM     10  C   LIG    1       -2.417  -6.460   0.729  0.00  0.00    +0.030 A 
ATOM     11 CL   LIG    1       -3.053  -8.954  -0.107  0.00  0.00    -0.070 Cl
ATOM     12  C   LIG    1       -1.633  -5.324   0.756  0.00  0.00    +0.060 A 
ENDBRANCH   5   6
BRANCH   3  13
ATOM     13  C   LIG    1        1.007  -0.542   0.046  0.00  0.00    +0.160 A 
ATOM     14  C   LIG    1       -0.211   0.124   0.037  0.00  0.00    +0.020 A 
ATOM     15  C   LIG    1       -0.242   1.504   0.053  0.00  0.00    +0.040 A 
ATOM     16  C   LIG    1        0.939   2.224   0.077  0.00  0.00    +0.000 A 
ATOM     17  C   LIG    1        2.154   1.563   0.087  0.00  0.00    +0.040 A 
ATOM     18  C   LIG    1        2.191   0.183   0.071  0.00  0.00    -0.010 A 
ENDBRANCH   3  13
BRANCH   1  19
ATOM     19  C   LIG    1        2.683  -5.208   0.018  0.00  0.00    +0.390 C 
BRANCH  19  21
ATOM     20  C   LIG    1        4.783  -4.404  -0.921  0.00  0.00    +0.510 C 
ATOM     21  N   LIG    1        4.072  -4.766   0.166  0.00  0.00    -0.620 N 
ATOM     22  C   LIG    1        4.688  -4.717   1.494  0.00  0.00    +0.280 C 
ATOM     23  O   LIG    1        4.306  -4.534  -2.028  0.00  0.00    -0.500 OA
BRANCH  20  24
ATOM     24  C   LIG    1        6.170  -3.838  -0.759  0.00  0.00    +0.200 C 
BRANCH  24  26
ATOM     25  C   LIG    1        8.033  -2.988  -2.005  0.00  0.00    +0.210 C 
ATOM     26  O   LIG    1        6.713  -3.533  -2.045  0.00  0.00    -0.370 OA
ENDBRANCH  24  26
ENDBRANCH  20  24
ENDBRANCH  19  21
ENDBRANCH   1  19
TORSDOF 6
