REMARK  Name = ZINCrD00000gQ2pb.0
REMARK                            x       y       z     vdW  Elec       q    Type
REMARK                         _______ _______ _______ _____ _____    ______ ____
ROOT
ATOM      1  C   LIG    1       -2.762   8.298   4.742  0.00  0.00    +0.200 C 
ATOM      2  C   LIG    1       -2.720   9.823   4.585  0.00  0.00    +0.080 C 
ATOM      3  C   LIG    1       -3.222  10.177   3.187  0.00  0.00    +0.090 C 
ATOM      4  C   LIG    1       -4.543   9.508   2.913  0.00  0.00    -0.070 A 
ATOM      5  C   LIG    1       -5.313  10.001   1.868  0.00  0.00    +0.040 A 
ATOM      6  C   LIG    1       -6.531   9.427   1.562  0.00  0.00    -0.090 A 
ATOM      7  C   LIG    1       -6.989   8.353   2.304  0.00  0.00    +0.040 A 
ATOM      8  C   LIG    1       -6.226   7.864   3.344  0.00  0.00    +0.020 A 
ATOM      9 BR   LIG    1       -7.569  10.107   0.135  0.00  0.00    -0.050 Br
ATOM     10  C   LIG    1       -5.001   8.441   3.654  0.00  0.00    -0.050 A 
ATOM     11  C   LIG    1       -4.223   7.860   4.805  0.00  0.00    +0.120 C 
ENDROOT
BRANCH   1  13
ATOM     12  C   LIG    1       -2.045   6.323   3.509  0.00  0.00    +0.520 C 
ATOM     13  N   LIG    1       -2.107   7.666   3.594  0.00  0.00    -0.720 N 
ATOM     14  H   LIG    1       -1.718   8.215   2.895  0.00  0.00    +0.410 HD
ATOM     15  O   LIG    1       -2.531   5.637   4.383  0.00  0.00    -0.500 OA
BRANCH  12  16
ATOM     16  C   LIG    1       -1.371   5.672   2.328  0.00  0.00    +0.050 C 
BRANCH  16  17
ATOM     17  C   LIG    1       -1.439   4.151   2.476  0.00  0.00    +0.130 C 
BRANCH  17  18
ATOM     18  C   LIG    1       -0.755   3.491   1.277  0.00  0.00    +0.040 C 
ATOM     19  N   LIG    1       -0.751   4.199  -0.005  0.00  0.00    -0.120 NA
ATOM     20  N   LIG    1        0.330   4.211   0.606  0.00  0.00    -0.120 NA
BRANCH  18  21
ATOM     21  C   LIG    1       -0.734   1.961   1.269  0.00  0.00    +0.120 C 
BRANCH  21  22
ATOM     22  C   LIG    1       -0.018   1.468   0.010  0.00  0.00    +0.160 C 
BRANCH  22  24
ATOM     23  C   LIG    1        0.018  -1.178  -0.004  0.00  0.00    +0.030 C 
ATOM     24  C   LIG    1        0.002  -0.004   0.002  0.00  0.00    -0.190 C 
ENDBRANCH  22  24
ENDBRANCH  21  22
ENDBRANCH  18  21
ENDBRANCH  17  18
ENDBRANCH  16  17
ENDBRANCH  12  16
ENDBRANCH   1  13
BRANCH   1  25
ATOM     25  C   LIG    1       -2.056   7.898   6.012  0.00  0.00    +0.460 C 
ATOM     26  O   LIG    1       -1.960   8.686   6.923  0.00  0.00    -0.500 OA
BRANCH  25  27
ATOM     27  O   LIG    1       -1.535   6.667   6.131  0.00  0.00    -0.320 OA
ATOM     28  C   LIG    1       -0.870   6.351   7.383  0.00  0.00    +0.250 C 
ENDBRANCH  25  27
ENDBRANCH   1  25
TORSDOF 9
