REMARK  Name = ZINCkj000005iBJM.0
REMARK                            x       y       z     vdW  Elec       q    Type
REMARK                         _______ _______ _______ _____ _____    ______ ____
ROOT
ATOM      1  S   LIG    1       -2.854   0.405   3.755  0.00  0.00    +2.690 S 
ATOM      2  O   LIG    1       -3.139  -0.854   3.161  0.00  0.00    -0.950 OA
ATOM      3  O   LIG    1       -3.679   1.003   4.745  0.00  0.00    -0.940 OA
ENDROOT
BRANCH   1   7
ATOM      4  C   LIG    1        1.277   0.053   5.577  0.00  0.00    +0.190 A 
ATOM      5  C   LIG    1        0.578   1.248   5.666  0.00  0.00    -0.090 A 
ATOM      6  C   LIG    1       -0.682   1.353   5.109  0.00  0.00    +0.050 A 
ATOM      7  C   LIG    1       -1.246   0.268   4.464  0.00  0.00    -0.730 A 
ATOM      8  C   LIG    1       -0.554  -0.926   4.379  0.00  0.00    +0.160 A 
ATOM      9  C   LIG    1       -1.442   2.651   5.206  0.00  0.00    +0.100 C 
ATOM     10  C   LIG    1        0.708  -1.034   4.929  0.00  0.00    -0.140 A 
ATOM     11  C   LIG    1        1.464  -2.334   4.831  0.00  0.00    +0.120 C 
BRANCH   4  13
ATOM     12  C   LIG    1        3.040   1.107   6.775  0.00  0.00    +0.250 C 
ATOM     13  O   LIG    1        2.517  -0.053   6.124  0.00  0.00    -0.300 OA
ENDBRANCH   4  13
ENDBRANCH   1   7
BRANCH   1  14
ATOM     14  N   LIG    1       -2.750   1.496   2.513  0.00  0.00    -1.110 NA
ATOM     15  H   LIG    1       -3.249   2.326   2.554  0.00  0.00    +0.430 HD
BRANCH  14  16
ATOM     16  C   LIG    1       -1.904   1.206   1.353  0.00  0.00    +0.250 C 
ATOM     17  C   LIG    1       -2.761   1.203   0.083  0.00  0.00    +0.050 C 
ATOM     18  C   LIG    1       -1.855   0.977  -1.131  0.00  0.00    +0.060 C 
ATOM     19  C   LIG    1       -0.775   2.060  -1.163  0.00  0.00    +0.260 C 
ATOM     20  N   LIG    1        0.026   1.994   0.065  0.00  0.00    -0.500 N 
ATOM     21  H   LIG    1        0.770   2.674   0.017  0.00  0.00    +0.440 HD
ATOM     22  H   LIG    1        0.422   1.070   0.158  0.00  0.00    +0.430 HD
ATOM     23  C   LIG    1       -0.823   2.280   1.227  0.00  0.00    +0.250 C 
ENDBRANCH  14  16
ENDBRANCH   1  14
TORSDOF 4
