REMARK  Name = ZINCqH0000038UIx.0
REMARK                            x       y       z     vdW  Elec       q    Type
REMARK                         _______ _______ _______ _____ _____    ______ ____
ROOT
ATOM      1  C   LIG    1        1.347   5.543   1.513  0.00  0.00    +0.270 C 
ENDROOT
BRANCH   1   2
ATOM      2  C   LIG    1        0.899   5.980   2.884  0.00  0.00    -0.100 A 
ATOM      3  C   LIG    1        1.305   5.274   4.001  0.00  0.00    +0.070 A 
ATOM      4  C   LIG    1        0.898   5.676   5.259  0.00  0.00    -0.010 A 
ATOM      5  C   LIG    1        0.075   6.781   5.399  0.00  0.00    +0.100 A 
ATOM      6  C   LIG    1       -0.335   7.484   4.280  0.00  0.00    -0.020 A 
ATOM      7  F   LIG    1       -0.327   7.172   6.628  0.00  0.00    -0.140 F 
ATOM      8  C   LIG    1        0.078   7.083   3.023  0.00  0.00    +0.050 A 
ENDBRANCH   1   2
BRANCH   1  12
ATOM      9  C   LIG    1        5.235   8.262  -0.105  0.00  0.00    +0.350 C 
ATOM     10  N   LIG    1        4.438   7.225   0.554  0.00  0.00    -0.380 N 
ATOM     11  C   LIG    1        3.092   7.127   0.538  0.00  0.00    +0.230 A 
ATOM     12  C   LIG    1        2.749   6.036   1.262  0.00  0.00    -0.220 A 
ATOM     13  C   LIG    1        3.925   5.451   1.742  0.00  0.00    +0.260 A 
ATOM     14  N   LIG    1        4.939   6.159   1.313  0.00  0.00    -0.300 NA
ENDBRANCH   1  12
BRANCH   1  15
ATOM     15  N   LIG    1        1.323   4.077   1.434  0.00  0.00    -0.670 NA
ATOM     16  H   LIG    1        0.597   3.695   2.022  0.00  0.00    +0.350 HD
BRANCH  15  17
ATOM     17  C   LIG    1        1.165   3.627   0.044  0.00  0.00    +0.230 C 
BRANCH  17  18
ATOM     18  C   LIG    1        1.144   2.121   0.003  0.00  0.00    -0.160 C 
ATOM     19  C   LIG    1       -0.018   1.474   0.010  0.00  0.00    +0.040 C 
ATOM     20  C   LIG    1        0.002  -0.004   0.002  0.00  0.00    -0.130 A 
ATOM     21  C   LIG    1       -1.143  -0.746  -0.258  0.00  0.00    +0.060 A 
ATOM     22  C   LIG    1       -1.076  -2.126  -0.263  0.00  0.00    -0.020 A 
ATOM     23  C   LIG    1        0.122  -2.768  -0.002  0.00  0.00    +0.050 A 
ATOM     24  C   LIG    1        1.263  -2.037   0.277  0.00  0.00    -0.020 A 
ATOM     25  C   LIG    1        1.210  -0.656   0.291  0.00  0.00    +0.130 A 
ATOM     26  O   LIG    1        2.301   0.089   0.601  0.00  0.00    -0.310 OA
ATOM     27  C   LIG    1        2.438   1.353  -0.048  0.00  0.00    +0.300 C 
ENDBRANCH  17  18
ENDBRANCH  15  17
ENDBRANCH   1  15
TORSDOF 5
