REMARK  Name = ZINCb80000003W6K.0
REMARK                            x       y       z     vdW  Elec       q    Type
REMARK                         _______ _______ _______ _____ _____    ______ ____
ROOT
ATOM      1  O   LIG    1       -1.086   1.916   0.018  0.00  0.00    -0.540 OA
ATOM      2  C   LIG    1       -0.016   1.338   0.009  0.00  0.00    +0.710 A 
ATOM      3  N   LIG    1        1.118   2.059   0.002  0.00  0.00    -0.650 N 
ATOM      4  H   LIG    1        1.070   3.028   0.008  0.00  0.00    +0.440 HD
ATOM      5  C   LIG    1        2.320   1.453  -0.011  0.00  0.00    +0.600 A 
ATOM      6  C   LIG    1        2.390   0.036  -0.021  0.00  0.00    -0.360 A 
ATOM      7  C   LIG    1        1.219  -0.700  -0.013  0.00  0.00    +0.200 A 
ATOM      8  C   LIG    1        1.461  -2.068  -0.024  0.00  0.00    -0.010 A 
ATOM      9  C   LIG    1        2.743  -2.425  -0.038  0.00  0.00    -0.010 A 
ATOM     10  S   LIG    1        3.765  -1.060  -0.040  0.00  0.00    +0.330 S 
ATOM     11  O   LIG    1        3.341   2.117  -0.017  0.00  0.00    -0.510 OA
ATOM     12  N   LIG    1        0.002  -0.004   0.002  0.00  0.00    -0.630 N 
ATOM     13  H   LIG    1       -0.834  -0.496   0.008  0.00  0.00    +0.440 HD
ENDROOT
TORSDOF 0
