REMARK  Name = ZINCqH0000007V6H.0
REMARK                            x       y       z     vdW  Elec       q    Type
REMARK                         _______ _______ _______ _____ _____    ______ ____
ROOT
ATOM      1  C   LIG    1       -4.936   3.792   0.045  0.00  0.00    +0.580 C 
ATOM      2  N   LIG    1       -6.077   3.075   0.046  0.00  0.00    -0.710 N 
ATOM      3  H   LIG    1       -6.041   2.106   0.041  0.00  0.00    +0.410 HD
ATOM      4  O   LIG    1       -4.981   5.007   0.051  0.00  0.00    -0.530 OA
ENDROOT
BRANCH   2   5
ATOM      5  C   LIG    1       -7.372   3.759   0.056  0.00  0.00    +0.240 C 
ATOM      6  C   LIG    1       -7.758   4.101   1.496  0.00  0.00    +0.010 C 
ATOM      7  C   LIG    1       -9.110   4.817   1.506  0.00  0.00    +0.040 C 
ATOM      8  C   LIG    1      -10.175   3.905   0.894  0.00  0.00    -0.060 C 
ATOM      9  C   LIG    1       -9.789   3.561  -0.545  0.00  0.00    +0.030 C 
ATOM     10  C   LIG    1      -10.282   2.619   1.717  0.00  0.00    +0.000 C 
ATOM     11  C   LIG    1      -11.403   1.748   1.144  0.00  0.00    +0.200 C 
ATOM     12  O   LIG    1      -12.628   2.484   1.153  0.00  0.00    -0.380 OA
ATOM     13  C   LIG    1      -12.601   3.673   0.361  0.00  0.00    +0.200 C 
ATOM     14  C   LIG    1      -11.528   4.621   0.903  0.00  0.00    -0.010 C 
ATOM     15  C   LIG    1       -8.437   2.845  -0.554  0.00  0.00    +0.010 C 
ENDBRANCH   2   5
BRANCH   1  18
ATOM     16  C   LIG    1       -2.472   1.084   0.020  0.00  0.00    +0.370 A 
ATOM     17  N   LIG    1       -3.596   1.764   0.029  0.00  0.00    -0.540 NA
ATOM     18  C   LIG    1       -3.628   3.101   0.035  0.00  0.00    +0.090 A 
ATOM     19  C   LIG    1       -2.467   3.852   0.045  0.00  0.00    +0.030 A 
ATOM     20  C   LIG    1       -1.230   3.182   0.030  0.00  0.00    -0.010 A 
ATOM     21  C   LIG    1       -0.010   3.873   0.023  0.00  0.00    +0.030 A 
ATOM     22  C   LIG    1        1.159   3.170   0.008  0.00  0.00    +0.040 A 
ATOM     23  C   LIG    1        1.157   1.778   0.001  0.00  0.00    +0.010 A 
ATOM     24  C   LIG    1       -0.013   1.076   0.008  0.00  0.00    +0.070 A 
ATOM     25  C   LIG    1       -1.232   1.764   0.017  0.00  0.00    -0.100 A 
BRANCH  16  27
ATOM     26  C   LIG    1       -3.788  -0.891   0.016  0.00  0.00    +0.260 C 
ATOM     27  O   LIG    1       -2.501  -0.270   0.013  0.00  0.00    -0.300 OA
ENDBRANCH  16  27
ENDBRANCH   1  18
TORSDOF 3
