REMARK  Name = ZINCpk00000KfLAL.0
REMARK                            x       y       z     vdW  Elec       q    Type
REMARK                         _______ _______ _______ _____ _____    ______ ____
ROOT
ATOM      1  N   LIG    1       -0.735   1.558   1.177  0.00  0.00    -0.490 NA
ATOM      2  C   LIG    1       -0.016   1.060  -0.018  0.00  0.00    +0.260 C 
ATOM      3  C   LIG    1       -0.787   1.585  -1.209  0.00  0.00    -0.100 A 
ATOM      4  C   LIG    1       -0.443   1.720  -2.540  0.00  0.00    +0.010 A 
ATOM      5  C   LIG    1       -1.352   2.238  -3.444  0.00  0.00    +0.030 A 
ATOM      6  C   LIG    1       -2.608   2.623  -3.018  0.00  0.00    +0.020 A 
ATOM      7  C   LIG    1       -2.958   2.489  -1.681  0.00  0.00    +0.190 A 
ATOM      8  C   LIG    1       -2.044   1.968  -0.776  0.00  0.00    -0.150 A 
ATOM      9  C   LIG    1       -2.134   1.707   0.710  0.00  0.00    +0.260 C 
ENDROOT
BRANCH   7  10
ATOM     10  N   LIG    1       -4.230   2.878  -1.246  0.00  0.00    -0.680 N 
ATOM     11  H   LIG    1       -4.673   2.385  -0.538  0.00  0.00    +0.410 HD
ATOM     12  C   LIG    1       -4.840   3.938  -1.812  0.00  0.00    +0.710 C 
ATOM     13  N   LIG    1       -6.025   4.368  -1.334  0.00  0.00    -0.730 N 
ATOM     14  H   LIG    1       -6.438   3.915  -0.583  0.00  0.00    +0.410 HD
ATOM     15  O   LIG    1       -4.322   4.507  -2.753  0.00  0.00    -0.570 OA
BRANCH  13  16
ATOM     16  C   LIG    1       -6.688   5.521  -1.949  0.00  0.00    +0.320 C 
BRANCH  16  17
ATOM     17  C   LIG    1       -7.986   5.794  -1.233  0.00  0.00    +0.520 C 
ATOM     18  N   LIG    1       -8.771   6.816  -1.629  0.00  0.00    -0.700 N 
ATOM     19  H   LIG    1       -8.501   7.375  -2.374  0.00  0.00    +0.410 HD
ATOM     20  O   LIG    1       -8.324   5.095  -0.301  0.00  0.00    -0.530 OA
BRANCH  18  21
ATOM     21  C   LIG    1      -10.033   7.081  -0.933  0.00  0.00    +0.210 C 
ATOM     22  C   LIG    1      -11.261   7.394  -1.791  0.00  0.00    +0.010 C 
ATOM     23  C   LIG    1      -10.584   8.507  -0.989  0.00  0.00    +0.020 C 
ENDBRANCH  18  21
ENDBRANCH  16  17
ENDBRANCH  13  16
ENDBRANCH   7  10
BRANCH   1  24
ATOM     24  C   LIG    1       -0.187   2.847   1.621  0.00  0.00    +0.200 C 
BRANCH  24  25
ATOM     25  C   LIG    1       -0.547   3.932   0.605  0.00  0.00    -0.010 C 
BRANCH  25  26
ATOM     26  C   LIG    1        0.023   5.274   1.068  0.00  0.00    +0.160 C 
BRANCH  26  28
ATOM     27  C   LIG    1        0.174   7.587   0.458  0.00  0.00    +0.200 C 
ATOM     28  O   LIG    1       -0.313   6.288   0.119  0.00  0.00    -0.390 OA
ENDBRANCH  26  28
ENDBRANCH  25  26
ENDBRANCH  24  25
ENDBRANCH   1  24
TORSDOF 8
