REMARK  Name = ZINCrD000000ArCl.0
REMARK                            x       y       z     vdW  Elec       q    Type
REMARK                         _______ _______ _______ _____ _____    ______ ____
ROOT
ATOM      1  C   LIG    1        2.382   1.428  -0.050  0.00  0.00    +0.180 A 
ATOM      2  C   LIG    1        1.166   2.094  -0.040  0.00  0.00    -0.080 A 
ATOM      3  C   LIG    1       -0.015   1.379  -0.044  0.00  0.00    +0.080 A 
ATOM      4  C   LIG    1        0.004  -0.006  -0.058  0.00  0.00    -0.030 A 
ATOM      5  C   LIG    1        1.204  -0.684  -0.068  0.00  0.00    +0.080 A 
ATOM      6  C   LIG    1        2.406   0.026  -0.064  0.00  0.00    -0.170 A 
ENDROOT
BRANCH   6   7
ATOM      7  C   LIG    1        3.694  -0.694  -0.074  0.00  0.00    +0.560 C 
ATOM      8  N   LIG    1        3.712  -2.041  -0.088  0.00  0.00    -0.730 N 
ATOM      9  H   LIG    1        2.879  -2.538  -0.091  0.00  0.00    +0.400 HD
ATOM     10  O   LIG    1        4.738  -0.071  -0.071  0.00  0.00    -0.500 OA
BRANCH   8  11
ATOM     11  C   LIG    1        4.991  -2.756  -0.099  0.00  0.00    +0.400 C 
BRANCH  11  12
ATOM     12  C   LIG    1        4.736  -4.241  -0.113  0.00  0.00    -0.040 A 
ATOM     13  C   LIG    1        4.594  -5.005  -1.211  0.00  0.00    -0.030 A 
ATOM     14  C   LIG    1        4.374  -6.328  -0.765  0.00  0.00    -0.070 A 
ATOM     15  C   LIG    1        4.386  -6.293   0.580  0.00  0.00    +0.180 A 
ATOM     16  O   LIG    1        4.605  -5.026   0.969  0.00  0.00    -0.170 OA
ENDBRANCH  11  12
ENDBRANCH   8  11
ENDBRANCH   6   7
BRANCH   1  17
ATOM     17  O   LIG    1        3.543   2.129  -0.046  0.00  0.00    -0.250 OA
BRANCH  17  18
ATOM     18  C   LIG    1        3.441   3.554  -0.032  0.00  0.00    +0.240 C 
BRANCH  18  20
ATOM     19  O   LIG    1        5.798   3.438  -0.039  0.00  0.00    -0.480 OA
ATOM     20  C   LIG    1        4.822   4.158  -0.030  0.00  0.00    +0.520 C 
ATOM     21  N   LIG    1        4.972   5.497  -0.017  0.00  0.00    -0.670 N 
ATOM     22  H   LIG    1        4.194   6.073  -0.075  0.00  0.00    +0.410 HD
BRANCH  21  23
ATOM     23  C   LIG    1        6.252   6.057   0.080  0.00  0.00    +0.110 A 
ATOM     24  C   LIG    1        7.333   5.430  -0.524  0.00  0.00    +0.060 A 
ATOM     25  C   LIG    1        8.594   5.986  -0.428  0.00  0.00    +0.030 A 
ATOM     26  C   LIG    1        8.782   7.164   0.270  0.00  0.00    +0.040 A 
ATOM     27  C   LIG    1        7.708   7.792   0.874  0.00  0.00    +0.000 A 
ATOM     28  C   LIG    1        6.442   7.246   0.776  0.00  0.00    +0.070 A 
ATOM     29  F   LIG    1        5.392   7.862   1.362  0.00  0.00    -0.140 F 
ENDBRANCH  21  23
ENDBRANCH  18  20
ENDBRANCH  17  18
ENDBRANCH   1  17
TORSDOF 7
