REMARK  Name = ZINCvU0000000Ide.0
REMARK                            x       y       z     vdW  Elec       q    Type
REMARK                         _______ _______ _______ _____ _____    ______ ____
ROOT
ATOM      1  C   LIG    1        2.039  -3.813   2.945  0.00  0.00    +0.270 A 
ATOM      2  N   LIG    1        3.228  -4.287   3.154  0.00  0.00    -0.490 NA
ATOM      3  C   LIG    1        3.615  -4.419   4.411  0.00  0.00    +0.140 A 
ATOM      4  C   LIG    1        2.689  -4.029   5.343  0.00  0.00    -0.230 A 
ATOM      5  S   LIG    1        1.259  -3.462   4.484  0.00  0.00    +0.230 S 
ENDROOT
BRANCH   4   6
ATOM      6  C   LIG    1        2.862  -4.070   6.808  0.00  0.00    -0.010 A 
ATOM      7  C   LIG    1        3.332  -5.231   7.426  0.00  0.00    +0.030 A 
ATOM      8  C   LIG    1        3.496  -5.261   8.796  0.00  0.00    +0.010 A 
ATOM      9  C   LIG    1        3.185  -4.148   9.557  0.00  0.00    +0.010 A 
ATOM     10  C   LIG    1        2.714  -2.997   8.951  0.00  0.00    +0.010 A 
ATOM     11  C   LIG    1        2.551  -2.951   7.583  0.00  0.00    +0.010 A 
ENDBRANCH   4   6
BRANCH   3  12
ATOM     12  C   LIG    1        4.948  -4.948   4.784  0.00  0.00    -0.020 A 
ATOM     13  C   LIG    1        5.687  -4.334   5.796  0.00  0.00    +0.030 A 
ATOM     14  C   LIG    1        6.925  -4.835   6.142  0.00  0.00    +0.000 A 
ATOM     15  C   LIG    1        7.438  -5.936   5.481  0.00  0.00    +0.010 A 
ATOM     16  C   LIG    1        6.713  -6.546   4.473  0.00  0.00    +0.000 A 
ATOM     17  C   LIG    1        5.471  -6.058   4.121  0.00  0.00    +0.030 A 
ENDBRANCH   3  12
BRANCH   1  19
ATOM     18  C   LIG    1        0.221  -3.109   1.598  0.00  0.00    +0.520 C 
ATOM     19  N   LIG    1        1.469  -3.608   1.696  0.00  0.00    -0.620 N 
ATOM     20  H   LIG    1        1.969  -3.825   0.893  0.00  0.00    +0.430 HD
ATOM     21  O   LIG    1       -0.404  -2.838   2.602  0.00  0.00    -0.490 OA
BRANCH  18  22
ATOM     22  C   LIG    1       -0.397  -2.886   0.242  0.00  0.00    +0.160 C 
BRANCH  22  27
ATOM     23  C   LIG    1       -4.156  -2.654   0.557  0.00  0.00    +0.090 A 
ATOM     24  C   LIG    1       -4.338  -1.288   0.711  0.00  0.00    -0.030 A 
ATOM     25  C   LIG    1       -3.246  -0.442   0.717  0.00  0.00    -0.040 A 
ATOM     26  C   LIG    1       -1.967  -0.959   0.569  0.00  0.00    +0.110 A 
ATOM     27  C   LIG    1       -1.786  -2.325   0.410  0.00  0.00    -0.070 A 
ATOM     28  C   LIG    1       -2.877  -3.171   0.409  0.00  0.00    +0.040 A 
BRANCH  23  30
ATOM     29  C   LIG    1       -6.518  -2.885   0.707  0.00  0.00    +0.240 C 
ATOM     30  O   LIG    1       -5.231  -3.486   0.550  0.00  0.00    -0.320 OA
ENDBRANCH  23  30
BRANCH  26  31
ATOM     31  O   LIG    1       -0.892  -0.126   0.576  0.00  0.00    -0.320 OA
ATOM     32  C   LIG    1       -1.153   1.269   0.739  0.00  0.00    +0.250 C 
ENDBRANCH  26  31
ENDBRANCH  22  27
ENDBRANCH  18  22
ENDBRANCH   1  19
TORSDOF 7
