REMARK  Name = ZINCrH000004j3vc.0
REMARK                            x       y       z     vdW  Elec       q    Type
REMARK                         _______ _______ _______ _____ _____    ______ ____
ROOT
ATOM      1  C   LIG    1       -6.129  -0.413   1.308  0.00  0.00    +0.350 A 
ATOM      2  N   LIG    1       -6.530  -1.553   1.834  0.00  0.00    -0.510 NA
ATOM      3  C   LIG    1       -7.847  -1.688   1.663  0.00  0.00    +0.200 A 
ATOM      4  N   LIG    1       -8.305  -0.639   1.017  0.00  0.00    -0.320 NA
ATOM      5  N   LIG    1       -7.207   0.203   0.775  0.00  0.00    -0.470 N 
ATOM      6  H   LIG    1       -7.221   1.058   0.316  0.00  0.00    +0.440 HD
ENDROOT
BRANCH   1  10
ATOM      7  C   LIG    1       -2.143   1.058   1.278  0.00  0.00    -0.060 A 
ATOM      8  C   LIG    1       -3.155   1.800   0.696  0.00  0.00    +0.010 A 
ATOM      9  C   LIG    1       -4.451   1.325   0.698  0.00  0.00    +0.030 A 
ATOM     10  C   LIG    1       -4.740   0.099   1.298  0.00  0.00    -0.050 A 
ATOM     11  C   LIG    1       -3.716  -0.642   1.887  0.00  0.00    +0.080 A 
ATOM     12  C   LIG    1       -2.424  -0.159   1.874  0.00  0.00    +0.010 A 
BRANCH   7  14
ATOM     13  C   LIG    1       -0.013   1.086   0.008  0.00  0.00    +0.030 C 
ATOM     14  C   LIG    1       -0.729   1.579   1.267  0.00  0.00    +0.070 C 
ENDBRANCH   7  14
ENDBRANCH   1  10
BRANCH   3  15
ATOM     15  S   LIG    1       -8.815  -3.055   2.209  0.00  0.00    +0.090 S 
BRANCH  15  16
ATOM     16  C   LIG    1      -10.487  -2.618   1.659  0.00  0.00    +0.080 C 
BRANCH  16  17
ATOM     17  C   LIG    1      -11.448  -3.707   2.057  0.00  0.00    +0.420 C 
ATOM     18  O   LIG    1      -11.045  -4.683   2.654  0.00  0.00    -0.430 OA
BRANCH  17  19
ATOM     19  C   LIG    1      -12.873  -3.588   1.723  0.00  0.00    -0.160 A 
ATOM     20  C   LIG    1      -13.342  -2.460   1.040  0.00  0.00    +0.080 A 
ATOM     21  C   LIG    1      -14.678  -2.354   0.725  0.00  0.00    +0.010 A 
ATOM     22  C   LIG    1      -15.568  -3.357   1.093  0.00  0.00    +0.090 A 
ATOM     23  O   LIG    1      -16.884  -3.225   0.780  0.00  0.00    -0.300 OA
ATOM     24  C   LIG    1      -17.680  -4.414   0.827  0.00  0.00    +0.230 C 
ATOM     25  C   LIG    1      -17.362  -5.153   2.134  0.00  0.00    +0.230 C 
ATOM     26  O   LIG    1      -15.967  -5.475   2.139  0.00  0.00    -0.300 OA
ATOM     27  C   LIG    1      -15.109  -4.482   1.777  0.00  0.00    +0.040 A 
ATOM     28  C   LIG    1      -13.769  -4.599   2.093  0.00  0.00    +0.100 A 
ENDBRANCH  17  19
ENDBRANCH  16  17
ENDBRANCH  15  16
ENDBRANCH   3  15
TORSDOF 6
