REMARK  Name = ZINCrH000004j3vc.1
REMARK                            x       y       z     vdW  Elec       q    Type
REMARK                         _______ _______ _______ _____ _____    ______ ____
ROOT
ATOM      1  C   LIG    1       -7.678   1.258   0.087  0.00  0.00    +0.280 A 
ATOM      2  N   LIG    1       -8.570   2.222   0.102  0.00  0.00    -0.290 NA
ATOM      3  N   LIG    1       -7.862   3.434   0.106  0.00  0.00    -0.460 N 
ATOM      4  H   LIG    1       -8.240   4.327   0.119  0.00  0.00    +0.450 HD
ATOM      5  C   LIG    1       -6.549   3.112   0.085  0.00  0.00    +0.250 A 
ATOM      6  N   LIG    1       -6.452   1.800   0.077  0.00  0.00    -0.530 NA
ENDROOT
BRANCH   1  10
ATOM      7  C   LIG    1       -8.539  -2.907   0.072  0.00  0.00    -0.060 A 
ATOM      8  C   LIG    1       -9.574  -1.989   0.088  0.00  0.00    +0.010 A 
ATOM      9  C   LIG    1       -9.301  -0.636   0.093  0.00  0.00    +0.050 A 
ATOM     10  C   LIG    1       -7.979  -0.196   0.082  0.00  0.00    -0.030 A 
ATOM     11  C   LIG    1       -6.940  -1.124   0.059  0.00  0.00    +0.060 A 
ATOM     12  C   LIG    1       -7.225  -2.475   0.061  0.00  0.00    +0.010 A 
BRANCH   7  14
ATOM     13  C   LIG    1       -8.963  -4.873  -1.378  0.00  0.00    +0.030 C 
ATOM     14  C   LIG    1       -8.844  -4.383   0.067  0.00  0.00    +0.050 C 
ENDBRANCH   7  14
ENDBRANCH   1  10
BRANCH   5  15
ATOM     15  S   LIG    1       -5.204   4.250   0.078  0.00  0.00    +0.070 S 
BRANCH  15  16
ATOM     16  C   LIG    1       -3.813   3.091   0.058  0.00  0.00    +0.110 C 
BRANCH  16  17
ATOM     17  C   LIG    1       -2.518   3.862   0.049  0.00  0.00    +0.420 C 
ATOM     18  O   LIG    1       -2.534   5.075   0.056  0.00  0.00    -0.430 OA
BRANCH  17  19
ATOM     19  C   LIG    1       -1.237   3.144   0.032  0.00  0.00    -0.170 A 
ATOM     20  C   LIG    1       -1.216   1.745   0.017  0.00  0.00    +0.090 A 
ATOM     21  C   LIG    1       -0.013   1.076   0.008  0.00  0.00    +0.020 A 
ATOM     22  C   LIG    1        1.184   1.784   0.000  0.00  0.00    +0.090 A 
ATOM     23  O   LIG    1        2.359   1.101  -0.011  0.00  0.00    -0.300 OA
ATOM     24  C   LIG    1        3.527   1.835  -0.395  0.00  0.00    +0.230 C 
ATOM     25  C   LIG    1        3.523   3.173   0.356  0.00  0.00    +0.230 C 
ATOM     26  O   LIG    1        2.334   3.885  -0.005  0.00  0.00    -0.300 OA
ATOM     27  C   LIG    1        1.171   3.178   0.007  0.00  0.00    +0.040 A 
ATOM     28  C   LIG    1       -0.032   3.857   0.024  0.00  0.00    +0.100 A 
ENDBRANCH  17  19
ENDBRANCH  16  17
ENDBRANCH  15  16
ENDBRANCH   5  15
TORSDOF 6
