REMARK  Name = ZINCqH00000074fm.0
REMARK                            x       y       z     vdW  Elec       q    Type
REMARK                         _______ _______ _______ _____ _____    ______ ____
ROOT
ATOM      1  C   LIG    1        3.790  -0.833  -0.133  0.00  0.00    +0.150 A 
ATOM      2  C   LIG    1        4.941  -0.056  -0.138  0.00  0.00    +0.030 A 
ATOM      3  C   LIG    1        6.179  -0.659  -0.239  0.00  0.00    +0.040 A 
ATOM      4  C   LIG    1        6.274  -2.034  -0.347  0.00  0.00    +0.020 A 
ATOM      5  C   LIG    1        5.129  -2.811  -0.348  0.00  0.00    -0.070 A 
ATOM      6  C   LIG    1        3.888  -2.215  -0.241  0.00  0.00    +0.000 A 
ENDROOT
BRANCH   1   8
ATOM      7  C   LIG    1        2.390   0.895   0.709  0.00  0.00    +0.570 C 
ATOM      8  N   LIG    1        2.535  -0.226  -0.024  0.00  0.00    -0.670 N 
ATOM      9  H   LIG    1        1.769  -0.613  -0.477  0.00  0.00    +0.410 HD
ATOM     10  O   LIG    1        3.327   1.325   1.354  0.00  0.00    -0.490 OA
BRANCH   7  14
ATOM     11  C   LIG    1       -1.268   2.960   0.817  0.00  0.00    +0.370 A 
ATOM     12  C   LIG    1       -1.183   1.812   0.036  0.00  0.00    -0.030 A 
ATOM     13  C   LIG    1        0.007   1.113  -0.010  0.00  0.00    +0.160 A 
ATOM     14  C   LIG    1        1.094   1.600   0.729  0.00  0.00    -0.220 A 
ATOM     15  C   LIG    1        0.932   2.764   1.486  0.00  0.00    +0.270 A 
ATOM     16 CL   LIG    1        2.266   3.384   2.408  0.00  0.00    +0.020 Cl
ATOM     17  N   LIG    1       -0.224   3.396   1.505  0.00  0.00    -0.540 NA
BRANCH  11  19
ATOM     18  C   LIG    1       -2.462   4.820   1.683  0.00  0.00    +0.270 C 
ATOM     19  O   LIG    1       -2.436   3.645   0.870  0.00  0.00    -0.290 OA
ENDBRANCH  11  19
ENDBRANCH   7  14
ENDBRANCH   1   8
BRANCH   5  20
ATOM     20  C   LIG    1        5.237  -4.309  -0.466  0.00  0.00    -0.280 C 
BRANCH  20  21
ATOM     21  S   LIG    1        5.195  -4.783  -2.217  0.00  0.00    +2.410 S 
ATOM     22  O   LIG    1        6.359  -4.272  -2.852  0.00  0.00    -0.930 OA
ATOM     23  O   LIG    1        3.916  -4.455  -2.744  0.00  0.00    -0.930 OA
BRANCH  21  24
ATOM     24  C   LIG    1        5.335  -6.589  -2.120  0.00  0.00    -0.540 C 
ATOM     25  C   LIG    1        6.647  -6.962  -1.429  0.00  0.00    +0.090 C 
ATOM     26  C   LIG    1        5.317  -7.178  -3.532  0.00  0.00    +0.080 C 
ATOM     27  C   LIG    1        4.159  -7.149  -1.318  0.00  0.00    +0.090 C 
ENDBRANCH  21  24
ENDBRANCH  20  21
ENDBRANCH   5  20
TORSDOF 6
