REMARK  Name = ZINCpk00001qfpvo.0
REMARK                            x       y       z     vdW  Elec       q    Type
REMARK                         _______ _______ _______ _____ _____    ______ ____
ROOT
ATOM      1  C   LIG    1       -1.981  -0.259   3.449  0.00  0.00    +0.200 C 
ATOM      2  C   LIG    1       -0.776  -1.110   3.044  0.00  0.00    +0.050 C 
ENDROOT
BRANCH   1   7
ATOM      3  N   LIG    1       -2.103   1.072   1.277  0.00  0.00    -0.290 N 
ATOM      4  N   LIG    1       -3.010   1.298   0.388  0.00  0.00    -0.080 NA
ATOM      5  N   LIG    1       -4.090   0.689   0.733  0.00  0.00    -0.080 NA
ATOM      6  N   LIG    1       -3.894   0.065   1.843  0.00  0.00    -0.280 NA
ATOM      7  C   LIG    1       -2.655   0.278   2.213  0.00  0.00    +0.180 A 
BRANCH   3   9
ATOM      8  C   LIG    1       -0.013   1.086   0.008  0.00  0.00    +0.070 C 
ATOM      9  C   LIG    1       -0.729   1.579   1.267  0.00  0.00    +0.250 C 
ATOM     10  C   LIG    1       -0.750   3.109   1.275  0.00  0.00    +0.070 C 
ENDBRANCH   3   9
ENDBRANCH   1   7
BRANCH   1  11
ATOM     11  N   LIG    1       -2.931  -1.085   4.206  0.00  0.00    -0.630 NA
ATOM     12  H   LIG    1       -3.305  -1.825   3.631  0.00  0.00    +0.370 HD
BRANCH  11  13
ATOM     13  C   LIG    1       -2.307  -1.626   5.421  0.00  0.00    +0.250 C 
ATOM     14  C   LIG    1       -1.956  -3.112   5.306  0.00  0.00    -0.360 C 
ATOM     15  S   LIG    1       -2.270  -3.322   7.081  0.00  0.00    +2.400 S 
ATOM     16  O   LIG    1       -3.013  -4.497   7.375  0.00  0.00    -0.910 OA
ATOM     17  O   LIG    1       -1.183  -2.888   7.887  0.00  0.00    -0.910 OA
ATOM     18  C   LIG    1       -3.315  -1.955   6.518  0.00  0.00    -0.520 C 
ATOM     19  C   LIG    1       -4.705  -2.377   6.012  0.00  0.00    +0.100 C 
ATOM     20  C   LIG    1       -5.666  -1.960   7.155  0.00  0.00    +0.020 C 
ATOM     21  C   LIG    1       -5.058  -0.621   7.643  0.00  0.00    +0.020 C 
ATOM     22  C   LIG    1       -3.533  -0.842   7.554  0.00  0.00    +0.060 C 
ENDBRANCH  11  13
ENDBRANCH   1  11
BRANCH   1  23
ATOM     23  C   LIG    1       -1.511   0.907   4.322  0.00  0.00    +0.060 C 
BRANCH  23  24
ATOM     24  C   LIG    1       -2.726   1.686   4.829  0.00  0.00    +0.210 C 
BRANCH  24  25
ATOM     25  C   LIG    1       -2.275   2.808   5.668  0.00  0.00    +0.200 C 
ATOM     26  N   LIG    1       -1.926   3.674   6.316  0.00  0.00    -0.420 NA
ENDBRANCH  24  25
ENDBRANCH  23  24
ENDBRANCH   1  23
TORSDOF 7
