REMARK  Name = ZINCvU0000000Am1.0
REMARK                            x       y       z     vdW  Elec       q    Type
REMARK                         _______ _______ _______ _____ _____    ______ ____
ROOT
ATOM      1  C   LIG    1        6.931  -3.147  -0.697  0.00  0.00    +0.160 A 
ATOM      2  N   LIG    1        6.841  -3.224   0.611  0.00  0.00    -0.280 NA
ATOM      3  N   LIG    1        5.620  -3.053   0.975  0.00  0.00    -0.250 NA
ATOM      4  C   LIG    1        4.865  -2.859  -0.068  0.00  0.00    +0.190 A 
ATOM      5  N   LIG    1        5.671  -2.917  -1.171  0.00  0.00    -0.420 N 
ENDROOT
BRANCH   5   6
ATOM      6  C   LIG    1        5.268  -2.761  -2.571  0.00  0.00    +0.190 C 
ATOM      7  C   LIG    1        6.244  -3.246  -3.645  0.00  0.00    +0.070 C 
ATOM      8  C   LIG    1        6.037  -1.746  -3.419  0.00  0.00    +0.060 C 
ENDBRANCH   5   6
BRANCH   1   9
ATOM      9  S   LIG    1        8.398  -3.315  -1.658  0.00  0.00    +0.070 S 
BRANCH   9  10
ATOM     10  C   LIG    1        9.606  -3.600  -0.340  0.00  0.00    +0.250 C 
BRANCH  10  14
ATOM     11  C   LIG    1       12.921  -3.455  -1.722  0.00  0.00    +0.220 A 
ATOM     12  N   LIG    1       12.639  -4.730  -1.777  0.00  0.00    -0.370 NA
ATOM     13  O   LIG    1       11.529  -4.931  -1.330  0.00  0.00    +0.100 OA
ATOM     14  C   LIG    1       10.975  -3.778  -0.944  0.00  0.00    +0.190 A 
ATOM     15  N   LIG    1       11.848  -2.831  -1.183  0.00  0.00    -0.450 NA
BRANCH  11  20
ATOM     16  C   LIG    1       17.815  -0.958  -3.449  0.00  0.00    +0.100 C 
ATOM     17  C   LIG    1       16.535  -1.611  -2.997  0.00  0.00    -0.060 A 
ATOM     18  C   LIG    1       16.379  -2.980  -3.119  0.00  0.00    +0.010 A 
ATOM     19  C   LIG    1       15.209  -3.584  -2.706  0.00  0.00    +0.050 A 
ATOM     20  C   LIG    1       14.182  -2.811  -2.167  0.00  0.00    -0.040 A 
ATOM     21  C   LIG    1       14.342  -1.432  -2.052  0.00  0.00    +0.070 A 
ATOM     22  C   LIG    1       15.519  -0.840  -2.462  0.00  0.00    +0.010 A 
ENDBRANCH  11  20
ENDBRANCH  10  14
ENDBRANCH   9  10
ENDBRANCH   1   9
BRANCH   4  23
ATOM     23  C   LIG    1        3.377  -2.621  -0.062  0.00  0.00    +0.350 C 
BRANCH  23  24
ATOM     24  O   LIG    1        3.119  -1.219   0.033  0.00  0.00    -0.300 OA
BRANCH  24  25
ATOM     25  C   LIG    1        1.816  -0.831   0.051  0.00  0.00    +0.140 A 
ATOM     26  C   LIG    1        0.808  -1.780  -0.021  0.00  0.00    -0.060 A 
ATOM     27  C   LIG    1       -0.516  -1.383  -0.002  0.00  0.00    +0.060 A 
ATOM     28  C   LIG    1       -0.836  -0.042   0.087  0.00  0.00    +0.000 A 
ATOM     29  C   LIG    1        0.167   0.907   0.159  0.00  0.00    +0.070 A 
ATOM     30  C   LIG    1        1.493   0.516   0.141  0.00  0.00    -0.070 A 
ATOM     31 CL   LIG    1        2.752   1.708   0.232  0.00  0.00    -0.050 Cl
ENDBRANCH  24  25
ENDBRANCH  23  24
ENDBRANCH   4  23
TORSDOF 8
