REMARK  Name = ZINCrg000000rgzo.0
REMARK                            x       y       z     vdW  Elec       q    Type
REMARK                         _______ _______ _______ _____ _____    ______ ____
ROOT
ATOM      1  C   LIG    1       -0.013   1.086   0.008  0.00  0.00    +0.040 C 
ENDROOT
BRANCH   1   2
ATOM      2  C   LIG    1       -0.729   1.579   1.267  0.00  0.00    +0.060 C 
BRANCH   2   5
ATOM      3  N   LIG    1       -0.453   1.393   3.718  0.00  0.00    -0.730 N 
ATOM      4  H   LIG    1       -1.248   1.939   3.817  0.00  0.00    +0.400 HD
ATOM      5  C   LIG    1        0.000   1.080   2.488  0.00  0.00    +0.520 C 
ATOM      6  O   LIG    1        0.994   0.397   2.363  0.00  0.00    -0.530 OA
BRANCH   3   8
ATOM      7  C   LIG    1       -0.228  -0.504   5.246  0.00  0.00    +0.040 C 
ATOM      8  C   LIG    1        0.256   0.907   4.905  0.00  0.00    +0.280 C 
BRANCH   8   9
ATOM      9  C   LIG    1       -0.021   1.827   6.066  0.00  0.00    -0.090 A 
ATOM     10  C   LIG    1       -1.288   2.348   6.248  0.00  0.00    +0.000 A 
ATOM     11  C   LIG    1       -1.543   3.188   7.316  0.00  0.00    +0.000 A 
ATOM     12  C   LIG    1       -0.528   3.515   8.196  0.00  0.00    +0.000 A 
ATOM     13  C   LIG    1        0.740   2.998   8.011  0.00  0.00    +0.020 A 
ATOM     14  C   LIG    1        0.994   2.155   6.946  0.00  0.00    +0.010 A 
ENDBRANCH   8   9
ENDBRANCH   3   8
ENDBRANCH   2   5
ENDBRANCH   1   2
BRANCH   1  15
ATOM     15  C   LIG    1       -0.753   1.593  -1.232  0.00  0.00    +0.320 C 
BRANCH  15  16
ATOM     16  N   LIG    1       -0.067   1.120  -2.437  0.00  0.00    -0.410 N 
ATOM     17  C   LIG    1        0.855   1.795  -3.151  0.00  0.00    +0.500 A 
ATOM     18  N   LIG    1        1.251   1.065  -4.162  0.00  0.00    -0.500 NA
ATOM     19  C   LIG    1        0.610  -0.107  -4.153  0.00  0.00    +0.320 A 
ATOM     20  N   LIG    1        0.642  -1.226  -4.969  0.00  0.00    -0.510 N 
ATOM     21  C   LIG    1        1.533  -1.258  -6.132  0.00  0.00    +0.340 C 
ATOM     22  C   LIG    1       -0.144  -2.284  -4.695  0.00  0.00    +0.710 A 
ATOM     23  O   LIG    1       -0.102  -3.258  -5.423  0.00  0.00    -0.530 OA
ATOM     24  N   LIG    1       -0.974  -2.292  -3.638  0.00  0.00    -0.550 N 
ATOM     25  C   LIG    1       -1.809  -3.469  -3.385  0.00  0.00    +0.350 C 
ATOM     26  C   LIG    1       -1.050  -1.232  -2.807  0.00  0.00    +0.590 A 
ATOM     27  O   LIG    1       -1.805  -1.251  -1.851  0.00  0.00    -0.510 OA
ATOM     28  C   LIG    1       -0.239  -0.103  -3.053  0.00  0.00    -0.150 A 
ENDBRANCH  15  16
ENDBRANCH   1  15
TORSDOF 6
