REMARK  Name = ZINCrD00000hQ6uQ.0
REMARK                            x       y       z     vdW  Elec       q    Type
REMARK                         _______ _______ _______ _____ _____    ______ ____
ROOT
ATOM      1  C   LIG    1        3.664   2.147   0.008  0.00  0.00    +0.560 C 
ATOM      2  N   LIG    1        3.652   3.494   0.011  0.00  0.00    -0.710 N 
ATOM      3  H   LIG    1        2.808   3.972   0.014  0.00  0.00    +0.410 HD
ATOM      4  O   LIG    1        4.722   1.548   0.004  0.00  0.00    -0.520 OA
ENDROOT
BRANCH   2   5
ATOM      5  C   LIG    1        4.915   4.238   0.011  0.00  0.00    +0.300 C 
ATOM      6  C   LIG    1        5.414   4.435  -1.405  0.00  0.00    +0.520 C 
ATOM      7  N   LIG    1        5.464   5.760  -1.626  0.00  0.00    -0.660 N 
ATOM      8  H   LIG    1        5.752   6.158  -2.462  0.00  0.00    +0.420 HD
ATOM      9  C   LIG    1        5.053   6.497  -0.514  0.00  0.00    +0.150 A 
ATOM     10  C   LIG    1        4.954   7.873  -0.320  0.00  0.00    -0.010 A 
ATOM     11  C   LIG    1        4.513   8.371   0.889  0.00  0.00    +0.060 A 
ATOM     12  C   LIG    1        4.167   7.512   1.915  0.00  0.00    -0.100 A 
ATOM     13  C   LIG    1        4.262   6.143   1.729  0.00  0.00    +0.080 A 
ATOM     14  O   LIG    1        5.713   3.562  -2.191  0.00  0.00    -0.470 OA
ATOM     15  C   LIG    1        4.702   5.643   0.524  0.00  0.00    -0.160 A 
BRANCH  12  16
ATOM     16  C   LIG    1        3.686   8.063   3.233  0.00  0.00    +0.030 C 
ATOM     17  C   LIG    1        2.423   8.896   3.007  0.00  0.00    +0.030 C 
ATOM     18  C   LIG    1        4.776   8.946   3.844  0.00  0.00    +0.030 C 
ENDBRANCH  12  16
ENDBRANCH   2   5
BRANCH   1  22
ATOM     19  C   LIG    1        0.005  -0.009   0.009  0.00  0.00    +0.170 A 
ATOM     20  C   LIG    1       -0.009   1.383   0.013  0.00  0.00    -0.020 A 
ATOM     21  C   LIG    1        1.175   2.085   0.012  0.00  0.00    +0.070 A 
ATOM     22  C   LIG    1        2.393   1.398   0.008  0.00  0.00    -0.150 A 
ATOM     23  C   LIG    1        2.403   0.000   0.005  0.00  0.00    +0.110 A 
ATOM     24  C   LIG    1        1.215  -0.695   0.005  0.00  0.00    +0.020 A 
BRANCH  19  26
ATOM     25  C   LIG    1       -1.294  -1.878  -0.665  0.00  0.00    +0.540 C 
ATOM     26  N   LIG    1       -1.196  -0.716   0.010  0.00  0.00    -0.670 N 
ATOM     27  H   LIG    1       -1.961  -0.371   0.496  0.00  0.00    +0.420 HD
ATOM     28  O   LIG    1       -0.313  -2.352  -1.205  0.00  0.00    -0.520 OA
BRANCH  25  30
ATOM     29  C   LIG    1       -2.683  -3.721  -1.414  0.00  0.00    +0.160 C 
ATOM     30  C   LIG    1       -2.587  -2.573  -0.748  0.00  0.00    -0.090 C 
ENDBRANCH  25  30
ENDBRANCH  19  26
ENDBRANCH   1  22
TORSDOF 5
