REMARK  Name = ZINC9H0000000CDk.0
REMARK                            x       y       z     vdW  Elec       q    Type
REMARK                         _______ _______ _______ _____ _____    ______ ____
ROOT
ATOM      1 CL   LIG    1       -1.532   2.228   0.021  0.00  0.00    -0.040 Cl
ATOM      2  C   LIG    1       -0.017   1.381   0.010  0.00  0.00    -0.020 A 
ATOM      3  C   LIG    1        1.172   2.088   0.002  0.00  0.00    +0.060 A 
ATOM      4  C   LIG    1        2.378   1.413  -0.013  0.00  0.00    +0.080 A 
ATOM      5  C   LIG    1        2.397   0.030  -0.021  0.00  0.00    -0.080 A 
ATOM      6  C   LIG    1        1.209  -0.678  -0.013  0.00  0.00    +0.080 A 
ATOM      7 BR   LIG    1        4.048  -0.892  -0.041  0.00  0.00    -0.020 Br
ATOM      8  C   LIG    1        0.002  -0.004   0.002  0.00  0.00    -0.030 A 
ATOM      9 CL   LIG    1       -1.489  -0.893   0.011  0.00  0.00    -0.030 Cl
ENDROOT
TORSDOF 0
