REMARK  Name = ZINC9u0000001N3o.0
REMARK                            x       y       z     vdW  Elec       q    Type
REMARK                         _______ _______ _______ _____ _____    ______ ____
ROOT
ATOM      1  C   LIG    1       -2.555   3.859   0.046  0.00  0.00    +0.160 C 
ATOM      2  C   LIG    1       -1.241   3.122   0.030  0.00  0.00    +0.160 A 
ATOM      3  C   LIG    1       -1.233   1.769   0.018  0.00  0.00    -0.020 A 
ATOM      4  C   LIG    1       -0.013   1.076   0.008  0.00  0.00    +0.190 A 
ATOM      5  C   LIG    1        1.155   1.782   0.001  0.00  0.00    -0.150 A 
ATOM      6  C   LIG    1        1.110   3.186   0.009  0.00  0.00    +0.310 A 
ATOM      7  S   LIG    1        2.565   4.088   0.000  0.00  0.00    -0.580 S 
ATOM      8 BR   LIG    1        2.817   0.879  -0.021  0.00  0.00    +0.020 Br
ATOM      9  N   LIG    1       -0.076   3.822   0.023  0.00  0.00    -0.520 N 
ATOM     10  H   LIG    1       -0.100   4.792   0.029  0.00  0.00    +0.440 HD
ENDROOT
TORSDOF 0
