REMARK  Name = ZINCrD000000ADbx.0
REMARK                            x       y       z     vdW  Elec       q    Type
REMARK                         _______ _______ _______ _____ _____    ______ ____
ROOT
ATOM      1  O   LIG    1        4.321   3.563   2.104  0.00  0.00    -0.510 OA
ATOM      2  C   LIG    1        4.375   4.282   1.128  0.00  0.00    +0.500 C 
ATOM      3  N   LIG    1        4.711   5.580   1.265  0.00  0.00    -0.720 N 
ATOM      4  H   LIG    1        4.754   6.155   0.485  0.00  0.00    +0.410 HD
ENDROOT
BRANCH   3   5
ATOM      5  C   LIG    1        5.011   6.123   2.592  0.00  0.00    +0.290 C 
ATOM      6  C   LIG    1        5.945   7.322   2.446  0.00  0.00    +0.020 C 
ATOM      7  C   LIG    1        6.074   8.005   3.813  0.00  0.00    +0.030 C 
ATOM      8  C   LIG    1        4.741   8.674   4.144  0.00  0.00    +0.080 C 
ATOM      9  C   LIG    1        3.604   7.699   3.983  0.00  0.00    -0.070 A 
ATOM     10  C   LIG    1        2.393   8.013   4.585  0.00  0.00    -0.010 A 
ATOM     11  C   LIG    1        1.309   7.168   4.463  0.00  0.00    +0.010 A 
ATOM     12  C   LIG    1        1.430   5.997   3.738  0.00  0.00    -0.010 A 
ATOM     13  C   LIG    1        2.634   5.682   3.142  0.00  0.00    +0.010 A 
ATOM     14  C   LIG    1        3.726   6.531   3.264  0.00  0.00    -0.100 A 
ENDBRANCH   3   5
BRANCH   2  15
ATOM     15  C   LIG    1        4.066   3.723  -0.237  0.00  0.00    +0.370 C 
BRANCH  15  16
ATOM     16  N   LIG    1        3.732   2.302  -0.119  0.00  0.00    -0.530 N 
ATOM     17  C   LIG    1        4.583   1.249  -0.079  0.00  0.00    +0.570 A 
ATOM     18  O   LIG    1        3.818   0.151   0.034  0.00  0.00    +0.010 OA
ATOM     19  N   LIG    1        2.645   0.445   0.069  0.00  0.00    -0.310 NA
ATOM     20  O   LIG    1        5.797   1.289  -0.135  0.00  0.00    -0.470 OA
ATOM     21  C   LIG    1        2.471   1.730  -0.022  0.00  0.00    +0.280 A 
BRANCH  21  22
ATOM     22  C   LIG    1        1.176   2.446  -0.018  0.00  0.00    -0.030 A 
ATOM     23  C   LIG    1        0.297   2.299   1.055  0.00  0.00    +0.080 A 
ATOM     24  C   LIG    1       -0.908   2.970   1.053  0.00  0.00    +0.030 A 
ATOM     25  C   LIG    1       -1.247   3.788  -0.009  0.00  0.00    +0.060 A 
ATOM     26  C   LIG    1       -0.379   3.944  -1.075  0.00  0.00    +0.040 A 
ATOM     27  C   LIG    1        0.829   3.273  -1.088  0.00  0.00    -0.020 A 
ATOM     28 CL   LIG    1        1.915   3.464  -2.429  0.00  0.00    -0.050 Cl
ENDBRANCH  21  22
ENDBRANCH  15  16
ENDBRANCH   2  15
TORSDOF 4
