REMARK  Name = ZINCpe000000WMuM.0
REMARK                            x       y       z     vdW  Elec       q    Type
REMARK                         _______ _______ _______ _____ _____    ______ ____
ROOT
ATOM      1  C   LIG    1        1.974   3.586  -1.389  0.00  0.00    +0.510 C 
ATOM      2  N   LIG    1        2.462   4.826  -1.588  0.00  0.00    -0.610 N 
ATOM      3  C   LIG    1        2.756   5.716  -0.454  0.00  0.00    +0.280 C 
ATOM      4  C   LIG    1        4.181   6.256  -0.618  0.00  0.00    +0.230 C 
ATOM      5  O   LIG    1        4.321   6.829  -1.921  0.00  0.00    -0.360 OA
ATOM      6  C   LIG    1        4.140   5.900  -2.989  0.00  0.00    +0.110 C 
ATOM      7  C   LIG    1        5.156   4.754  -2.857  0.00  0.00    +0.060 C 
ATOM      8  C   LIG    1        6.538   5.340  -3.248  0.00  0.00    -0.300 C 
ATOM      9  S   LIG    1        6.138   6.364  -4.714  0.00  0.00    +2.390 S 
ATOM     10  O   LIG    1        6.819   7.608  -4.623  0.00  0.00    -0.930 OA
ATOM     11  O   LIG    1        6.262   5.573  -5.888  0.00  0.00    -0.930 OA
ATOM     12  C   LIG    1        4.365   6.613  -4.335  0.00  0.00    -0.280 C 
ATOM     13  C   LIG    1        2.724   5.328  -2.947  0.00  0.00    +0.280 C 
ATOM     14  O   LIG    1        1.673   3.225  -0.271  0.00  0.00    -0.510 OA
ENDROOT
BRANCH   1  16
ATOM     15  C   LIG    1        0.587   3.080  -3.382  0.00  0.00    +0.100 C 
ATOM     16  C   LIG    1        1.800   2.648  -2.556  0.00  0.00    +0.270 C 
BRANCH  16  17
ATOM     17  N   LIG    1        1.593   1.285  -2.060  0.00  0.00    -0.340 N 
ATOM     18  C   LIG    1        0.414   0.749  -1.680  0.00  0.00    +0.270 A 
ATOM     19  C   LIG    1        0.647  -0.525  -1.289  0.00  0.00    -0.070 A 
ATOM     20  C   LIG    1        2.015  -0.776  -1.434  0.00  0.00    -0.010 A 
ATOM     21  N   LIG    1        2.583   0.308  -1.896  0.00  0.00    -0.230 NA
BRANCH  20  22
ATOM     22  C   LIG    1        2.715  -2.072  -1.114  0.00  0.00    +0.560 C 
ATOM     23  F   LIG    1        2.257  -3.075  -1.976  0.00  0.00    -0.170 F 
ATOM     24  F   LIG    1        2.442  -2.435   0.210  0.00  0.00    -0.160 F 
ATOM     25  F   LIG    1        4.094  -1.911  -1.278  0.00  0.00    -0.170 F 
ENDBRANCH  20  22
ENDBRANCH  16  17
ENDBRANCH   1  16
TORSDOF 3
