REMARK  Name = ZINCpk00000e92QF.0
REMARK                            x       y       z     vdW  Elec       q    Type
REMARK                         _______ _______ _______ _____ _____    ______ ____
ROOT
ATOM      1  N   LIG    1       -1.721   4.033  -0.207  0.00  0.00    -0.620 N 
ATOM      2  H   LIG    1       -1.284   4.899  -0.219  0.00  0.00    +0.420 HD
ATOM      3  C   LIG    1       -3.064   3.958  -0.126  0.00  0.00    +0.520 C 
ATOM      4  O   LIG    1       -3.612   2.875  -0.112  0.00  0.00    -0.470 OA
ENDROOT
BRANCH   3   5
ATOM      5  C   LIG    1       -3.879   5.207  -0.054  0.00  0.00    +0.530 C 
ATOM      6  N   LIG    1       -5.222   5.132   0.027  0.00  0.00    -0.580 N 
ATOM      7  C   LIG    1       -6.020   3.894  -0.050  0.00  0.00    +0.280 C 
ATOM      8  C   LIG    1       -7.340   4.229   0.692  0.00  0.00    +0.040 C 
ATOM      9  C   LIG    1       -7.569   5.703   0.266  0.00  0.00    +0.040 C 
ATOM     10  C   LIG    1       -6.135   6.271   0.201  0.00  0.00    +0.210 C 
ATOM     11  O   LIG    1       -3.332   6.290  -0.068  0.00  0.00    -0.510 OA
BRANCH  10  12
ATOM     12  C   LIG    1       -6.004   7.229  -0.985  0.00  0.00    +0.300 C 
BRANCH  12  13
ATOM     13  N   LIG    1       -6.817   8.423  -0.741  0.00  0.00    -0.460 N 
ATOM     14  C   LIG    1       -6.384   9.603  -0.200  0.00  0.00    +0.120 A 
ATOM     15  C   LIG    1       -7.450  10.425  -0.154  0.00  0.00    +0.140 A 
ATOM     16  N   LIG    1       -8.505   9.764  -0.653  0.00  0.00    -0.490 NA
ATOM     17  C   LIG    1       -8.132   8.566  -1.012  0.00  0.00    +0.380 A 
ENDBRANCH  12  13
ENDBRANCH  10  12
ENDBRANCH   3   5
BRANCH   1  22
ATOM     18  N   LIG    1        0.392   2.796  -0.359  0.00  0.00    -0.370 N 
ATOM     19  N   LIG    1        0.746   1.441  -0.405  0.00  0.00    -0.280 NA
ATOM     20  C   LIG    1       -0.348   0.726  -0.350  0.00  0.00    +0.250 A 
ATOM     21  C   LIG    1       -1.440   1.593  -0.274  0.00  0.00    -0.100 A 
ATOM     22  C   LIG    1       -0.962   2.869  -0.275  0.00  0.00    +0.300 A 
BRANCH  18  24
ATOM     23  C   LIG    1        2.754   3.416  -0.493  0.00  0.00    +0.070 C 
ATOM     24  C   LIG    1        1.317   3.931  -0.396  0.00  0.00    +0.170 C 
ATOM     25  C   LIG    1        1.158   4.761   0.880  0.00  0.00    +0.060 C 
ATOM     26  C   LIG    1        1.005   4.804  -1.613  0.00  0.00    +0.060 C 
ENDBRANCH  18  24
ENDBRANCH   1  22
TORSDOF 5
