REMARK  Name = ZINCrD0000071YSY.0
REMARK                            x       y       z     vdW  Elec       q    Type
REMARK                         _______ _______ _______ _____ _____    ______ ____
ROOT
ATOM      1  C   LIG    1       -4.002   9.397   4.604  0.00  0.00    -0.300 A 
ATOM      2  C   LIG    1       -3.003   8.662   5.163  0.00  0.00    +0.070 A 
ATOM      3  C   LIG    1       -2.003   9.432   5.739  0.00  0.00    -0.170 A 
ATOM      4  C   LIG    1       -2.210  10.792   5.626  0.00  0.00    +0.160 A 
ATOM      5  S   LIG    1       -3.670  11.110   4.804  0.00  0.00    +0.310 S 
ENDROOT
BRANCH   4   6
ATOM      6  N   LIG    1       -1.359  11.758   6.114  0.00  0.00    -0.800 N 
ATOM      7  H   LIG    1       -0.544  11.499   6.572  0.00  0.00    +0.420 HD
ATOM      8  H   LIG    1       -1.573  12.696   5.999  0.00  0.00    +0.420 HD
ENDBRANCH   4   6
BRANCH   1   9
ATOM      9  C   LIG    1       -5.143   8.860   3.957  0.00  0.00    +0.550 C 
ATOM     10  O   LIG    1       -5.282   7.654   3.870  0.00  0.00    -0.490 OA
BRANCH   9  11
ATOM     11  O   LIG    1       -6.075   9.685   3.437  0.00  0.00    -0.350 OA
BRANCH  11  13
ATOM     12  C   LIG    1       -8.140  10.162   2.275  0.00  0.00    +0.070 C 
ATOM     13  C   LIG    1       -7.199   9.075   2.799  0.00  0.00    +0.200 C 
ENDBRANCH  11  13
ENDBRANCH   9  11
ENDBRANCH   1   9
BRANCH   3  14
ATOM     14  C   LIG    1       -0.859   8.868   6.389  0.00  0.00    +0.270 C 
ATOM     15  N   LIG    1        0.049   8.420   6.905  0.00  0.00    -0.410 NA
ENDBRANCH   3  14
BRANCH   2  16
ATOM     16  C   LIG    1       -2.986   7.155   5.162  0.00  0.00    +0.310 C 
BRANCH  16  17
ATOM     17  O   LIG    1       -2.308   6.679   3.970  0.00  0.00    -0.340 OA
BRANCH  17  18
ATOM     18  C   LIG    1       -2.207   5.345   3.815  0.00  0.00    +0.520 C 
ATOM     19  O   LIG    1       -2.672   4.599   4.654  0.00  0.00    -0.490 OA
BRANCH  18  20
ATOM     20  C   LIG    1       -1.530   4.788   2.626  0.00  0.00    -0.090 A 
ATOM     21  C   LIG    1       -0.994   5.643   1.661  0.00  0.00    +0.060 A 
ATOM     22  C   LIG    1       -0.362   5.119   0.551  0.00  0.00    +0.050 A 
ATOM     23  C   LIG    1       -0.252   3.750   0.395  0.00  0.00    -0.020 A 
ATOM     24  C   LIG    1       -0.787   2.892   1.346  0.00  0.00    +0.100 A 
ATOM     25  C   LIG    1       -1.424   3.406   2.463  0.00  0.00    +0.080 A 
BRANCH  24  26
ATOM     26  O   LIG    1       -0.682   1.547   1.184  0.00  0.00    -0.320 OA
BRANCH  26  27
ATOM     27  C   LIG    1       -0.013   1.086   0.008  0.00  0.00    +0.600 C 
ATOM     28  F   LIG    1       -0.689   1.549  -1.125  0.00  0.00    -0.200 F 
ATOM     29  F   LIG    1        1.300   1.570  -0.002  0.00  0.00    -0.200 F 
ENDBRANCH  26  27
ENDBRANCH  24  26
ENDBRANCH  18  20
ENDBRANCH  17  18
ENDBRANCH  16  17
ENDBRANCH   2  16
TORSDOF 11
