REMARK  Name = ZINCpk00000e9Msp.2
REMARK                            x       y       z     vdW  Elec       q    Type
REMARK                         _______ _______ _______ _____ _____    ______ ____
ROOT
ATOM      1  C   LIG    1       -2.480   1.398   0.052  0.00  0.00    +0.290 C 
ENDROOT
BRANCH   1   2
ATOM      2  C   LIG    1       -2.929   1.110   1.486  0.00  0.00    -0.010 C 
ATOM      3  C   LIG    1       -1.919   0.176   2.159  0.00  0.00    +0.020 C 
ATOM      4  C   LIG    1       -2.406  -0.155   3.573  0.00  0.00    +0.020 C 
ATOM      5  C   LIG    1       -3.796  -0.790   3.493  0.00  0.00    +0.180 C 
ATOM      6  N   LIG    1       -4.725   0.143   2.842  0.00  0.00    -0.540 NA
ATOM      7  C   LIG    1       -6.099  -0.376   2.872  0.00  0.00    +0.190 C 
ATOM      8  C   LIG    1       -4.304   0.438   1.466  0.00  0.00    +0.220 C 
BRANCH   8   9
ATOM      9  C   LIG    1       -5.305   1.363   0.822  0.00  0.00    +0.090 A 
ATOM     10  C   LIG    1       -6.047   1.093  -0.277  0.00  0.00    -0.130 A 
ATOM     11  C   LIG    1       -6.845   2.211  -0.541  0.00  0.00    +0.230 A 
ATOM     12  N   LIG    1       -6.591   3.119   0.366  0.00  0.00    -0.290 NA
ATOM     13  N   LIG    1       -5.626   2.604   1.241  0.00  0.00    -0.350 N 
ATOM     14  C   LIG    1       -5.061   3.294   2.404  0.00  0.00    +0.350 C 
ENDBRANCH   8   9
ENDBRANCH   1   2
BRANCH   1  16
ATOM     15  C   LIG    1       -1.233   3.607   0.103  0.00  0.00    +0.290 C 
ATOM     16  N   LIG    1       -1.219   2.142   0.074  0.00  0.00    -0.610 N 
BRANCH  16  17
ATOM     17  C   LIG    1       -0.007   1.458   0.068  0.00  0.00    +0.250 A 
ATOM     18  C   LIG    1        0.027   0.065   0.041  0.00  0.00    -0.090 A 
ATOM     19  C   LIG    1        1.250  -0.581   0.030  0.00  0.00    +0.300 A 
ATOM     20  N   LIG    1        2.376   0.099   0.046  0.00  0.00    -0.500 NA
ATOM     21  C   LIG    1        2.392   1.427   0.072  0.00  0.00    +0.110 A 
ATOM     22  C   LIG    1        1.205   2.150   0.084  0.00  0.00    -0.040 A 
BRANCH  21  23
ATOM     23  C   LIG    1        3.688   2.146   0.089  0.00  0.00    +0.580 C 
ATOM     24  O   LIG    1        3.709   3.360   0.113  0.00  0.00    -0.540 OA
ATOM     25  N   LIG    1        4.843   1.452   0.078  0.00  0.00    -0.830 N 
ATOM     26  H   LIG    1        5.692   1.922   0.089  0.00  0.00    +0.410 HD
ATOM     27  H   LIG    1        4.826   0.482   0.059  0.00  0.00    +0.410 HD
ENDBRANCH  21  23
ENDBRANCH  16  17
ENDBRANCH   1  16
TORSDOF 5
