REMARK  Name = ZINCrH000004uScW.0
REMARK                            x       y       z     vdW  Elec       q    Type
REMARK                         _______ _______ _______ _____ _____    ______ ____
ROOT
ATOM      1  O   LIG    1        4.710   0.629  -1.824  0.00  0.00    -0.500 OA
ATOM      2  C   LIG    1        4.814  -0.157  -0.901  0.00  0.00    +0.600 C 
ATOM      3  N   LIG    1        3.726  -0.506  -0.187  0.00  0.00    -0.710 N 
ATOM      4  H   LIG    1        3.795  -1.188   0.500  0.00  0.00    +0.410 HD
ENDROOT
BRANCH   3   5
ATOM      5  C   LIG    1        2.439   0.144  -0.448  0.00  0.00    +0.220 C 
ATOM      6  C   LIG    1        2.341   1.440   0.366  0.00  0.00    +0.230 C 
ATOM      7  O   LIG    1        1.125   2.102   0.013  0.00  0.00    -0.300 OA
ATOM      8  C   LIG    1       -0.019   1.370   0.012  0.00  0.00    +0.130 A 
ATOM      9  C   LIG    1       -1.237   2.042   0.024  0.00  0.00    +0.010 A 
ATOM     10  C   LIG    1       -2.422   1.334   0.020  0.00  0.00    +0.060 A 
ATOM     11  C   LIG    1       -2.400  -0.048  -0.002  0.00  0.00    +0.020 A 
ATOM     12  C   LIG    1       -1.192  -0.719  -0.015  0.00  0.00    -0.060 A 
ATOM     13 BR   LIG    1       -1.166  -2.610  -0.045  0.00  0.00    -0.040 Br
ATOM     14  C   LIG    1        0.000  -0.013  -0.007  0.00  0.00    -0.130 A 
ATOM     15  C   LIG    1        1.298  -0.781  -0.018  0.00  0.00    +0.100 C 
ENDBRANCH   3   5
BRANCH   2  16
ATOM     16  C   LIG    1        6.126  -0.725  -0.566  0.00  0.00    -0.010 A 
ATOM     17  C   LIG    1        6.754  -1.767  -1.191  0.00  0.00    -0.030 A 
ATOM     18  N   LIG    1        7.923  -1.966  -0.579  0.00  0.00    -0.450 NA
ATOM     19  C   LIG    1        8.062  -1.106   0.394  0.00  0.00    +0.250 A 
ATOM     20  C   LIG    1        9.235  -0.980   1.338  0.00  0.00    +0.170 C 
ATOM     21  C   LIG    1        9.149   0.386   2.031  0.00  0.00    +0.040 C 
ATOM     22  C   LIG    1        7.730   0.587   2.573  0.00  0.00    +0.040 C 
ATOM     23  C   LIG    1        6.758   0.768   1.402  0.00  0.00    +0.290 C 
ATOM     24  N   LIG    1        6.973  -0.312   0.437  0.00  0.00    -0.420 N 
BRANCH  17  25
ATOM     25  C   LIG    1        6.221  -2.551  -2.362  0.00  0.00    +0.550 C 
ATOM     26  F   LIG    1        4.823  -2.573  -2.312  0.00  0.00    -0.170 F 
ATOM     27  F   LIG    1        6.711  -3.861  -2.309  0.00  0.00    -0.160 F 
ATOM     28  F   LIG    1        6.635  -1.947  -3.554  0.00  0.00    -0.170 F 
ENDBRANCH  17  25
ENDBRANCH   2  16
TORSDOF 3
