REMARK  Name = ZINCrg000000nA6o.0
REMARK                            x       y       z     vdW  Elec       q    Type
REMARK                         _______ _______ _______ _____ _____    ______ ____
ROOT
ATOM      1  C   LIG    1       -3.537   1.963   0.630  0.00  0.00    +0.550 C 
ATOM      2  N   LIG    1       -4.789   1.476   0.737  0.00  0.00    -0.640 N 
ATOM      3  C   LIG    1       -5.470   0.220   0.384  0.00  0.00    +0.330 C 
ATOM      4  C   LIG    1       -6.465   0.516   1.508  0.00  0.00    +0.120 C 
ATOM      5  C   LIG    1       -7.916   0.182   1.166  0.00  0.00    +0.140 C 
ATOM      6  C   LIG    1       -8.798   0.378   2.371  0.00  0.00    +0.530 C 
ATOM      7  N   LIG    1       -8.351   0.166   3.627  0.00  0.00    -0.620 N 
ATOM      8  H   LIG    1       -8.950   0.249   4.386  0.00  0.00    +0.430 HD
ATOM      9  C   LIG    1       -7.015  -0.174   3.815  0.00  0.00    +0.430 A 
ATOM     10  N   LIG    1       -6.408  -0.662   4.856  0.00  0.00    -0.480 NA
ATOM     11  C   LIG    1       -5.097  -0.800   4.581  0.00  0.00    +0.170 A 
ATOM     12  C   LIG    1       -4.882  -0.387   3.314  0.00  0.00    +0.160 A 
ATOM     13  O   LIG    1       -9.944   0.739   2.209  0.00  0.00    -0.500 OA
ATOM     14  N   LIG    1       -6.088   0.002   2.819  0.00  0.00    -0.460 N 
ATOM     15  C   LIG    1       -6.076   1.970   1.253  0.00  0.00    +0.300 C 
ATOM     16  O   LIG    1       -3.285   3.082   1.024  0.00  0.00    -0.520 OA
ENDROOT
BRANCH   1  17
ATOM     17  C   LIG    1       -2.449   1.117   0.020  0.00  0.00    +0.300 C 
BRANCH  17  18
ATOM     18  C   LIG    1       -2.824   0.761  -1.396  0.00  0.00    -0.100 A 
ATOM     19  C   LIG    1       -2.639   1.680  -2.412  0.00  0.00    +0.020 A 
ATOM     20  C   LIG    1       -2.979   1.353  -3.711  0.00  0.00    +0.010 A 
ATOM     21  C   LIG    1       -3.512   0.109  -3.993  0.00  0.00    +0.020 A 
ATOM     22  C   LIG    1       -3.703  -0.808  -2.976  0.00  0.00    +0.010 A 
ATOM     23  C   LIG    1       -3.359  -0.482  -1.678  0.00  0.00    +0.020 A 
ENDBRANCH  17  18
BRANCH  17  25
ATOM     24  C   LIG    1       -0.014   1.209   0.009  0.00  0.00    +0.520 C 
ATOM     25  N   LIG    1       -1.191   1.867   0.018  0.00  0.00    -0.720 N 
ATOM     26  H   LIG    1       -1.204   2.837   0.023  0.00  0.00    +0.410 HD
ATOM     27  O   LIG    1        0.002  -0.004   0.002  0.00  0.00    -0.530 OA
BRANCH  24  29
ATOM     28  C   LIG    1        2.457   1.002  -0.016  0.00  0.00    +0.040 C 
ATOM     29  C   LIG    1        1.280   1.980   0.001  0.00  0.00    +0.060 C 
ENDBRANCH  24  29
ENDBRANCH  17  25
ENDBRANCH   1  17
TORSDOF 4
