REMARK  Name = ZINCnE000001GaZz.1
REMARK                            x       y       z     vdW  Elec       q    Type
REMARK                         _______ _______ _______ _____ _____    ______ ____
ROOT
ATOM      1  C   LIG    1        1.938   5.989   5.997  0.00  0.00    +0.200 A 
ATOM      2  C   LIG    1        2.689   6.511   7.042  0.00  0.00    -0.060 A 
ATOM      3  C   LIG    1        3.026   5.716   8.117  0.00  0.00    +0.000 A 
ATOM      4  C   LIG    1        2.611   4.383   8.159  0.00  0.00    -0.050 A 
ATOM      5  C   LIG    1        1.851   3.856   7.109  0.00  0.00    -0.090 A 
ATOM      6  C   LIG    1        1.521   4.655   6.031  0.00  0.00    +0.230 A 
ENDROOT
BRANCH   1   7
ATOM      7  N   LIG    1        1.599   6.796   4.912  0.00  0.00    -0.730 N 
ATOM      8  H   LIG    1        1.075   6.433   4.181  0.00  0.00    +0.410 HD
BRANCH   7  10
ATOM      9  C   LIG    1        1.536   8.851   3.586  0.00  0.00    +0.020 C 
ATOM     10  C   LIG    1        2.036   8.194   4.874  0.00  0.00    +0.220 C 
ENDBRANCH   7  10
ENDBRANCH   1   7
BRANCH   4  11
ATOM     11  C   LIG    1        2.960   3.558   9.276  0.00  0.00    +0.280 C 
ATOM     12  N   LIG    1        3.237   2.903  10.162  0.00  0.00    -0.470 NA
ENDBRANCH   4  11
BRANCH   6  13
ATOM     13  N   LIG    1        0.764   4.130   4.976  0.00  0.00    -1.100 NA
BRANCH  13  14
ATOM     14  S   LIG    1        0.270   2.550   5.018  0.00  0.00    +2.610 S 
ATOM     15  O   LIG    1        1.447   1.760   4.926  0.00  0.00    -1.030 OA
ATOM     16  O   LIG    1       -0.654   2.447   6.092  0.00  0.00    -1.030 OA
BRANCH  14  17
ATOM     17  C   LIG    1       -0.646   2.252   3.542  0.00  0.00    -0.620 A 
ATOM     18  C   LIG    1       -2.012   2.464   3.522  0.00  0.00    +0.110 A 
ATOM     19  C   LIG    1       -2.731   2.230   2.365  0.00  0.00    -0.020 A 
ATOM     20  C   LIG    1       -2.083   1.789   1.226  0.00  0.00    -0.050 A 
ATOM     21  C   LIG    1       -0.718   1.572   1.248  0.00  0.00    -0.120 A 
ATOM     22  C   LIG    1       -0.013   1.086   0.008  0.00  0.00    +0.100 C 
ATOM     23  C   LIG    1       -2.866   1.540  -0.037  0.00  0.00    +0.090 C 
ATOM     24  C   LIG    1        0.001   1.806   2.405  0.00  0.00    +0.120 A 
ENDBRANCH  14  17
ENDBRANCH  13  14
ENDBRANCH   6  13
TORSDOF 6
