REMARK  Name = ZINCpe000000SZ6j.0
REMARK                            x       y       z     vdW  Elec       q    Type
REMARK                         _______ _______ _______ _____ _____    ______ ____
ROOT
ATOM      1  C   LIG    1        3.635   3.385  -0.014  0.00  0.00    -0.660 A 
ATOM      2  C   LIG    1        3.657   2.002  -0.022  0.00  0.00    +0.130 A 
ATOM      3  C   LIG    1        2.475   1.290  -0.015  0.00  0.00    +0.070 A 
ATOM      4  C   LIG    1        1.256   1.968   0.001  0.00  0.00    -0.080 A 
ATOM      5  C   LIG    1        1.240   3.364   0.003  0.00  0.00    +0.030 A 
ATOM      6  C   LIG    1        2.429   4.064   0.001  0.00  0.00    +0.120 A 
ENDROOT
BRANCH   4   7
ATOM      7  C   LIG    1       -0.014   1.211   0.009  0.00  0.00    +0.550 C 
ATOM      8  N   LIG    1       -1.191   1.869   0.018  0.00  0.00    -0.720 N 
ATOM      9  H   LIG    1       -1.204   2.839   0.023  0.00  0.00    +0.410 HD
ATOM     10  O   LIG    1        0.002  -0.004   0.002  0.00  0.00    -0.530 OA
BRANCH   8  11
ATOM     11  C   LIG    1       -2.449   1.120   0.020  0.00  0.00    +0.250 C 
BRANCH  11  12
ATOM     12  C   LIG    1       -3.626   2.098   0.031  0.00  0.00    +0.220 C 
BRANCH  12  13
ATOM     13  O   LIG    1       -3.555   2.914   1.202  0.00  0.00    -0.550 OA
ATOM     14  H   LIG    1       -3.590   2.417   2.030  0.00  0.00    +0.380 HD
ENDBRANCH  12  13
BRANCH  12  15
ATOM     15  C   LIG    1       -4.940   1.315   0.033  0.00  0.00    +0.150 C 
BRANCH  15  16
ATOM     16  O   LIG    1       -6.037   2.225  -0.075  0.00  0.00    -0.370 OA
BRANCH  16  17
ATOM     17  C   LIG    1       -7.318   1.593  -0.082  0.00  0.00    +0.190 C 
BRANCH  17  18
ATOM     18  C   LIG    1       -8.411   2.657  -0.200  0.00  0.00    -0.050 C 
ATOM     19  C   LIG    1       -9.384   2.803   0.972  0.00  0.00    +0.020 C 
ATOM     20  C   LIG    1       -9.856   2.173  -0.340  0.00  0.00    +0.030 C 
ENDBRANCH  17  18
ENDBRANCH  16  17
ENDBRANCH  15  16
ENDBRANCH  12  15
ENDBRANCH  11  12
ENDBRANCH   8  11
ENDBRANCH   4   7
BRANCH   1  21
ATOM     21  S   LIG    1        5.149   4.287  -0.023  0.00  0.00    +2.690 S 
ATOM     22  O   LIG    1        6.138   3.415   0.507  0.00  0.00    -0.950 OA
ATOM     23  O   LIG    1        4.859   5.563   0.532  0.00  0.00    -0.950 OA
BRANCH  21  24
ATOM     24  N   LIG    1        5.555   4.547  -1.607  0.00  0.00    -1.110 NA
ATOM     25  H   LIG    1        6.356   4.142  -1.975  0.00  0.00    +0.420 HD
BRANCH  24  27
ATOM     26  C   LIG    1        5.578   6.169  -3.437  0.00  0.00    +0.040 C 
ATOM     27  C   LIG    1        4.705   5.388  -2.453  0.00  0.00    +0.230 C 
ATOM     28  C   LIG    1        3.725   4.506  -3.229  0.00  0.00    +0.020 C 
ENDBRANCH  24  27
ENDBRANCH  21  24
ENDBRANCH   1  21
TORSDOF 11
