REMARK  Name = ZINCqH0000008vzB.0
REMARK                            x       y       z     vdW  Elec       q    Type
REMARK                         _______ _______ _______ _____ _____    ______ ____
ROOT
ATOM      1  C   LIG    1        2.424   0.104  -0.013  0.00  0.00    +0.110 A 
ATOM      2  C   LIG    1        2.406   1.489   0.018  0.00  0.00    -0.060 A 
ATOM      3  C   LIG    1        1.201   2.165   0.082  0.00  0.00    +0.040 A 
ATOM      4  C   LIG    1        0.011   1.462   0.114  0.00  0.00    -0.010 A 
ATOM      5  C   LIG    1        0.020   0.080   0.082  0.00  0.00    +0.060 A 
ATOM      6  C   LIG    1        1.224  -0.605   0.019  0.00  0.00    +0.110 A 
ENDROOT
BRANCH   6   7
ATOM      7  N   LIG    1        1.236  -2.004  -0.013  0.00  0.00    -0.650 N 
ATOM      8  H   LIG    1        2.011  -2.490   0.307  0.00  0.00    +0.420 HD
ATOM      9  C   LIG    1        0.168  -2.676  -0.488  0.00  0.00    +0.560 C 
ATOM     10  O   LIG    1       -0.832  -2.071  -0.820  0.00  0.00    -0.500 OA
BRANCH   9  11
ATOM     11  C   LIG    1        0.214  -4.155  -0.604  0.00  0.00    -0.040 A 
ATOM     12  C   LIG    1       -0.877  -4.856  -1.085  0.00  0.00    +0.010 A 
ATOM     13  C   LIG    1       -0.797  -6.260  -1.187  0.00  0.00    +0.510 A 
ATOM     14  N   LIG    1        0.325  -6.900  -0.810  0.00  0.00    -0.500 N 
ATOM     15  C   LIG    1        1.396  -6.217  -0.333  0.00  0.00    +0.310 A 
ATOM     16  C   LIG    1        0.391  -8.360  -0.917  0.00  0.00    +0.320 C 
ATOM     17  O   LIG    1       -1.747  -6.895  -1.613  0.00  0.00    -0.530 OA
ATOM     18  C   LIG    1        1.369  -4.869  -0.221  0.00  0.00    -0.070 A 
ENDBRANCH   9  11
ENDBRANCH   6   7
BRANCH   1  19
ATOM     19  O   LIG    1        3.608  -0.561  -0.076  0.00  0.00    -0.310 OA
BRANCH  19  21
ATOM     20  C   LIG    1        5.160   0.755  -1.380  0.00  0.00    +0.040 C 
ATOM     21  C   LIG    1        4.799   0.224   0.009  0.00  0.00    +0.210 C 
BRANCH  21  22
ATOM     22  C   LIG    1        5.926  -0.629   0.530  0.00  0.00    -0.090 A 
ATOM     23  C   LIG    1        6.055  -1.938   0.106  0.00  0.00    +0.040 A 
ATOM     24  C   LIG    1        7.092  -2.720   0.581  0.00  0.00    +0.000 A 
ATOM     25  C   LIG    1        7.995  -2.194   1.485  0.00  0.00    +0.010 A 
ATOM     26  C   LIG    1        7.864  -0.886   1.913  0.00  0.00    +0.010 A 
ATOM     27  C   LIG    1        6.829  -0.104   1.435  0.00  0.00    +0.010 A 
ENDBRANCH  21  22
ENDBRANCH  19  21
ENDBRANCH   1  19
TORSDOF 5
