REMARK  Name = ZINCpk00001AZj94.0
REMARK                            x       y       z     vdW  Elec       q    Type
REMARK                         _______ _______ _______ _____ _____    ______ ____
ROOT
ATOM      1  C   LIG    1       -1.006  -4.911  -5.369  0.00  0.00    +0.370 C 
ATOM      2  N   LIG    1       -1.815  -4.481  -4.226  0.00  0.00    -0.280 N 
ATOM      3  C   LIG    1       -3.036  -4.968  -3.917  0.00  0.00    +0.170 A 
ATOM      4  C   LIG    1       -3.452  -4.329  -2.799  0.00  0.00    -0.180 A 
ATOM      5  C   LIG    1       -2.411  -3.430  -2.467  0.00  0.00    -0.010 A 
ATOM      6  N   LIG    1       -1.465  -3.587  -3.372  0.00  0.00    -0.260 NA
ENDROOT
BRANCH   5   7
ATOM      7  C   LIG    1       -2.386  -2.498  -1.322  0.00  0.00    +0.600 C 
ATOM      8  N   LIG    1       -1.318  -1.700  -1.126  0.00  0.00    -0.720 N 
ATOM      9  H   LIG    1       -0.566  -1.737  -1.737  0.00  0.00    +0.410 HD
ATOM     10  O   LIG    1       -3.328  -2.451  -0.556  0.00  0.00    -0.520 OA
BRANCH   8  11
ATOM     11  C   LIG    1       -1.293  -0.775   0.010  0.00  0.00    +0.310 C 
BRANCH  11  12
ATOM     12  C   LIG    1        0.002  -0.004   0.002  0.00  0.00    -0.050 C 
ATOM     13  C   LIG    1       -0.016   1.321   0.009  0.00  0.00    +0.030 C 
BRANCH  13  14
ATOM     14  C   LIG    1        1.254   2.078   0.001  0.00  0.00    -0.060 A 
ATOM     15  C   LIG    1        2.473   1.400  -0.008  0.00  0.00    +0.010 A 
ATOM     16  C   LIG    1        3.655   2.112  -0.022  0.00  0.00    +0.000 A 
ATOM     17  C   LIG    1        3.633   3.495  -0.014  0.00  0.00    +0.000 A 
ATOM     18  C   LIG    1        2.427   4.173   0.001  0.00  0.00    +0.000 A 
ATOM     19  C   LIG    1        1.238   3.473   0.009  0.00  0.00    +0.020 A 
ENDBRANCH  13  14
ENDBRANCH  11  12
ENDBRANCH   8  11
ENDBRANCH   5   7
BRANCH   4  20
ATOM     20  C   LIG    1       -4.752  -4.531  -2.063  0.00  0.00    +0.300 C 
BRANCH  20  21
ATOM     21  N   LIG    1       -5.695  -3.467  -2.434  0.00  0.00    -0.500 NA
ATOM     22  C   LIG    1       -6.148  -3.624  -3.833  0.00  0.00    +0.160 C 
ATOM     23  C   LIG    1       -6.350  -2.209  -4.404  0.00  0.00    -0.020 C 
ATOM     24  C   LIG    1       -5.955  -1.250  -3.258  0.00  0.00    +0.160 C 
ATOM     25  C   LIG    1       -5.045  -2.133  -2.366  0.00  0.00    +0.210 C 
BRANCH  24  26
ATOM     26  O   LIG    1       -5.234  -0.125  -3.765  0.00  0.00    -0.560 OA
ATOM     27  H   LIG    1       -5.737   0.416  -4.388  0.00  0.00    +0.380 HD
ENDBRANCH  24  26
ENDBRANCH  20  21
ENDBRANCH   4  20
TORSDOF 7
