REMARK  Name = ZINCqH0000000XLw.0
REMARK                            x       y       z     vdW  Elec       q    Type
REMARK                         _______ _______ _______ _____ _____    ______ ____
ROOT
ATOM      1  C   LIG    1        0.002  -0.004   0.002  0.00  0.00    -0.090 A 
ATOM      2  C   LIG    1       -0.017   1.395   0.010  0.00  0.00    +0.160 A 
ATOM      3  C   LIG    1        1.190   2.068   0.002  0.00  0.00    -0.040 A 
ATOM      4  C   LIG    1        2.374   1.339  -0.013  0.00  0.00    +0.380 A 
ATOM      5  N   LIG    1        2.357   0.015  -0.020  0.00  0.00    -0.500 NA
ATOM      6  C   LIG    1        1.228  -0.664  -0.013  0.00  0.00    +0.370 A 
ENDROOT
BRANCH   4   7
ATOM      7  N   LIG    1        3.596   2.012  -0.021  0.00  0.00    -0.440 N 
ATOM      8  C   LIG    1        3.775   3.364  -0.021  0.00  0.00    +0.490 A 
ATOM      9  N   LIG    1        5.045   3.646  -0.026  0.00  0.00    -0.470 NA
ATOM     10  C   LIG    1        5.770   2.497  -0.039  0.00  0.00    +0.040 A 
ATOM     11  C   LIG    1        7.139   2.223  -0.053  0.00  0.00    +0.060 A 
ATOM     12  C   LIG    1        7.576   0.917  -0.063  0.00  0.00    +0.010 A 
ATOM     13  C   LIG    1        6.666  -0.130  -0.060  0.00  0.00    +0.030 A 
ATOM     14  C   LIG    1        5.310   0.123  -0.045  0.00  0.00    +0.050 A 
ATOM     15  C   LIG    1        4.852   1.432  -0.035  0.00  0.00    +0.060 A 
ENDBRANCH   4   7
BRANCH   1  18
ATOM     16  C   LIG    1       -2.676  -2.357   0.016  0.00  0.00    +0.200 A 
ATOM     17  N   LIG    1       -1.388  -2.120  -0.001  0.00  0.00    -0.450 NA
ATOM     18  C   LIG    1       -1.266  -0.774   0.011  0.00  0.00    +0.220 A 
ATOM     19  N   LIG    1       -2.476  -0.277   0.025  0.00  0.00    -0.370 NA
ATOM     20  O   LIG    1       -3.294  -1.172   0.028  0.00  0.00    +0.100 OA
BRANCH  16  21
ATOM     21  C   LIG    1       -3.337  -3.711   0.015  0.00  0.00    +0.340 C 
BRANCH  21  22
ATOM     22  O   LIG    1       -3.533  -4.146   1.363  0.00  0.00    -0.370 OA
BRANCH  22  24
ATOM     23  C   LIG    1       -3.289  -6.480   0.782  0.00  0.00    +0.020 C 
ATOM     24  C   LIG    1       -4.157  -5.427   1.474  0.00  0.00    +0.110 C 
ATOM     25  C   LIG    1       -5.534  -5.383   0.809  0.00  0.00    +0.020 C 
ATOM     26  C   LIG    1       -4.316  -5.790   2.953  0.00  0.00    +0.080 C 
ENDBRANCH  22  24
ENDBRANCH  21  22
ENDBRANCH  16  21
ENDBRANCH   1  18
TORSDOF 5
