REMARK  Name = ZINCkj000005mkWe.0
REMARK                            x       y       z     vdW  Elec       q    Type
REMARK                         _______ _______ _______ _____ _____    ______ ____
ROOT
ATOM      1  C   LIG    1       -1.375   3.588  -2.454  0.00  0.00    +0.160 C 
ENDROOT
BRANCH   1   2
ATOM      2  N   LIG    1       -0.679   3.096  -1.257  0.00  0.00    -0.530 NA
ATOM      3  C   LIG    1        0.618   3.764  -1.091  0.00  0.00    +0.180 C 
ATOM      4  C   LIG    1        1.247   3.335   0.237  0.00  0.00    +0.050 C 
ATOM      5  C   LIG    1        1.430   1.815   0.243  0.00  0.00    +0.120 C 
ATOM      6  C   LIG    1        0.072   1.144   0.018  0.00  0.00    +0.050 C 
ATOM      7  C   LIG    1       -0.523   1.636  -1.303  0.00  0.00    +0.190 C 
BRANCH   5   8
ATOM      8  C   LIG    1        1.993   1.381   1.572  0.00  0.00    +0.190 A 
ATOM      9  N   LIG    1        3.124   0.760   1.750  0.00  0.00    -0.480 NA
ATOM     10  C   LIG    1        3.293   0.539   3.065  0.00  0.00    +0.150 A 
ATOM     11  C   LIG    1        2.224   1.045   3.704  0.00  0.00    +0.150 A 
ATOM     12  O   LIG    1        1.416   1.575   2.765  0.00  0.00    -0.200 OA
ENDBRANCH   5   8
ENDBRANCH   1   2
BRANCH   1  13
ATOM     13  C   LIG    1       -1.744   5.061  -2.259  0.00  0.00    +0.210 C 
BRANCH  13  14
ATOM     14  O   LIG    1       -2.605   5.190  -1.126  0.00  0.00    -0.540 OA
ATOM     15  H   LIG    1       -3.433   4.696  -1.202  0.00  0.00    +0.390 HD
ENDBRANCH  13  14
BRANCH  13  16
ATOM     16  C   LIG    1       -2.463   5.575  -3.508  0.00  0.00    +0.230 C 
BRANCH  16  17
ATOM     17  N   LIG    1       -2.711   7.017  -3.371  0.00  0.00    -0.390 N 
ATOM     18  C   LIG    1       -1.428   7.741  -3.181  0.00  0.00    +0.260 C 
ATOM     19  C   LIG    1       -1.771   9.188  -3.615  0.00  0.00    +0.080 C 
ATOM     20  C   LIG    1       -2.731   8.973  -4.808  0.00  0.00    +0.060 C 
ATOM     21  C   LIG    1       -3.297   7.554  -4.618  0.00  0.00    +0.250 C 
ATOM     22  H   LIG    1       -3.329   7.192  -2.592  0.00  0.00    +0.430 HD
ENDBRANCH  16  17
ENDBRANCH  13  16
ENDBRANCH   1  13
TORSDOF 6
