REMARK  Name = ZINCtV000002IDHh.0
REMARK                            x       y       z     vdW  Elec       q    Type
REMARK                         _______ _______ _______ _____ _____    ______ ____
ROOT
ATOM      1  C   LIG    1       -0.068   4.162   0.006  0.00  0.00    -0.050 A 
ATOM      2  C   LIG    1        1.152   3.483  -0.000  0.00  0.00    +0.090 A 
ATOM      3  C   LIG    1        1.172   2.106  -0.001  0.00  0.00    +0.000 A 
ATOM      4  C   LIG    1       -0.021   1.392   0.003  0.00  0.00    +0.160 A 
ATOM      5  C   LIG    1       -1.238   2.065   0.003  0.00  0.00    +0.030 A 
ATOM      6  C   LIG    1       -1.265   3.442   0.010  0.00  0.00    +0.060 A 
ENDROOT
BRANCH   1  13
ATOM      7  C   LIG    1       -0.379  11.866   0.016  0.00  0.00    +0.100 C 
ATOM      8  C   LIG    1        0.019  10.413   0.013  0.00  0.00    -0.060 A 
ATOM      9  C   LIG    1        1.361  10.061   0.006  0.00  0.00    +0.030 A 
ATOM     10  C   LIG    1        1.739   8.753   0.003  0.00  0.00    +0.080 A 
ATOM     11  C   LIG    1        0.770   7.726   0.006  0.00  0.00    +0.080 A 
ATOM     12  N   LIG    1        0.954   6.395   0.004  0.00  0.00    -0.460 NA
ATOM     13  C   LIG    1       -0.093   5.640   0.007  0.00  0.00    +0.160 A 
ATOM     14  S   LIG    1       -1.553   6.620   0.007  0.00  0.00    +0.070 S 
ATOM     15  C   LIG    1       -0.582   8.090   0.012  0.00  0.00    -0.170 A 
ATOM     16  C   LIG    1       -0.949   9.434   0.015  0.00  0.00    +0.050 A 
ENDBRANCH   1  13
BRANCH   4  17
ATOM     17  N   LIG    1        0.002  -0.004   0.002  0.00  0.00    -0.660 N 
ATOM     18  H   LIG    1        0.695  -0.477  -0.484  0.00  0.00    +0.410 HD
ATOM     19  C   LIG    1       -0.938  -0.695   0.677  0.00  0.00    +0.570 C 
ATOM     20  O   LIG    1       -1.855  -0.105   1.216  0.00  0.00    -0.480 OA
BRANCH  19  21
ATOM     21  C   LIG    1       -0.856  -2.165   0.761  0.00  0.00    -0.130 A 
ATOM     22  C   LIG    1        0.194  -2.845   0.137  0.00  0.00    +0.100 A 
ATOM     23  C   LIG    1        0.270  -4.220   0.223  0.00  0.00    +0.090 A 
ATOM     24  C   LIG    1       -0.700  -4.931   0.918  0.00  0.00    +0.100 A 
ATOM     25  C   LIG    1       -1.747  -4.263   1.535  0.00  0.00    +0.060 A 
ATOM     26  F   LIG    1       -2.687  -4.961   2.211  0.00  0.00    -0.100 F 
ATOM     27  F   LIG    1       -0.622  -6.277   0.995  0.00  0.00    -0.100 F 
ATOM     28  F   LIG    1        1.287  -4.878  -0.376  0.00  0.00    -0.100 F 
ATOM     29  C   LIG    1       -1.830  -2.884   1.460  0.00  0.00    +0.160 A 
ATOM     30  F   LIG    1       -2.850  -2.234   2.062  0.00  0.00    -0.080 F 
ENDBRANCH  19  21
ENDBRANCH   4  17
TORSDOF 3
