REMARK  Name = ZINCrH000004mKA2.0
REMARK                            x       y       z     vdW  Elec       q    Type
REMARK                         _______ _______ _______ _____ _____    ______ ____
ROOT
ATOM      1  C   LIG    1       -0.301  -0.051   0.343  0.00  0.00    +0.220 C 
ENDROOT
BRANCH   1   2
ATOM      2  N   LIG    1       -0.347   1.417   0.339  0.00  0.00    -0.520 NA
ATOM      3  C   LIG    1       -1.145   1.916  -0.789  0.00  0.00    +0.190 C 
ATOM      4  C   LIG    1       -1.234   3.442  -0.712  0.00  0.00    +0.200 C 
ATOM      5  N   LIG    1        0.121   4.011  -0.737  0.00  0.00    -0.500 N 
ATOM      6  C   LIG    1        0.919   3.512   0.392  0.00  0.00    +0.190 C 
ATOM      7  C   LIG    1        1.008   1.986   0.315  0.00  0.00    +0.190 C 
BRANCH   5   8
ATOM      8  C   LIG    1        0.077   5.407  -0.740  0.00  0.00    +0.090 A 
ATOM      9  C   LIG    1       -0.480   6.089   0.334  0.00  0.00    -0.030 A 
ATOM     10  C   LIG    1       -0.517   7.470   0.329  0.00  0.00    +0.010 A 
ATOM     11  C   LIG    1       -0.009   8.173  -0.748  0.00  0.00    +0.000 A 
ATOM     12  C   LIG    1        0.541   7.497  -1.821  0.00  0.00    -0.080 A 
ATOM     13  C   LIG    1        1.094   8.267  -2.993  0.00  0.00    +0.090 C 
ATOM     14  C   LIG    1        0.587   6.117  -1.821  0.00  0.00    -0.060 A 
ATOM     15  C   LIG    1        1.187   5.381  -2.991  0.00  0.00    +0.090 C 
ENDBRANCH   5   8
ENDBRANCH   1   2
BRANCH   1  18
ATOM     16  N   LIG    1       -1.880  -1.928   0.665  0.00  0.00    -0.660 N 
ATOM     17  H   LIG    1       -1.158  -2.536   0.442  0.00  0.00    +0.420 HD
ATOM     18  C   LIG    1       -1.680  -0.596   0.615  0.00  0.00    +0.510 C 
ATOM     19  O   LIG    1       -2.609   0.164   0.788  0.00  0.00    -0.500 OA
BRANCH  16  26
ATOM     20  C   LIG    1       -3.522  -3.707   0.628  0.00  0.00    +0.100 A 
ATOM     21  C   LIG    1       -4.760  -4.203   1.002  0.00  0.00    -0.040 A 
ATOM     22  C   LIG    1       -5.606  -3.437   1.782  0.00  0.00    +0.050 A 
ATOM     23  C   LIG    1       -5.219  -2.173   2.192  0.00  0.00    -0.050 A 
ATOM     24  C   LIG    1       -3.982  -1.673   1.827  0.00  0.00    +0.070 A 
ATOM     25 CL   LIG    1       -6.286  -1.216   3.171  0.00  0.00    -0.060 Cl
ATOM     26  C   LIG    1       -3.131  -2.435   1.040  0.00  0.00    +0.140 A 
BRANCH  20  28
ATOM     27  C   LIG    1       -3.155  -5.755  -0.523  0.00  0.00    +0.250 C 
ATOM     28  O   LIG    1       -2.689  -4.460  -0.139  0.00  0.00    -0.320 OA
ENDBRANCH  20  28
ENDBRANCH  16  26
ENDBRANCH   1  18
TORSDOF 5
