REMARK  Name = ZINCrH000004lx8i.0
REMARK                            x       y       z     vdW  Elec       q    Type
REMARK                         _______ _______ _______ _____ _____    ______ ____
ROOT
ATOM      1  N   LIG    1       -1.116   3.532   0.129  0.00  0.00    -0.600 N 
ATOM      2  C   LIG    1       -1.240   2.233  -0.209  0.00  0.00    +0.600 C 
ATOM      3  O   LIG    1       -2.339   1.708  -0.214  0.00  0.00    -0.530 OA
ATOM      4  C   LIG    1        0.205   4.166   0.126  0.00  0.00    +0.310 C 
ENDROOT
BRANCH   2   5
ATOM      5  C   LIG    1       -0.057   1.455  -0.570  0.00  0.00    -0.340 A 
ATOM      6  C   LIG    1       -0.025   0.098  -0.743  0.00  0.00    +0.010 A 
ATOM      7  C   LIG    1        1.214  -0.380  -1.086  0.00  0.00    -0.070 A 
ATOM      8  C   LIG    1        2.180   0.569  -1.191  0.00  0.00    -0.000 A 
ATOM      9  C   LIG    1       -1.234  -0.785  -0.575  0.00  0.00    +0.120 C 
ATOM     10  S   LIG    1        1.546   2.117  -0.856  0.00  0.00    +0.330 S 
BRANCH   8  11
ATOM     11  N   LIG    1        3.504   0.313  -1.526  0.00  0.00    -0.630 N 
ATOM     12  H   LIG    1        3.793  -0.596  -1.703  0.00  0.00    +0.420 HD
ATOM     13  C   LIG    1        4.387   1.328  -1.604  0.00  0.00    +0.540 C 
ATOM     14  O   LIG    1        4.027   2.465  -1.382  0.00  0.00    -0.510 OA
BRANCH  13  15
ATOM     15  C   LIG    1        5.824   1.051  -1.966  0.00  0.00    -0.070 C 
ATOM     16  C   LIG    1        6.879   1.254  -0.878  0.00  0.00    +0.060 C 
ATOM     17  C   LIG    1        6.777   2.245  -2.039  0.00  0.00    +0.080 C 
ENDBRANCH  13  15
ENDBRANCH   8  11
ENDBRANCH   2   5
BRANCH   1  18
ATOM     18  C   LIG    1       -2.301   4.309   0.498  0.00  0.00    +0.270 C 
BRANCH  18  19
ATOM     19  C   LIG    1       -2.459   5.488  -0.465  0.00  0.00    +0.170 C 
BRANCH  19  21
ATOM     20  C   LIG    1       -1.406   7.524  -1.166  0.00  0.00    +0.200 C 
ATOM     21  O   LIG    1       -1.355   6.382  -0.308  0.00  0.00    -0.390 OA
ENDBRANCH  19  21
ENDBRANCH  18  19
BRANCH  18  22
ATOM     22  C   LIG    1       -2.140   4.836   1.926  0.00  0.00    +0.080 C 
BRANCH  22  23
ATOM     23  C   LIG    1       -2.108   3.676   2.888  0.00  0.00    -0.080 A 
ATOM     24  C   LIG    1       -3.283   3.208   3.446  0.00  0.00    +0.010 A 
ATOM     25  C   LIG    1       -3.254   2.141   4.324  0.00  0.00    +0.000 A 
ATOM     26  C   LIG    1       -2.049   1.549   4.654  0.00  0.00    +0.000 A 
ATOM     27  C   LIG    1       -0.873   2.021   4.100  0.00  0.00    +0.000 A 
ATOM     28  C   LIG    1       -0.903   3.085   3.218  0.00  0.00    +0.010 A 
ENDBRANCH  22  23
ENDBRANCH  18  22
ENDBRANCH   1  18
TORSDOF 8
