REMARK  Name = ZINCrg00000fRFPD.0
REMARK                            x       y       z     vdW  Elec       q    Type
REMARK                         _______ _______ _______ _____ _____    ______ ____
ROOT
ATOM      1  C   LIG    1       -3.077   1.454   0.331  0.00  0.00    +0.590 C 
ATOM      2  N   LIG    1       -2.729   0.852  -0.824  0.00  0.00    -0.720 N 
ATOM      3  H   LIG    1       -1.823   0.530  -0.949  0.00  0.00    +0.410 HD
ATOM      4  O   LIG    1       -4.235   1.773   0.526  0.00  0.00    -0.540 OA
ENDROOT
BRANCH   1   8
ATOM      5  C   LIG    1       -0.114   1.904   2.434  0.00  0.00    -0.750 A 
ATOM      6  C   LIG    1       -1.099   2.332   3.258  0.00  0.00    +0.330 A 
ATOM      7  N   LIG    1       -2.286   2.230   2.612  0.00  0.00    -0.400 N 
ATOM      8  C   LIG    1       -2.060   1.724   1.353  0.00  0.00    -0.050 A 
ATOM      9  C   LIG    1       -3.594   2.593   3.165  0.00  0.00    +0.350 C 
ATOM     10  C   LIG    1       -0.702   1.520   1.225  0.00  0.00    +0.110 A 
BRANCH   5  11
ATOM     11  S   LIG    1        1.605   1.844   2.816  0.00  0.00    +2.720 S 
ATOM     12  O   LIG    1        1.820   2.793   3.851  0.00  0.00    -0.960 OA
ATOM     13  O   LIG    1        2.294   1.880   1.573  0.00  0.00    -0.960 OA
BRANCH  11  15
ATOM     14  C   LIG    1        1.744  -0.853   2.664  0.00  0.00    +0.290 C 
ATOM     15  N   LIG    1        1.909   0.355   3.475  0.00  0.00    -1.120 NA
ATOM     16  H   LIG    1        2.196   0.284   4.399  0.00  0.00    +0.420 HD
ENDBRANCH  11  15
ENDBRANCH   5  11
ENDBRANCH   1   8
BRANCH   2  17
ATOM     17  C   LIG    1       -3.720   0.683  -1.889  0.00  0.00    +0.270 C 
BRANCH  17  18
ATOM     18  C   LIG    1       -3.072  -0.023  -3.082  0.00  0.00    +0.080 C 
BRANCH  18  19
ATOM     19  C   LIG    1       -4.091  -0.196  -4.178  0.00  0.00    -0.090 A 
ATOM     20  C   LIG    1       -4.867  -1.340  -4.224  0.00  0.00    +0.050 A 
ATOM     21  C   LIG    1       -5.806  -1.499  -5.224  0.00  0.00    -0.010 A 
ATOM     22  C   LIG    1       -5.963  -0.514  -6.191  0.00  0.00    +0.160 A 
ATOM     23  C   LIG    1       -5.179   0.630  -6.145  0.00  0.00    +0.020 A 
ATOM     24  C   LIG    1       -4.245   0.786  -5.139  0.00  0.00    +0.040 A 
BRANCH  22  25
ATOM     25  N   LIG    1       -6.911  -0.676  -7.211  0.00  0.00    -0.330 N 
ATOM     26  C   LIG    1       -7.731  -1.738  -7.374  0.00  0.00    +0.230 A 
ATOM     27  C   LIG    1       -8.492  -1.507  -8.469  0.00  0.00    -0.100 A 
ATOM     28  C   LIG    1       -8.119  -0.266  -8.998  0.00  0.00    +0.250 A 
ATOM     29  N   LIG    1       -7.172   0.233  -8.245  0.00  0.00    -0.290 NA
ENDBRANCH  22  25
ENDBRANCH  18  19
ENDBRANCH  17  18
ENDBRANCH   2  17
TORSDOF 7
