REMARK  Name = ZINCtV000002OH5U.0
REMARK                            x       y       z     vdW  Elec       q    Type
REMARK                         _______ _______ _______ _____ _____    ______ ____
ROOT
ATOM      1  O   LIG    1        0.290  11.393   1.153  0.00  0.00    -0.490 OA
ATOM      2  C   LIG    1        1.375  10.883   0.958  0.00  0.00    +0.560 C 
ATOM      3  N   LIG    1        1.499   9.540   0.965  0.00  0.00    -0.620 N 
ATOM      4  H   LIG    1        2.366   9.133   0.810  0.00  0.00    +0.430 HD
ENDROOT
BRANCH   2   5
ATOM      5  C   LIG    1        2.561  11.734   0.714  0.00  0.00    -0.110 A 
ATOM      6  C   LIG    1        3.809  11.147   0.497  0.00  0.00    +0.050 A 
ATOM      7  C   LIG    1        4.912  11.940   0.265  0.00  0.00    +0.070 A 
ATOM      8  C   LIG    1        4.783  13.330   0.257  0.00  0.00    -0.120 A 
ATOM      9  C   LIG    1        3.535  13.917   0.480  0.00  0.00    +0.060 A 
ATOM     10  C   LIG    1        2.432  13.124   0.707  0.00  0.00    +0.090 A 
BRANCH   8  11
ATOM     11  C   LIG    1        5.968  14.181   0.013  0.00  0.00    +0.440 C 
ATOM     12  O   LIG    1        7.061  13.830   0.411  0.00  0.00    -0.440 OA
BRANCH  11  13
ATOM     13  C   LIG    1        5.822  15.459  -0.715  0.00  0.00    -0.170 A 
ATOM     14  C   LIG    1        4.605  15.790  -1.315  0.00  0.00    +0.060 A 
ATOM     15  C   LIG    1        4.474  16.986  -1.988  0.00  0.00    +0.000 A 
ATOM     16  C   LIG    1        5.550  17.853  -2.079  0.00  0.00    +0.050 A 
ATOM     17  C   LIG    1        6.760  17.529  -1.492  0.00  0.00    +0.000 A 
ATOM     18  C   LIG    1        6.903  16.338  -0.811  0.00  0.00    +0.080 A 
ENDBRANCH  11  13
ENDBRANCH   8  11
ENDBRANCH   2   5
BRANCH   3  19
ATOM     19  C   LIG    1        0.387   8.742   1.194  0.00  0.00    +0.270 A 
ATOM     20  N   LIG    1        0.390   7.445   1.228  0.00  0.00    -0.500 NA
ATOM     21  C   LIG    1       -0.771   6.847   1.456  0.00  0.00    +0.120 A 
ATOM     22  C   LIG    1       -1.819   7.671   1.636  0.00  0.00    -0.110 A 
ATOM     23  S   LIG    1       -1.245   9.331   1.491  0.00  0.00    +0.220 S 
BRANCH  21  24
ATOM     24  C   LIG    1       -0.904   5.371   1.514  0.00  0.00    -0.010 A 
ATOM     25  C   LIG    1        0.213   4.560   1.319  0.00  0.00    +0.060 A 
ATOM     26  C   LIG    1        0.084   3.187   1.374  0.00  0.00    +0.050 A 
ATOM     27  C   LIG    1       -1.152   2.615   1.621  0.00  0.00    -0.090 A 
ATOM     28  C   LIG    1       -2.266   3.416   1.809  0.00  0.00    +0.050 A 
ATOM     29 BR   LIG    1       -1.322   0.733   1.693  0.00  0.00    -0.050 Br
ATOM     30  C   LIG    1       -2.146   4.790   1.762  0.00  0.00    +0.040 A 
ENDBRANCH  21  24
ENDBRANCH   3  19
TORSDOF 5
