REMARK  Name = ZINCpe00000gN2tE.0
REMARK                            x       y       z     vdW  Elec       q    Type
REMARK                         _______ _______ _______ _____ _____    ______ ____
ROOT
ATOM      1  C   LIG    1       -3.748  -1.087   0.013  0.00  0.00    +0.290 C 
ENDROOT
BRANCH   1   5
ATOM      2  C   LIG    1       -4.854  -4.239  -1.185  0.00  0.00    +0.100 C 
ATOM      3  C   LIG    1       -3.384  -4.381  -1.650  0.00  0.00    +0.020 C 
ATOM      4  C   LIG    1       -2.789  -2.987  -1.331  0.00  0.00    +0.170 C 
ATOM      5  C   LIG    1       -3.453  -2.588   0.003  0.00  0.00    +0.000 C 
ATOM      6  C   LIG    1       -4.766  -3.384   0.095  0.00  0.00    +0.070 C 
BRANCH   2  12
ATOM      7  C   LIG    1       -7.382  -5.543  -2.491  0.00  0.00    +0.340 C 
ATOM      8  N   LIG    1       -6.540  -6.141  -1.453  0.00  0.00    -0.480 N 
ATOM      9  C   LIG    1       -6.697  -7.356  -0.875  0.00  0.00    +0.370 A 
ATOM     10  N   LIG    1       -5.739  -7.498  -0.001  0.00  0.00    -0.300 NA
ATOM     11  N   LIG    1       -4.994  -6.450  -0.002  0.00  0.00    -0.290 NA
ATOM     12  C   LIG    1       -5.443  -5.592  -0.877  0.00  0.00    +0.180 A 
ENDBRANCH   2  12
BRANCH   4  13
ATOM     13  O   LIG    1       -3.128  -2.052  -2.358  0.00  0.00    -0.550 OA
ATOM     14  H   LIG    1       -2.737  -2.255  -3.219  0.00  0.00    +0.380 HD
ENDBRANCH   4  13
ENDBRANCH   1   5
BRANCH   1  15
ATOM     15  N   LIG    1       -2.488  -0.341   0.011  0.00  0.00    -0.720 N 
ATOM     16  H   LIG    1       -1.643  -0.817   0.004  0.00  0.00    +0.400 HD
ATOM     17  C   LIG    1       -2.502   1.007   0.019  0.00  0.00    +0.560 C 
ATOM     18  O   LIG    1       -3.562   1.604   0.027  0.00  0.00    -0.520 OA
BRANCH  17  19
ATOM     19  C   LIG    1       -1.232   1.758   0.017  0.00  0.00    -0.120 A 
ATOM     20  C   LIG    1       -0.013   1.076   0.008  0.00  0.00    +0.060 A 
ATOM     21  C   LIG    1        1.171   1.781   0.000  0.00  0.00    +0.030 A 
ATOM     22  C   LIG    1        1.161   3.166   0.008  0.00  0.00    +0.060 A 
ATOM     23  C   LIG    1       -0.039   3.857   0.024  0.00  0.00    +0.020 A 
ATOM     24  O   LIG    1       -0.312   5.195   0.033  0.00  0.00    -0.310 OA
ATOM     25  C   LIG    1       -1.692   5.307  -0.365  0.00  0.00    +0.440 C 
ATOM     26  O   LIG    1       -2.269   4.054   0.046  0.00  0.00    -0.280 OA
ATOM     27  C   LIG    1       -1.243   3.158   0.031  0.00  0.00    +0.100 A 
ENDBRANCH  17  19
ENDBRANCH   1  15
TORSDOF 5
