REMARK  Name = ZINCkj000005ixXf.1
REMARK                            x       y       z     vdW  Elec       q    Type
REMARK                         _______ _______ _______ _____ _____    ______ ____
ROOT
ATOM      1  N   LIG    1        4.005   0.211   1.321  0.00  0.00    -0.530 NA
ATOM      2  C   LIG    1        3.723  -1.177   1.712  0.00  0.00    +0.220 C 
ENDROOT
BRANCH   1   3
ATOM      3  C   LIG    1        5.451   0.470   1.303  0.00  0.00    +0.220 C 
BRANCH   3   6
ATOM      4  C   LIG    1        6.590   2.226   4.338  0.00  0.00    +0.170 C 
ATOM      5  C   LIG    1        5.397   1.737   3.476  0.00  0.00    +0.110 C 
ATOM      6  C   LIG    1        5.979   0.513   2.739  0.00  0.00    +0.170 C 
ATOM      7  N   LIG    1        7.446   0.665   2.729  0.00  0.00    -0.380 N 
ATOM      8  C   LIG    1        7.930   0.697   1.343  0.00  0.00    +0.330 C 
ATOM      9  H   LIG    1        7.870  -0.107   3.221  0.00  0.00    +0.430 HD
ATOM     10  C   LIG    1        7.791   1.935   3.404  0.00  0.00    +0.240 C 
BRANCH   4  12
ATOM     11  C   LIG    1        7.188   4.041   5.785  0.00  0.00    +0.230 C 
ATOM     12  O   LIG    1        6.483   3.624   4.614  0.00  0.00    -0.360 OA
ENDBRANCH   4  12
ENDBRANCH   3   6
ENDBRANCH   1   3
BRANCH   1  13
ATOM     13  C   LIG    1        3.398   0.526   0.021  0.00  0.00    +0.360 C 
BRANCH  13  14
ATOM     14  C   LIG    1        1.897   0.486   0.145  0.00  0.00    +0.170 A 
ATOM     15  N   LIG    1        1.112   1.489   0.459  0.00  0.00    -0.450 NA
ATOM     16  C   LIG    1       -0.136   0.989   0.448  0.00  0.00    +0.180 A 
ATOM     17  N   LIG    1       -0.049  -0.269   0.134  0.00  0.00    -0.370 NA
ATOM     18  O   LIG    1        1.110  -0.578  -0.045  0.00  0.00    +0.080 OA
BRANCH  16  19
ATOM     19  C   LIG    1       -1.404   1.749   0.740  0.00  0.00    +0.090 C 
ATOM     20  C   LIG    1       -2.117   1.112   1.935  0.00  0.00    +0.050 C 
ATOM     21  C   LIG    1       -2.321   1.702  -0.484  0.00  0.00    +0.050 C 
ENDBRANCH  16  19
ENDBRANCH  13  14
ENDBRANCH   1  13
TORSDOF 6
