REMARK  Name = ZINCkj000005ixXf.0
REMARK                            x       y       z     vdW  Elec       q    Type
REMARK                         _______ _______ _______ _____ _____    ______ ____
ROOT
ATOM      1  N   LIG    1        4.441  -1.371   3.223  0.00  0.00    -0.560 NA
ATOM      2  C   LIG    1        4.934  -0.884   1.927  0.00  0.00    +0.220 C 
ENDROOT
BRANCH   1   3
ATOM      3  C   LIG    1        5.508  -2.048   3.972  0.00  0.00    +0.240 C 
BRANCH   3   6
ATOM      4  C   LIG    1        8.216  -0.453   6.022  0.00  0.00    +0.170 C 
ATOM      5  C   LIG    1        7.642  -1.688   5.279  0.00  0.00    +0.090 C 
ATOM      6  C   LIG    1        6.588  -1.033   4.352  0.00  0.00    +0.170 C 
ATOM      7  N   LIG    1        6.004   0.062   5.157  0.00  0.00    -0.380 N 
ATOM      8  C   LIG    1        5.707   1.209   4.289  0.00  0.00    +0.320 C 
ATOM      9  H   LIG    1        5.155  -0.258   5.599  0.00  0.00    +0.430 HD
ATOM     10  C   LIG    1        6.981   0.459   6.187  0.00  0.00    +0.230 C 
BRANCH   4  12
ATOM     11  C   LIG    1        9.828  -0.015   7.741  0.00  0.00    +0.230 C 
ATOM     12  O   LIG    1        8.740  -0.829   7.297  0.00  0.00    -0.360 OA
ENDBRANCH   4  12
ENDBRANCH   3   6
ENDBRANCH   1   3
BRANCH   1  13
ATOM     13  C   LIG    1        3.280  -2.254   3.046  0.00  0.00    +0.370 C 
BRANCH  13  14
ATOM     14  C   LIG    1        2.123  -1.459   2.498  0.00  0.00    +0.170 A 
ATOM     15  N   LIG    1        1.836  -1.269   1.232  0.00  0.00    -0.470 NA
ATOM     16  C   LIG    1        0.731  -0.503   1.223  0.00  0.00    +0.180 A 
ATOM     17  N   LIG    1        0.404  -0.278   2.460  0.00  0.00    -0.370 NA
ATOM     18  O   LIG    1        1.191  -0.818   3.208  0.00  0.00    +0.090 OA
BRANCH  16  19
ATOM     19  C   LIG    1        0.002  -0.004   0.002  0.00  0.00    +0.090 C 
ATOM     20  C   LIG    1       -1.433  -0.534   0.013  0.00  0.00    +0.050 C 
ATOM     21  C   LIG    1       -0.019   1.526   0.010  0.00  0.00    +0.050 C 
ENDBRANCH  16  19
ENDBRANCH  13  14
ENDBRANCH   1  13
TORSDOF 6
