REMARK  Name = ZINCpk00000y6yuV.0
REMARK                            x       y       z     vdW  Elec       q    Type
REMARK                         _______ _______ _______ _____ _____    ______ ____
ROOT
ATOM      1  C   LIG    1        0.002  -0.004   0.002  0.00  0.00    +0.210 C 
ATOM      2  C   LIG    1       -1.435  -0.573   0.140  0.00  0.00    +0.090 C 
ATOM      3  C   LIG    1       -1.645  -0.518   1.673  0.00  0.00    +0.260 C 
ATOM      4  N   LIG    1       -0.332  -0.863   2.247  0.00  0.00    -0.620 N 
ATOM      5  C   LIG    1       -0.122  -1.380   3.474  0.00  0.00    +0.530 C 
ATOM      6  O   LIG    1        1.007  -1.625   3.844  0.00  0.00    -0.510 OA
ATOM      7  C   LIG    1        0.711  -0.547   1.260  0.00  0.00    +0.260 C 
ENDROOT
BRANCH   1  10
ATOM      8  N   LIG    1        2.092  -0.933  -2.824  0.00  0.00    -0.280 N 
ATOM      9  C   LIG    1        1.932  -0.267  -1.656  0.00  0.00    +0.160 A 
ATOM     10  C   LIG    1        0.666  -0.519  -1.249  0.00  0.00    -0.040 A 
ATOM     11  N   LIG    1        0.122  -1.321  -2.172  0.00  0.00    -0.250 NA
ATOM     12  N   LIG    1        0.991  -1.542  -3.094  0.00  0.00    -0.080 NA
BRANCH   8  14
ATOM     13  C   LIG    1        3.328   0.266  -4.561  0.00  0.00    +0.060 C 
ATOM     14  C   LIG    1        3.308  -0.956  -3.639  0.00  0.00    +0.250 C 
ATOM     15  C   LIG    1        4.535  -0.924  -2.726  0.00  0.00    +0.060 C 
ENDBRANCH   8  14
ENDBRANCH   1  10
BRANCH   1  16
ATOM     16  O   LIG    1       -0.017   1.425   0.010  0.00  0.00    -0.530 OA
ATOM     17  H   LIG    1        0.861   1.830   0.004  0.00  0.00    +0.380 HD
ENDBRANCH   1  16
BRANCH   5  18
ATOM     18  C   LIG    1       -1.290  -1.654   4.386  0.00  0.00    +0.210 C 
BRANCH  18  19
ATOM     19  O   LIG    1       -0.814  -2.196   5.620  0.00  0.00    -0.360 OA
BRANCH  19  20
ATOM     20  C   LIG    1       -1.847  -2.494   6.561  0.00  0.00    +0.220 C 
BRANCH  20  21
ATOM     21  C   LIG    1       -1.234  -3.057   7.818  0.00  0.00    -0.090 A 
ATOM     22  C   LIG    1       -1.051  -4.421   7.946  0.00  0.00    +0.020 A 
ATOM     23  C   LIG    1       -0.486  -4.937   9.097  0.00  0.00    +0.000 A 
ATOM     24  C   LIG    1       -0.112  -4.090  10.123  0.00  0.00    +0.010 A 
ATOM     25  C   LIG    1       -0.300  -2.726   9.997  0.00  0.00    +0.000 A 
ATOM     26  C   LIG    1       -0.861  -2.210   8.844  0.00  0.00    +0.020 A 
ENDBRANCH  20  21
ENDBRANCH  19  20
ENDBRANCH  18  19
ENDBRANCH   5  18
TORSDOF 7
