REMARK  Name = ZINCpe000000Y32n.0
REMARK                            x       y       z     vdW  Elec       q    Type
REMARK                         _______ _______ _______ _____ _____    ______ ____
ROOT
ATOM      1  C   LIG    1       -3.691   4.084   0.059  0.00  0.00    +0.350 C 
ENDROOT
BRANCH   1   2
ATOM      2  C   LIG    1       -4.197   4.002  -1.358  0.00  0.00    +0.500 C 
ATOM      3  N   LIG    1       -5.503   3.763  -1.594  0.00  0.00    -0.610 N 
ATOM      4  C   LIG    1       -6.433   3.582  -0.473  0.00  0.00    +0.280 C 
ATOM      5  C   LIG    1       -7.577   4.602  -0.601  0.00  0.00    +0.330 C 
ATOM      6  N   LIG    1       -8.033   4.578  -1.998  0.00  0.00    -0.630 N 
ATOM      7  C   LIG    1       -9.272   4.401  -2.458  0.00  0.00    +0.710 C 
ATOM      8  N   LIG    1       -9.335   4.231  -3.787  0.00  0.00    -0.740 N 
ATOM      9  H   LIG    1      -10.141   4.037  -4.291  0.00  0.00    +0.430 HD
ATOM     10  C   LIG    1       -7.987   4.384  -4.358  0.00  0.00    +0.280 C 
ATOM     11  O   LIG    1      -10.253   4.395  -1.739  0.00  0.00    -0.580 OA
ATOM     12  C   LIG    1       -7.110   4.728  -3.143  0.00  0.00    +0.200 C 
ATOM     13  C   LIG    1       -6.002   3.688  -2.976  0.00  0.00    +0.300 C 
ATOM     14  O   LIG    1       -3.431   4.150  -2.286  0.00  0.00    -0.510 OA
ENDBRANCH   1   2
BRANCH   1  26
ATOM     15  C   LIG    1       -2.389   6.890   0.065  0.00  0.00    +0.190 C 
ATOM     16  C   LIG    1       -1.655   5.574   0.049  0.00  0.00    +0.310 A 
ATOM     17  N   LIG    1       -0.361   5.442   0.036  0.00  0.00    -0.480 NA
ATOM     18  C   LIG    1       -0.036   4.124   0.025  0.00  0.00    +0.070 A 
ATOM     19  C   LIG    1        1.178   3.433   0.010  0.00  0.00    +0.090 A 
ATOM     20  C   LIG    1        1.181   2.055   0.002  0.00  0.00    +0.070 A 
ATOM     21  C   LIG    1       -0.016   1.347   0.009  0.00  0.00    +0.090 A 
ATOM     22  C   LIG    1       -1.223   2.017   0.019  0.00  0.00    +0.020 A 
ATOM     23  F   LIG    1        0.002  -0.004   0.002  0.00  0.00    -0.120 F 
ATOM     24  F   LIG    1        2.356   1.387  -0.013  0.00  0.00    -0.120 F 
ATOM     25  C   LIG    1       -1.243   3.404   0.032  0.00  0.00    +0.070 A 
ATOM     26  N   LIG    1       -2.250   4.350   0.048  0.00  0.00    -0.470 N 
ENDBRANCH   1  26
TORSDOF 2
