REMARK  Name = ZINCrH000004jNho.0
REMARK                            x       y       z     vdW  Elec       q    Type
REMARK                         _______ _______ _______ _____ _____    ______ ____
ROOT
ATOM      1  C   LIG    1       -0.447   3.939   1.282  0.00  0.00    +0.210 C 
ATOM      2  N   LIG    1       -1.083   3.526   0.024  0.00  0.00    -0.510 NA
ENDROOT
BRANCH   2   3
ATOM      3  C   LIG    1       -1.330   2.078   0.009  0.00  0.00    +0.240 C 
BRANCH   3   4
ATOM      4  C   LIG    1       -0.013   1.344   0.003  0.00  0.00    +0.500 C 
ATOM      5  N   LIG    1        0.007  -0.003  -0.011  0.00  0.00    -0.630 N 
ATOM      6  H   LIG    1       -0.826  -0.501  -0.012  0.00  0.00    +0.430 HD
ATOM      7  O   LIG    1        1.028   1.966   0.005  0.00  0.00    -0.460 OA
BRANCH   5   8
ATOM      8  C   LIG    1        1.218  -0.679  -0.022  0.00  0.00    +0.210 A 
ATOM      9  C   LIG    1        1.402  -2.032  -0.036  0.00  0.00    -0.100 A 
ATOM     10  C   LIG    1        2.803  -2.184  -0.043  0.00  0.00    +0.050 A 
ATOM     11  N   LIG    1        3.307  -0.981  -0.033  0.00  0.00    -0.360 NA
ATOM     12  O   LIG    1        2.445  -0.133  -0.027  0.00  0.00    +0.110 OA
BRANCH  10  13
ATOM     13  C   LIG    1        3.569  -3.481  -0.059  0.00  0.00    +0.010 C 
ATOM     14  C   LIG    1        2.954  -4.449   0.953  0.00  0.00    +0.050 C 
ATOM     15  C   LIG    1        5.030  -3.216   0.311  0.00  0.00    +0.040 C 
ATOM     16  C   LIG    1        3.501  -4.096  -1.459  0.00  0.00    +0.050 C 
ENDBRANCH  10  13
ENDBRANCH   5   8
ENDBRANCH   3   4
ENDBRANCH   2   3
BRANCH   2  17
ATOM     17  C   LIG    1       -2.325   4.275  -0.208  0.00  0.00    +0.220 C 
BRANCH  17  18
ATOM     18  C   LIG    1       -2.002   5.729  -0.431  0.00  0.00    +0.510 C 
ATOM     19  N   LIG    1       -2.993   6.612  -0.665  0.00  0.00    -0.670 N 
ATOM     20  H   LIG    1       -3.907   6.302  -0.757  0.00  0.00    +0.410 HD
ATOM     21  O   LIG    1       -0.849   6.106  -0.399  0.00  0.00    -0.490 OA
BRANCH  19  22
ATOM     22  C   LIG    1       -2.703   7.977  -0.776  0.00  0.00    +0.160 A 
ATOM     23  C   LIG    1       -1.512   8.390  -1.358  0.00  0.00    +0.060 A 
ATOM     24  C   LIG    1       -1.227   9.737  -1.467  0.00  0.00    +0.070 A 
ATOM     25  C   LIG    1       -2.127  10.676  -0.995  0.00  0.00    -0.050 A 
ATOM     26  C   LIG    1       -3.316  10.267  -0.413  0.00  0.00    -0.010 A 
ATOM     27 CL   LIG    1       -4.444  11.448   0.178  0.00  0.00    -0.040 Cl
ATOM     28 CL   LIG    1       -1.766  12.368  -1.132  0.00  0.00    -0.050 Cl
ATOM     29  C   LIG    1       -3.608   8.921  -0.308  0.00  0.00    +0.020 A 
ENDBRANCH  19  22
ENDBRANCH  17  18
ENDBRANCH   2  17
TORSDOF 7
