REMARK  Name = ZINCnE000001PtS9.0
REMARK                            x       y       z     vdW  Elec       q    Type
REMARK                         _______ _______ _______ _____ _____    ______ ____
ROOT
ATOM      1  C   LIG    1        0.150   1.279   4.990  0.00  0.00    +0.270 C 
ATOM      2  C   LIG    1       -0.690   1.896   6.128  0.00  0.00    +0.040 C 
ATOM      3  C   LIG    1       -1.396   3.090   5.433  0.00  0.00    +0.040 C 
ATOM      4  C   LIG    1       -1.648   2.519   4.014  0.00  0.00    +0.250 C 
ATOM      5  N   LIG    1       -0.457   1.702   3.720  0.00  0.00    -0.620 N 
ATOM      6  C   LIG    1       -0.004   1.389   2.489  0.00  0.00    +0.530 C 
ATOM      7  O   LIG    1        0.990   0.706   2.365  0.00  0.00    -0.500 OA
ENDROOT
BRANCH   1  13
ATOM      8  C   LIG    1       -1.719  -3.138   3.560  0.00  0.00    +0.080 C 
ATOM      9  C   LIG    1       -0.764  -2.338   4.408  0.00  0.00    -0.090 A 
ATOM     10  C   LIG    1        0.094  -2.983   5.278  0.00  0.00    +0.000 A 
ATOM     11  C   LIG    1        0.971  -2.249   6.056  0.00  0.00    +0.000 A 
ATOM     12  C   LIG    1        0.992  -0.870   5.959  0.00  0.00    -0.090 A 
ATOM     13  C   LIG    1        0.130  -0.225   5.092  0.00  0.00    -0.080 A 
ATOM     14  C   LIG    1        1.951  -0.071   6.803  0.00  0.00    +0.080 C 
ATOM     15  C   LIG    1       -0.745  -0.959   4.314  0.00  0.00    +0.020 A 
ENDBRANCH   1  13
BRANCH   6  16
ATOM     16  C   LIG    1       -0.733   1.888   1.268  0.00  0.00    +0.050 C 
BRANCH  16  17
ATOM     17  C   LIG    1       -0.017   1.395   0.010  0.00  0.00    +0.340 C 
ATOM     18  F   LIG    1        1.296   1.879  -0.000  0.00  0.00    -0.190 F 
ATOM     19  F   LIG    1        0.002  -0.004   0.002  0.00  0.00    -0.190 F 
BRANCH  17  20
ATOM     20  C   LIG    1       -0.757   1.902  -1.230  0.00  0.00    -0.060 C 
BRANCH  20  21
ATOM     21  C   LIG    1       -0.051   1.416  -2.470  0.00  0.00    +0.490 C 
ATOM     22  O   LIG    1       -0.483   1.710  -3.571  0.00  0.00    -0.700 OA
ATOM     23  O   LIG    1        0.950   0.728  -2.371  0.00  0.00    -0.670 OA
ENDBRANCH  20  21
ENDBRANCH  17  20
ENDBRANCH  16  17
ENDBRANCH   6  16
TORSDOF 5
