REMARK  Name = ZINCrg000000rFmj.0
REMARK                            x       y       z     vdW  Elec       q    Type
REMARK                         _______ _______ _______ _____ _____    ______ ____
ROOT
ATOM      1  C   LIG    1       -6.344  -0.754   4.379  0.00  0.00    +0.520 C 
ATOM      2  N   LIG    1       -7.535  -1.295   4.699  0.00  0.00    -0.600 N 
ATOM      3  C   LIG    1       -8.228  -2.189   3.761  0.00  0.00    +0.270 C 
ATOM      4  C   LIG    1       -9.647  -1.669   3.534  0.00  0.00    +0.010 C 
ATOM      5  C   LIG    1      -10.350  -1.506   4.883  0.00  0.00    +0.020 C 
ATOM      6  C   LIG    1       -9.591  -0.487   5.737  0.00  0.00    -0.030 C 
ATOM      7  C   LIG    1       -8.170  -0.998   5.991  0.00  0.00    +0.300 C 
ATOM      8  O   LIG    1       -5.740  -0.090   5.195  0.00  0.00    -0.530 OA
ENDROOT
BRANCH   1  10
ATOM      9  C   LIG    1       -5.047  -2.327   2.966  0.00  0.00    +0.070 C 
ATOM     10  C   LIG    1       -5.761  -0.974   3.007  0.00  0.00    +0.260 C 
BRANCH  10  11
ATOM     11  N   LIG    1       -4.802   0.093   2.707  0.00  0.00    -0.700 N 
ATOM     12  H   LIG    1       -4.360   0.565   3.429  0.00  0.00    +0.420 HD
ATOM     13  C   LIG    1       -4.535   0.418   1.426  0.00  0.00    +0.650 C 
ATOM     14  O   LIG    1       -5.088  -0.174   0.521  0.00  0.00    -0.570 OA
BRANCH  13  15
ATOM     15  O   LIG    1       -3.654   1.398   1.151  0.00  0.00    -0.360 OA
BRANCH  15  16
ATOM     16  C   LIG    1       -3.414   1.694  -0.251  0.00  0.00    +0.290 C 
BRANCH  16  17
ATOM     17  C   LIG    1       -2.408   2.810  -0.363  0.00  0.00    -0.100 A 
ATOM     18  C   LIG    1       -1.058   2.519  -0.433  0.00  0.00    +0.040 A 
ATOM     19  C   LIG    1       -0.135   3.542  -0.542  0.00  0.00    +0.010 A 
ATOM     20  C   LIG    1       -0.561   4.856  -0.576  0.00  0.00    +0.020 A 
ATOM     21  C   LIG    1       -1.910   5.148  -0.501  0.00  0.00    +0.010 A 
ATOM     22  C   LIG    1       -2.833   4.125  -0.392  0.00  0.00    +0.030 A 
ENDBRANCH  16  17
ENDBRANCH  15  16
ENDBRANCH  13  15
ENDBRANCH  10  11
ENDBRANCH   1  10
BRANCH   6  23
ATOM     23  C   LIG    1      -10.313  -0.300   7.072  0.00  0.00    +0.280 C 
BRANCH  23  24
ATOM     24  N   LIG    1      -11.629   0.300   6.836  0.00  0.00    -1.120 NA
ATOM     25  H   LIG    1      -11.828   0.710   5.980  0.00  0.00    +0.420 HD
BRANCH  24  26
ATOM     26  S   LIG    1      -12.775   0.280   8.031  0.00  0.00    +2.610 S 
ATOM     27  O   LIG    1      -12.830  -1.080   8.441  0.00  0.00    -0.950 OA
ATOM     28  O   LIG    1      -13.903   0.914   7.446  0.00  0.00    -0.960 OA
ATOM     29  C   LIG    1      -12.075   1.313   9.348  0.00  0.00    -0.280 C 
ENDBRANCH  24  26
ENDBRANCH  23  24
ENDBRANCH   6  23
TORSDOF 8
