REMARK  Name = ZINCqH0000032wuo.0
REMARK                            x       y       z     vdW  Elec       q    Type
REMARK                         _______ _______ _______ _____ _____    ______ ____
ROOT
ATOM      1  C   LIG    1        1.458   0.408   1.907  0.00  0.00    +0.570 C 
ATOM      2  N   LIG    1        0.477  -0.394   1.448  0.00  0.00    -0.600 N 
ATOM      3  C   LIG    1        0.404  -1.787   1.900  0.00  0.00    +0.340 C 
ATOM      4  C   LIG    1        1.009  -2.678   0.832  0.00  0.00    -0.150 A 
ATOM      5  C   LIG    1        2.163  -3.387   1.077  0.00  0.00    +0.030 A 
ATOM      6  C   LIG    1        2.677  -4.221   0.099  0.00  0.00    +0.020 A 
ATOM      7  C   LIG    1        2.028  -4.341  -1.117  0.00  0.00    +0.030 A 
ATOM      8  C   LIG    1        0.877  -3.619  -1.368  0.00  0.00    +0.000 A 
ATOM      9  C   LIG    1        0.371  -2.767  -0.396  0.00  0.00    +0.120 A 
ATOM     10  O   LIG    1       -0.701  -1.981  -0.669  0.00  0.00    -0.320 OA
ATOM     11  C   LIG    1       -0.424  -0.586  -0.837  0.00  0.00    +0.240 C 
ATOM     12  C   LIG    1       -0.509   0.131   0.503  0.00  0.00    +0.210 C 
ATOM     13  C   LIG    1       -0.254   1.625   0.290  0.00  0.00    +0.070 C 
ATOM     14  O   LIG    1        1.597   1.524   1.445  0.00  0.00    -0.510 OA
ENDROOT
BRANCH   1  21
ATOM     15  C   LIG    1        4.609   0.862   5.934  0.00  0.00    +0.080 A 
ATOM     16  N   LIG    1        5.171  -0.176   6.479  0.00  0.00    -0.310 NA
ATOM     17  O   LIG    1        4.875  -1.220   5.947  0.00  0.00    +0.090 OA
ATOM     18  C   LIG    1        4.031  -1.063   4.912  0.00  0.00    +0.230 A 
ATOM     19  N   LIG    1        3.445  -1.879   4.051  0.00  0.00    -0.460 NA
ATOM     20  C   LIG    1        2.642  -1.433   3.111  0.00  0.00    +0.350 A 
ATOM     21  C   LIG    1        2.364  -0.068   2.972  0.00  0.00    -0.210 A 
ATOM     22  C   LIG    1        2.963   0.839   3.854  0.00  0.00    +0.230 A 
ATOM     23  C   LIG    1        3.799   0.328   4.834  0.00  0.00    -0.220 A 
BRANCH  15  25
ATOM     24  C   LIG    1        4.284   2.477   7.787  0.00  0.00    +0.040 C 
ATOM     25  C   LIG    1        4.759   2.305   6.343  0.00  0.00    +0.080 C 
ATOM     26  C   LIG    1        6.229   2.715   6.237  0.00  0.00    +0.040 C 
ENDBRANCH  15  25
ENDBRANCH   1  21
TORSDOF 2
