REMARK  Name = ZINCpe00000MJLQW.0
REMARK                            x       y       z     vdW  Elec       q    Type
REMARK                         _______ _______ _______ _____ _____    ______ ____
ROOT
ATOM      1  O   LIG    1       -5.394   0.874  -1.046  0.00  0.00    -0.510 OA
ATOM      2  C   LIG    1       -5.318   1.940  -1.621  0.00  0.00    +0.500 C 
ATOM      3  N   LIG    1       -6.337   2.362  -2.396  0.00  0.00    -0.700 N 
ATOM      4  H   LIG    1       -6.309   3.246  -2.794  0.00  0.00    +0.410 HD
ENDROOT
BRANCH   3   5
ATOM      5  C   LIG    1       -7.487   1.487  -2.635  0.00  0.00    +0.140 C 
ATOM      6  C   LIG    1       -8.849   2.151  -2.845  0.00  0.00    +0.060 C 
ATOM      7  C   LIG    1       -8.553   1.406  -1.541  0.00  0.00    +0.050 C 
BRANCH   5   8
ATOM      8  C   LIG    1       -7.197   0.232  -3.418  0.00  0.00    -0.030 A 
ATOM      9  C   LIG    1       -8.068  -0.839  -3.352  0.00  0.00    +0.040 A 
ATOM     10  C   LIG    1       -7.806  -1.992  -4.069  0.00  0.00    +0.050 A 
ATOM     11  C   LIG    1       -6.668  -2.077  -4.854  0.00  0.00    +0.030 A 
ATOM     12  O   LIG    1       -6.186  -3.081  -5.644  0.00  0.00    -0.310 OA
ATOM     13  C   LIG    1       -4.801  -2.760  -5.870  0.00  0.00    +0.430 C 
ATOM     14  O   LIG    1       -4.758  -1.326  -5.750  0.00  0.00    -0.310 OA
ATOM     15  C   LIG    1       -5.790  -0.998  -4.920  0.00  0.00    +0.040 A 
ATOM     16  C   LIG    1       -6.062   0.156  -4.204  0.00  0.00    +0.040 A 
ENDBRANCH   5   8
ENDBRANCH   3   5
BRANCH   2  17
ATOM     17  C   LIG    1       -4.084   2.791  -1.469  0.00  0.00    +0.320 C 
BRANCH  17  18
ATOM     18  N   LIG    1       -3.131   2.116  -0.584  0.00  0.00    -0.590 N 
ATOM     19  C   LIG    1       -2.130   1.197  -1.150  0.00  0.00    +0.280 C 
ATOM     20  C   LIG    1       -0.755   1.864  -1.074  0.00  0.00    +0.010 C 
ATOM     21  C   LIG    1       -0.101   1.602   0.270  0.00  0.00    +0.030 C 
ATOM     22  C   LIG    1       -0.813   2.267   1.435  0.00  0.00    +0.050 C 
ATOM     23  C   LIG    1       -2.193   1.650   1.654  0.00  0.00    +0.180 C 
ATOM     24  C   LIG    1       -3.177   2.338   0.731  0.00  0.00    +0.490 C 
ATOM     25  O   LIG    1       -4.009   3.093   1.188  0.00  0.00    -0.530 OA
BRANCH  23  26
ATOM     26  O   LIG    1       -2.599   1.836   3.012  0.00  0.00    -0.540 OA
ATOM     27  H   LIG    1       -3.475   1.480   3.213  0.00  0.00    +0.390 HD
ENDBRANCH  23  26
ENDBRANCH  17  18
ENDBRANCH   2  17
TORSDOF 5
