REMARK  Name = ZINCnE000001NQxL.0
REMARK                            x       y       z     vdW  Elec       q    Type
REMARK                         _______ _______ _______ _____ _____    ______ ____
ROOT
ATOM      1  C   LIG    1       -1.063   1.950  -0.636  0.00  0.00    +0.520 C 
ATOM      2  N   LIG    1       -0.074   1.058  -0.837  0.00  0.00    -0.600 N 
ATOM      3  C   LIG    1        1.267   1.505  -1.239  0.00  0.00    +0.290 C 
ATOM      4  C   LIG    1        1.676   0.755  -2.511  0.00  0.00    -0.100 C 
ATOM      5  C   LIG    1        1.562  -0.752  -2.269  0.00  0.00    +0.030 C 
ATOM      6  C   LIG    1        0.111  -1.110  -1.943  0.00  0.00    +0.000 C 
ATOM      7  C   LIG    1       -0.316  -0.381  -0.665  0.00  0.00    +0.210 C 
ATOM      8  C   LIG    1       -1.805  -0.623  -0.406  0.00  0.00    +0.050 C 
ATOM      9  O   LIG    1       -2.184   1.565  -0.378  0.00  0.00    -0.520 OA
ENDROOT
BRANCH   4  10
ATOM     10  C   LIG    1        3.100   1.102  -2.863  0.00  0.00    +0.500 C 
ATOM     11  O   LIG    1        3.729   1.879  -2.165  0.00  0.00    -0.700 OA
ATOM     12  O   LIG    1        3.623   0.605  -3.846  0.00  0.00    -0.690 OA
ENDBRANCH   4  10
BRANCH   1  14
ATOM     13  C   LIG    1        0.159   3.839   0.406  0.00  0.00    +0.050 C 
ATOM     14  C   LIG    1       -0.777   3.426  -0.731  0.00  0.00    +0.160 C 
BRANCH  14  15
ATOM     15  O   LIG    1       -2.002   4.156  -0.627  0.00  0.00    -0.270 OA
BRANCH  15  16
ATOM     16  C   LIG    1       -2.051   5.369  -1.239  0.00  0.00    +0.150 A 
ATOM     17  C   LIG    1       -0.910   5.899  -1.823  0.00  0.00    -0.040 A 
ATOM     18  C   LIG    1       -0.961   7.132  -2.445  0.00  0.00    +0.090 A 
ATOM     19  C   LIG    1       -2.150   7.839  -2.485  0.00  0.00    -0.070 A 
ATOM     20  C   LIG    1       -3.290   7.313  -1.903  0.00  0.00    +0.090 A 
ATOM     21 CL   LIG    1       -2.211   9.388  -3.267  0.00  0.00    -0.060 Cl
ATOM     22  C   LIG    1       -3.244   6.077  -1.285  0.00  0.00    -0.060 A 
ATOM     23 CL   LIG    1       -4.676   5.414  -0.561  0.00  0.00    -0.040 Cl
ENDBRANCH  15  16
ENDBRANCH  14  15
ENDBRANCH   1  14
TORSDOF 4
