REMARK  Name = ZINCb80000003VYj.1
REMARK                            x       y       z     vdW  Elec       q    Type
REMARK                         _______ _______ _______ _____ _____    ______ ____
ROOT
ATOM      1  C   LIG    1       -0.980   1.788  -0.967  0.00  0.00    +0.160 C 
ATOM      2  C   LIG    1       -0.050   2.573  -1.925  0.00  0.00    +0.060 C 
ATOM      3  C   LIG    1        1.070   3.075  -0.980  0.00  0.00    +0.060 C 
ATOM      4  C   LIG    1        1.291   1.904   0.000  0.00  0.00    -0.050 C 
ATOM      5  C   LIG    1        0.434   1.834   1.266  0.00  0.00    +0.080 C 
ATOM      6  C   LIG    1       -0.013   1.086   0.008  0.00  0.00    -0.050 C 
ENDROOT
BRANCH   1   7
ATOM      7  N   LIG    1       -1.864   2.709  -0.240  0.00  0.00    -0.820 NA
ATOM      8  H   LIG    1       -2.366   2.227   0.490  0.00  0.00    +0.350 HD
ATOM      9  H   LIG    1       -2.500   3.173  -0.871  0.00  0.00    +0.350 HD
ENDBRANCH   1   7
BRANCH   1  10
ATOM     10  C   LIG    1       -1.788   0.772  -1.732  0.00  0.00    +0.430 C 
ATOM     11  O   LIG    1       -1.357  -0.345  -1.893  0.00  0.00    -0.500 OA
BRANCH  10  13
ATOM     12  C   LIG    1       -3.710   0.079  -2.959  0.00  0.00    +0.250 C 
ATOM     13  O   LIG    1       -2.987   1.108  -2.234  0.00  0.00    -0.360 OA
ENDBRANCH  10  13
ENDBRANCH   1  10
TORSDOF 3
