REMARK  Name = ZINCvU00000003Vp.0
REMARK                            x       y       z     vdW  Elec       q    Type
REMARK                         _______ _______ _______ _____ _____    ______ ____
ROOT
ATOM      1  C   LIG    1       -2.576   4.183  -0.013  0.00  0.00    +0.070 A 
ATOM      2  C   LIG    1       -3.775   3.415   0.057  0.00  0.00    -0.160 A 
ATOM      3  C   LIG    1       -3.675   2.019   0.052  0.00  0.00    +0.090 A 
ATOM      4  S   LIG    1       -5.279   1.300   0.145  0.00  0.00    +0.190 S 
ATOM      5  C   LIG    1       -6.063   2.866   0.190  0.00  0.00    -0.360 A 
ATOM      6  N   LIG    1       -2.479   1.432  -0.022  0.00  0.00    -0.460 NA
ATOM      7  C   LIG    1       -1.353   2.120  -0.082  0.00  0.00    +0.230 A 
ATOM      8  C   LIG    1       -5.149   3.869   0.136  0.00  0.00    +0.310 A 
ATOM      9  C   LIG    1       -1.362   3.515  -0.082  0.00  0.00    -0.020 A 
ENDROOT
BRANCH   5  10
ATOM     10  C   LIG    1       -7.464   3.060   0.271  0.00  0.00    +0.620 C 
ATOM     11  N   LIG    1       -8.290   1.996   0.319  0.00  0.00    -0.620 N 
ATOM     12  C   LIG    1       -7.873   0.586   0.289  0.00  0.00    +0.240 C 
ATOM     13  C   LIG    1       -9.155  -0.271   0.341  0.00  0.00    +0.040 C 
ATOM     14  C   LIG    1      -10.244   0.703  -0.181  0.00  0.00    +0.040 C 
ATOM     15  C   LIG    1       -9.760   2.053   0.404  0.00  0.00    +0.260 C 
ATOM     16  O   LIG    1       -7.922   4.188   0.297  0.00  0.00    -0.550 OA
ENDBRANCH   5  10
BRANCH   1  20
ATOM     17  C   LIG    1       -2.716   8.432  -0.006  0.00  0.00    +0.140 A 
ATOM     18  C   LIG    1       -1.983   7.761   0.965  0.00  0.00    -0.010 A 
ATOM     19  C   LIG    1       -1.936   6.384   0.966  0.00  0.00    +0.090 A 
ATOM     20  C   LIG    1       -2.625   5.663  -0.010  0.00  0.00    -0.120 A 
ATOM     21  C   LIG    1       -3.356   6.340  -0.987  0.00  0.00    +0.080 A 
ATOM     22  C   LIG    1       -3.403   7.718  -0.979  0.00  0.00    -0.070 A 
BRANCH  17  24
ATOM     23  C   LIG    1       -3.532  10.415  -1.032  0.00  0.00    +0.240 C 
ATOM     24  O   LIG    1       -2.760   9.790  -0.004  0.00  0.00    -0.310 OA
ENDBRANCH  17  24
ENDBRANCH   1  20
BRANCH   7  25
ATOM     25  C   LIG    1       -0.059   1.399  -0.157  0.00  0.00    -0.060 A 
ATOM     26  C   LIG    1        1.136   2.112  -0.232  0.00  0.00    +0.040 A 
ATOM     27  C   LIG    1        2.337   1.436  -0.308  0.00  0.00    +0.010 A 
ATOM     28  C   LIG    1        2.355   0.053  -0.308  0.00  0.00    +0.030 A 
ATOM     29  C   LIG    1        1.172  -0.660  -0.233  0.00  0.00    +0.000 A 
ATOM     30  C   LIG    1       -0.034   0.005  -0.157  0.00  0.00    +0.070 A 
ENDBRANCH   7  25
BRANCH   8  31
ATOM     31  N   LIG    1       -5.501   5.213   0.156  0.00  0.00    -0.830 N 
ATOM     32  H   LIG    1       -4.873   5.873   0.488  0.00  0.00    +0.400 HD
ATOM     33  H   LIG    1       -6.374   5.490  -0.163  0.00  0.00    +0.420 HD
ENDBRANCH   8  31
TORSDOF 5
