REMARK  Name = ZINCpe000000XJtL.0
REMARK                            x       y       z     vdW  Elec       q    Type
REMARK                         _______ _______ _______ _____ _____    ______ ____
ROOT
ATOM      1  S   LIG    1        6.283  -2.313   2.912  0.00  0.00    +2.700 S 
ATOM      2  O   LIG    1        5.926  -3.369   2.031  0.00  0.00    -0.960 OA
ATOM      3  O   LIG    1        6.207  -2.421   4.327  0.00  0.00    -0.960 OA
ENDROOT
BRANCH   1   7
ATOM      4  C   LIG    1       10.909  -0.270   4.231  0.00  0.00    +0.100 C 
ATOM      5  C   LIG    1       10.050  -0.944   3.192  0.00  0.00    -0.140 A 
ATOM      6  C   LIG    1        8.741  -1.274   3.486  0.00  0.00    +0.170 A 
ATOM      7  C   LIG    1        7.952  -1.893   2.534  0.00  0.00    -0.710 A 
ATOM      8  C   LIG    1        8.473  -2.188   1.288  0.00  0.00    +0.150 A 
ATOM      9  C   LIG    1        9.780  -1.855   0.987  0.00  0.00    -0.090 A 
ATOM     10  C   LIG    1       10.573  -1.234   1.940  0.00  0.00    +0.190 A 
BRANCH  10  11
ATOM     11  O   LIG    1       11.860  -0.911   1.649  0.00  0.00    -0.300 OA
BRANCH  11  12
ATOM     12  C   LIG    1       12.368  -1.345   0.386  0.00  0.00    +0.150 C 
ATOM     13  C   LIG    1       13.892  -1.467   0.464  0.00  0.00    +0.070 C 
ATOM     14  C   LIG    1       11.992  -0.327  -0.692  0.00  0.00    +0.030 C 
ENDBRANCH  11  12
ENDBRANCH  10  11
ENDBRANCH   1   7
BRANCH   1  15
ATOM     15  N   LIG    1        5.344  -1.015   2.491  0.00  0.00    -1.120 NA
ATOM     16  H   LIG    1        4.865  -0.521   3.174  0.00  0.00    +0.420 HD
BRANCH  15  17
ATOM     17  C   LIG    1        5.237  -0.614   1.086  0.00  0.00    +0.270 C 
BRANCH  17  18
ATOM     18  C   LIG    1        4.052   0.339   0.917  0.00  0.00    -0.010 C 
BRANCH  18  19
ATOM     19  C   LIG    1        3.940   0.759  -0.550  0.00  0.00    +0.230 C 
BRANCH  19  20
ATOM     20  N   LIG    1        2.802   1.674  -0.712  0.00  0.00    -0.530 NA
ATOM     21  C   LIG    1        2.939   2.846   0.168  0.00  0.00    +0.180 C 
ATOM     22  C   LIG    1        1.913   3.900  -0.255  0.00  0.00    +0.270 C 
ATOM     23  N   LIG    1        0.589   3.294  -0.363  0.00  0.00    -0.720 N 
ATOM     24  H   LIG    1       -0.188   3.875  -0.362  0.00  0.00    +0.400 HD
ATOM     25  C   LIG    1        0.400   1.974  -0.467  0.00  0.00    +0.520 C 
ATOM     26  O   LIG    1       -0.734   1.557  -0.583  0.00  0.00    -0.550 OA
ATOM     27  C   LIG    1        1.532   0.986  -0.447  0.00  0.00    +0.230 C 
ENDBRANCH  19  20
ENDBRANCH  18  19
ENDBRANCH  17  18
ENDBRANCH  15  17
ENDBRANCH   1  15
TORSDOF 8
