REMARK  Name = ZINCqH0000038NcQ.0
REMARK                            x       y       z     vdW  Elec       q    Type
REMARK                         _______ _______ _______ _____ _____    ______ ____
ROOT
ATOM      1  C   LIG    1        2.082   4.385   0.647  0.00  0.00    +0.160 A 
ATOM      2  C   LIG    1        1.542   3.738  -0.445  0.00  0.00    +0.120 A 
ATOM      3  N   LIG    1        0.497   4.462  -0.882  0.00  0.00    -0.470 NA
ATOM      4  C   LIG    1        0.350   5.528  -0.111  0.00  0.00    +0.240 A 
ATOM      5  C   LIG    1       -0.580   6.589  -0.137  0.00  0.00    +0.080 A 
ATOM      6  C   LIG    1       -0.491   7.576   0.794  0.00  0.00    +0.050 A 
ATOM      7  C   LIG    1        0.522   7.529   1.767  0.00  0.00    +0.010 A 
ATOM      8  C   LIG    1        1.405   6.510   1.782  0.00  0.00    +0.220 A 
ATOM      9  N   LIG    1        1.330   5.509   0.853  0.00  0.00    -0.350 N 
ENDROOT
BRANCH   2  10
ATOM     10  C   LIG    1        2.032   2.471  -1.037  0.00  0.00    -0.010 A 
ATOM     11  C   LIG    1        1.129   1.556  -1.578  0.00  0.00    +0.050 A 
ATOM     12  C   LIG    1        1.592   0.378  -2.128  0.00  0.00    +0.010 A 
ATOM     13  C   LIG    1        2.948   0.104  -2.143  0.00  0.00    +0.010 A 
ATOM     14  C   LIG    1        3.848   1.008  -1.608  0.00  0.00    +0.010 A 
ATOM     15  C   LIG    1        3.397   2.189  -1.055  0.00  0.00    +0.020 A 
ENDBRANCH   2  10
BRANCH   1  17
ATOM     16  C   LIG    1        4.323   4.692   1.375  0.00  0.00    +0.510 C 
ATOM     17  N   LIG    1        3.184   3.972   1.397  0.00  0.00    -0.640 N 
ATOM     18  H   LIG    1        3.130   3.166   1.935  0.00  0.00    +0.420 HD
ATOM     19  O   LIG    1        4.362   5.746   0.775  0.00  0.00    -0.500 OA
BRANCH  16  20
ATOM     20  C   LIG    1        5.547   4.189   2.096  0.00  0.00    +0.170 C 
BRANCH  20  27
ATOM     21  C   LIG    1        7.781   4.237  -0.257  0.00  0.00    +0.160 C 
ATOM     22  C   LIG    1        7.652   5.200   0.895  0.00  0.00    +0.040 A 
ATOM     23  N   LIG    1        8.416   6.223   1.145  0.00  0.00    -0.360 NA
ATOM     24  O   LIG    1        8.066   6.807   2.145  0.00  0.00    +0.100 OA
ATOM     25  C   LIG    1        6.991   6.231   2.700  0.00  0.00    -0.010 A 
ATOM     26  C   LIG    1        6.274   6.675   3.950  0.00  0.00    +0.180 C 
ATOM     27  C   LIG    1        6.675   5.173   1.917  0.00  0.00    -0.190 A 
ENDBRANCH  20  27
ENDBRANCH  16  20
ENDBRANCH   1  17
TORSDOF 4
