REMARK  Name = ZINCrg00001Jdv3w.1
REMARK                            x       y       z     vdW  Elec       q    Type
REMARK                         _______ _______ _______ _____ _____    ______ ____
ROOT
ATOM      1  C   LIG    1        1.756  -1.813  -0.025  0.00  0.00    +0.390 C 
ENDROOT
BRANCH   1   2
ATOM      2  C   LIG    1        1.590  -2.417   1.345  0.00  0.00    -0.060 A 
ATOM      3  C   LIG    1        0.928  -3.557   1.653  0.00  0.00    +0.180 A 
ATOM      4  N   LIG    1        1.042  -3.709   2.993  0.00  0.00    -0.380 N 
ATOM      5  H   LIG    1        0.672  -4.438   3.516  0.00  0.00    +0.450 HD
ATOM      6  N   LIG    1        1.721  -2.717   3.455  0.00  0.00    -0.070 NA
ATOM      7  N   LIG    1        2.062  -1.929   2.498  0.00  0.00    -0.250 NA
ENDBRANCH   1   2
BRANCH   1   8
ATOM      8  C   LIG    1        1.254  -0.392  -0.012  0.00  0.00    +0.210 A 
ATOM      9  N   LIG    1        0.002  -0.004   0.002  0.00  0.00    -0.290 NA
ATOM     10  N   LIG    1       -0.015   1.284   0.009  0.00  0.00    -0.080 NA
ATOM     11  N   LIG    1        1.193   1.728  -0.000  0.00  0.00    -0.090 NA
ATOM     12  N   LIG    1        2.005   0.725  -0.013  0.00  0.00    -0.270 N 
BRANCH  12  13
ATOM     13  C   LIG    1        3.468   0.790  -0.027  0.00  0.00    +0.210 C 
ATOM     14  C   LIG    1        4.116   2.161   0.178  0.00  0.00    +0.090 C 
ATOM     15  C   LIG    1        4.132   1.506  -1.205  0.00  0.00    +0.070 C 
ENDBRANCH  12  13
ENDBRANCH   1   8
BRANCH   1  16
ATOM     16  N   LIG    1        0.986  -2.595  -1.002  0.00  0.00    -0.660 NA
ATOM     17  H   LIG    1        0.103  -2.891  -0.612  0.00  0.00    +0.360 HD
BRANCH  16  18
ATOM     18  C   LIG    1        1.761  -3.745  -1.484  0.00  0.00    +0.190 C 
BRANCH  18  19
ATOM     19  C   LIG    1        0.928  -4.534  -2.496  0.00  0.00    +0.100 C 
BRANCH  19  24
ATOM     20  C   LIG    1        2.464  -7.986  -2.731  0.00  0.00    +0.110 A 
ATOM     21  C   LIG    1        3.190  -7.881  -3.906  0.00  0.00    -0.070 A 
ATOM     22  C   LIG    1        3.182  -6.696  -4.619  0.00  0.00    +0.050 A 
ATOM     23  C   LIG    1        2.452  -5.616  -4.163  0.00  0.00    -0.010 A 
ATOM     24  C   LIG    1        1.724  -5.714  -2.991  0.00  0.00    -0.060 A 
ATOM     25  C   LIG    1        1.732  -6.896  -2.269  0.00  0.00    +0.060 A 
BRANCH  20  27
ATOM     26  C   LIG    1        3.248 -10.225  -2.560  0.00  0.00    +0.240 C 
ATOM     27  O   LIG    1        2.470  -9.150  -2.028  0.00  0.00    -0.310 OA
ENDBRANCH  20  27
BRANCH  25  28
ATOM     28  O   LIG    1        1.022  -6.993  -1.113  0.00  0.00    -0.320 OA
ATOM     29  C   LIG    1       -0.330  -7.447  -1.218  0.00  0.00    +0.220 C 
ENDBRANCH  25  28
ENDBRANCH  19  24
ENDBRANCH  18  19
ENDBRANCH  16  18
ENDBRANCH   1  16
TORSDOF 9
