REMARK  Name = ZINCrg00001Jdv3w.0
REMARK                            x       y       z     vdW  Elec       q    Type
REMARK                         _______ _______ _______ _____ _____    ______ ____
ROOT
ATOM      1  C   LIG    1       -0.013   1.086   0.008  0.00  0.00    +0.390 C 
ENDROOT
BRANCH   1   2
ATOM      2  C   LIG    1       -0.718   1.572   1.248  0.00  0.00    -0.030 A 
ATOM      3  N   LIG    1       -0.328   1.417   2.493  0.00  0.00    -0.270 NA
ATOM      4  N   LIG    1       -1.193   1.969   3.268  0.00  0.00    -0.240 N 
ATOM      5  H   LIG    1       -1.131   1.990   4.236  0.00  0.00    +0.470 HD
ATOM      6  N   LIG    1       -2.150   2.489   2.586  0.00  0.00    -0.270 NA
ATOM      7  C   LIG    1       -1.918   2.285   1.309  0.00  0.00    +0.200 A 
ENDBRANCH   1   2
BRANCH   1   8
ATOM      8  C   LIG    1        1.401   1.607  -0.003  0.00  0.00    +0.210 A 
ATOM      9  N   LIG    1        1.782   2.831  -0.278  0.00  0.00    -0.280 NA
ATOM     10  N   LIG    1        3.065   2.881  -0.178  0.00  0.00    -0.070 NA
ATOM     11  N   LIG    1        3.514   1.718   0.145  0.00  0.00    -0.090 NA
ATOM     12  N   LIG    1        2.519   0.906   0.262  0.00  0.00    -0.270 N 
BRANCH  12  13
ATOM     13  C   LIG    1        2.591  -0.514   0.617  0.00  0.00    +0.200 C 
ATOM     14  C   LIG    1        3.946  -1.060   1.074  0.00  0.00    +0.090 C 
ATOM     15  C   LIG    1        3.396  -1.432  -0.305  0.00  0.00    +0.070 C 
ENDBRANCH  12  13
ENDBRANCH   1   8
BRANCH   1  16
ATOM     16  N   LIG    1       -0.723   1.572  -1.182  0.00  0.00    -0.660 NA
ATOM     17  H   LIG    1       -1.052   2.517  -1.046  0.00  0.00    +0.360 HD
BRANCH  16  18
ATOM     18  C   LIG    1       -1.831   0.676  -1.537  0.00  0.00    +0.190 C 
BRANCH  18  19
ATOM     19  C   LIG    1       -2.546   1.214  -2.778  0.00  0.00    +0.100 C 
BRANCH  19  24
ATOM     20  C   LIG    1       -5.964  -0.410  -2.870  0.00  0.00    +0.110 A 
ATOM     21  C   LIG    1       -5.768  -1.401  -3.817  0.00  0.00    -0.070 A 
ATOM     22  C   LIG    1       -4.533  -1.543  -4.424  0.00  0.00    +0.050 A 
ATOM     23  C   LIG    1       -3.493  -0.698  -4.087  0.00  0.00    -0.010 A 
ATOM     24  C   LIG    1       -3.682   0.294  -3.143  0.00  0.00    -0.060 A 
ATOM     25  C   LIG    1       -4.915   0.439  -2.527  0.00  0.00    +0.070 A 
BRANCH  20  27
ATOM     26  C   LIG    1       -8.206  -1.178  -2.669  0.00  0.00    +0.240 C 
ATOM     27  O   LIG    1       -7.177  -0.269  -2.272  0.00  0.00    -0.310 OA
ENDBRANCH  20  27
BRANCH  25  28
ATOM     28  O   LIG    1       -5.101   1.410  -1.594  0.00  0.00    -0.320 OA
ATOM     29  C   LIG    1       -5.551   2.683  -2.063  0.00  0.00    +0.220 C 
ENDBRANCH  25  28
ENDBRANCH  19  24
ENDBRANCH  18  19
ENDBRANCH  16  18
ENDBRANCH   1  16
TORSDOF 9
