REMARK  Name = ZINCpk00000EXho3.0
REMARK                            x       y       z     vdW  Elec       q    Type
REMARK                         _______ _______ _______ _____ _____    ______ ____
ROOT
ATOM      1  C   LIG    1       -3.891  -2.014  -1.506  0.00  0.00    +0.340 C 
ATOM      2  N   LIG    1       -2.747  -1.496  -2.262  0.00  0.00    -0.560 N 
ATOM      3  C   LIG    1       -2.038  -0.459  -1.765  0.00  0.00    +0.560 A 
ATOM      4  C   LIG    1       -0.897   0.038  -2.545  0.00  0.00    -0.230 A 
ATOM      5  C   LIG    1       -0.107   1.111  -2.104  0.00  0.00    +0.250 A 
ATOM      6  C   LIG    1        0.952   1.514  -2.920  0.00  0.00    -0.100 A 
ATOM      7  C   LIG    1        1.185   0.847  -4.104  0.00  0.00    +0.360 A 
ATOM      8  N   LIG    1        0.425  -0.161  -4.495  0.00  0.00    -0.520 NA
ATOM      9  C   LIG    1       -0.595  -0.585  -3.769  0.00  0.00    +0.410 A 
ATOM     10  N   LIG    1       -1.388  -1.641  -4.184  0.00  0.00    -0.530 N 
ATOM     11  C   LIG    1       -1.096  -2.309  -5.455  0.00  0.00    +0.350 C 
ATOM     12  O   LIG    1       -2.336   0.049  -0.701  0.00  0.00    -0.450 OA
ATOM     13  C   LIG    1       -2.422  -2.060  -3.436  0.00  0.00    +0.710 A 
ATOM     14  O   LIG    1       -3.092  -2.990  -3.839  0.00  0.00    -0.530 OA
ENDROOT
BRANCH   5  15
ATOM     15  N   LIG    1       -0.372   1.751  -0.905  0.00  0.00    -0.490 N 
ATOM     16  C   LIG    1        0.737   1.575   0.041  0.00  0.00    +0.190 C 
ATOM     17  C   LIG    1        0.350   2.168   1.398  0.00  0.00    +0.050 C 
ATOM     18  C   LIG    1        0.031   3.656   1.227  0.00  0.00    +0.010 C 
ATOM     19  C   LIG    1       -1.094   3.814   0.200  0.00  0.00    +0.170 C 
ATOM     20  C   LIG    1       -0.666   3.173  -1.122  0.00  0.00    +0.190 C 
BRANCH  19  21
ATOM     21  O   LIG    1       -1.360   5.202  -0.006  0.00  0.00    -0.370 OA
BRANCH  21  22
ATOM     22  C   LIG    1       -2.641   5.625   0.464  0.00  0.00    +0.110 C 
ATOM     23  C   LIG    1       -3.737   4.880  -0.300  0.00  0.00    +0.010 C 
ATOM     24  C   LIG    1       -2.796   7.131   0.238  0.00  0.00    +0.050 C 
ATOM     25  C   LIG    1       -2.763   5.319   1.958  0.00  0.00    +0.010 C 
ENDBRANCH  21  22
ENDBRANCH  19  21
ENDBRANCH   5  15
TORSDOF 3
