REMARK  Name = ZINCpk00000y6ycp.0
REMARK                            x       y       z     vdW  Elec       q    Type
REMARK                         _______ _______ _______ _____ _____    ______ ____
ROOT
ATOM      1  N   LIG    1        0.055   3.255   3.334  0.00  0.00    -0.750 N 
ATOM      2  H   LIG    1        0.144   2.291   3.393  0.00  0.00    +0.390 HD
ATOM      3  C   LIG    1       -0.417   3.820   2.205  0.00  0.00    +0.710 C 
ATOM      4  N   LIG    1       -0.859   3.043   1.197  0.00  0.00    -0.630 N 
ATOM      5  C   LIG    1       -1.476   3.642   0.005  0.00  0.00    +0.300 C 
ATOM      6  C   LIG    1       -2.845   2.993  -0.221  0.00  0.00    +0.030 C 
ATOM      7  C   LIG    1       -2.679   1.474  -0.295  0.00  0.00    +0.020 C 
ATOM      8  C   LIG    1       -2.111   0.955   1.028  0.00  0.00    +0.150 C 
ATOM      9  C   LIG    1       -0.733   1.581   1.268  0.00  0.00    +0.250 C 
ATOM     10  O   LIG    1       -0.442   5.030   2.096  0.00  0.00    -0.580 OA
ENDROOT
BRANCH   1  15
ATOM     11  C   LIG    1        1.473   3.368   5.346  0.00  0.00    -0.010 C 
ATOM     12  C   LIG    1        0.633   2.702   6.464  0.00  0.00    +0.020 C 
ATOM     13  C   LIG    1       -0.453   3.768   6.756  0.00  0.00    +0.020 C 
ATOM     14  C   LIG    1       -0.793   4.350   5.369  0.00  0.00    +0.000 C 
ATOM     15  C   LIG    1        0.431   4.096   4.473  0.00  0.00    +0.260 C 
BRANCH  11  16
ATOM     16  C   LIG    1        2.214   2.309   4.527  0.00  0.00    +0.270 C 
BRANCH  16  17
ATOM     17  N   LIG    1        3.276   1.715   5.342  0.00  0.00    -1.120 NA
ATOM     18  H   LIG    1        3.558   2.150   6.162  0.00  0.00    +0.420 HD
BRANCH  17  20
ATOM     19  C   LIG    1        4.845   0.728   3.317  0.00  0.00    -0.280 C 
ATOM     20  S   LIG    1        3.995   0.303   4.863  0.00  0.00    +2.610 S 
ATOM     21  O   LIG    1        2.908  -0.576   4.609  0.00  0.00    -0.950 OA
ATOM     22  O   LIG    1        4.938   0.024   5.889  0.00  0.00    -0.960 OA
ENDBRANCH  17  20
ENDBRANCH  16  17
ENDBRANCH  11  16
ENDBRANCH   1  15
BRANCH   8  23
ATOM     23  O   LIG    1       -1.985  -0.467   0.968  0.00  0.00    -0.360 OA
BRANCH  23  24
ATOM     24  C   LIG    1       -2.130  -1.117   2.232  0.00  0.00    +0.150 C 
ATOM     25  C   LIG    1       -0.824  -1.736   2.760  0.00  0.00    +0.000 C 
ATOM     26  C   LIG    1       -1.675  -2.929   3.232  0.00  0.00    +0.020 C 
ATOM     27  C   LIG    1       -2.678  -2.550   2.129  0.00  0.00    +0.020 C 
ENDBRANCH  23  24
ENDBRANCH   8  23
TORSDOF 6
