REMARK  Name = ZINCvU00000006Us.1
REMARK                            x       y       z     vdW  Elec       q    Type
REMARK                         _______ _______ _______ _____ _____    ______ ____
ROOT
ATOM      1  C   LIG    1        0.247  -2.605   1.399  0.00  0.00    +0.130 C 
ENDROOT
BRANCH   1   2
ATOM      2  C   LIG    1        1.308  -1.539   1.500  0.00  0.00    +0.550 C 
ATOM      3  N   LIG    1        1.153  -0.370   0.847  0.00  0.00    -0.610 N 
ATOM      4  C   LIG    1        0.002  -0.004   0.002  0.00  0.00    +0.260 C 
ATOM      5  C   LIG    1       -0.019   1.545   0.011  0.00  0.00    +0.060 C 
ATOM      6  C   LIG    1        1.497   1.877  -0.002  0.00  0.00    +0.060 C 
ATOM      7  C   LIG    1        2.105   0.750   0.860  0.00  0.00    +0.320 C 
ATOM      8  O   LIG    1        2.300  -1.733   2.170  0.00  0.00    -0.510 OA
BRANCH   7   9
ATOM      9  C   LIG    1        3.423   0.310   0.277  0.00  0.00    +0.090 A 
ATOM     10  N   LIG    1        4.563   0.580   0.791  0.00  0.00    -0.450 NA
ATOM     11  C   LIG    1        5.661   0.121   0.162  0.00  0.00    +0.080 A 
ATOM     12  C   LIG    1        7.021   0.268   0.502  0.00  0.00    +0.080 A 
ATOM     13  C   LIG    1        7.991  -0.282  -0.280  0.00  0.00    +0.030 A 
ATOM     14  C   LIG    1        7.662  -0.997  -1.423  0.00  0.00    +0.040 A 
ATOM     15  C   LIG    1        6.341  -1.157  -1.780  0.00  0.00    +0.060 A 
ATOM     16  C   LIG    1        5.336  -0.600  -0.992  0.00  0.00    -0.180 A 
ATOM     17  S   LIG    1        3.582  -0.618  -1.146  0.00  0.00    +0.110 S 
ENDBRANCH   7   9
ENDBRANCH   1   2
BRANCH   1  18
ATOM     18  S   LIG    1        0.742  -4.044   2.380  0.00  0.00    +0.060 S 
BRANCH  18  23
ATOM     19  C   LIG    1       -2.620  -8.169   2.416  0.00  0.00    +0.160 C 
ATOM     20  C   LIG    1       -2.006  -6.824   2.124  0.00  0.00    -0.000 A 
ATOM     21  C   LIG    1       -2.530  -5.856   1.352  0.00  0.00    +0.020 A 
ATOM     22  N   LIG    1       -1.680  -4.816   1.344  0.00  0.00    -0.480 NA
ATOM     23  C   LIG    1       -0.637  -5.101   2.088  0.00  0.00    +0.180 A 
ATOM     24  N   LIG    1       -0.800  -6.355   2.592  0.00  0.00    -0.550 N 
ATOM     25  H   LIG    1       -0.183  -6.828   3.173  0.00  0.00    +0.420 HD
BRANCH  21  26
ATOM     26  C   LIG    1       -3.846  -5.927   0.621  0.00  0.00    +0.180 C 
BRANCH  26  27
ATOM     27  C   LIG    1       -3.625  -6.497  -0.757  0.00  0.00    -0.070 A 
ATOM     28  C   LIG    1       -3.350  -5.654  -1.818  0.00  0.00    +0.010 A 
ATOM     29  C   LIG    1       -3.142  -6.178  -3.080  0.00  0.00    +0.000 A 
ATOM     30  C   LIG    1       -3.219  -7.543  -3.284  0.00  0.00    +0.000 A 
ATOM     31  C   LIG    1       -3.500  -8.385  -2.224  0.00  0.00    +0.000 A 
ATOM     32  C   LIG    1       -3.702  -7.862  -0.961  0.00  0.00    +0.000 A 
ENDBRANCH  26  27
ENDBRANCH  21  26
ENDBRANCH  18  23
ENDBRANCH   1  18
TORSDOF 6
