REMARK  Name = ZINCtV00001bB3ud.0
REMARK                            x       y       z     vdW  Elec       q    Type
REMARK                         _______ _______ _______ _____ _____    ______ ____
ROOT
ATOM      1  C   LIG    1       -1.141   1.876   0.017  0.00  0.00    -0.220 A 
ATOM      2  C   LIG    1       -0.013   1.076   0.008  0.00  0.00    +0.290 A 
ATOM      3  N   LIG    1        1.063   1.883   0.002  0.00  0.00    -0.310 N 
ATOM      4  N   LIG    1        0.650   3.218   0.013  0.00  0.00    -0.270 NA
ATOM      5  C   LIG    1       -0.663   3.264   0.025  0.00  0.00    +0.160 A 
ENDROOT
BRANCH   5   6
ATOM      6  C   LIG    1       -1.502   4.485   0.039  0.00  0.00    -0.040 A 
ATOM      7  C   LIG    1       -2.717   4.507  -0.646  0.00  0.00    +0.080 A 
ATOM      8  C   LIG    1       -3.497   5.645  -0.625  0.00  0.00    -0.010 A 
ATOM      9  C   LIG    1       -3.070   6.768   0.064  0.00  0.00    +0.120 A 
ATOM     10  C   LIG    1       -1.862   6.753   0.742  0.00  0.00    -0.010 A 
ATOM     11  F   LIG    1       -3.835   7.882   0.077  0.00  0.00    -0.130 F 
ATOM     12  C   LIG    1       -1.077   5.618   0.732  0.00  0.00    +0.080 A 
ENDBRANCH   5   6
BRANCH   3  13
ATOM     13  C   LIG    1        2.396   1.451  -0.013  0.00  0.00    +0.150 A 
ATOM     14  C   LIG    1        2.687   0.093  -0.017  0.00  0.00    -0.010 A 
ATOM     15  C   LIG    1        4.002  -0.329  -0.039  0.00  0.00    +0.050 A 
ATOM     16  C   LIG    1        5.027   0.598  -0.043  0.00  0.00    +0.010 A 
ATOM     17  C   LIG    1        4.741   1.951  -0.033  0.00  0.00    +0.050 A 
ATOM     18  C   LIG    1        3.428   2.380  -0.018  0.00  0.00    +0.030 A 
ENDBRANCH   3  13
BRANCH   1  20
ATOM     19  C   LIG    1       -2.823   0.103   0.016  0.00  0.00    -0.140 C 
ATOM     20  C   LIG    1       -2.537   1.427   0.021  0.00  0.00    +0.200 C 
BRANCH  19  22
ATOM     21  O   LIG    1       -5.072   0.487   0.027  0.00  0.00    -0.460 OA
ATOM     22  C   LIG    1       -4.170  -0.331   0.019  0.00  0.00    +0.430 C 
BRANCH  22  23
ATOM     23  C   LIG    1       -4.482  -1.776   0.014  0.00  0.00    -0.150 A 
ATOM     24  C   LIG    1       -3.449  -2.716  -0.001  0.00  0.00    +0.080 A 
ATOM     25  C   LIG    1       -3.746  -4.062  -0.002  0.00  0.00    +0.020 A 
ATOM     26  C   LIG    1       -5.066  -4.484   0.002  0.00  0.00    -0.010 A 
ATOM     27  C   LIG    1       -6.094  -3.556   0.011  0.00  0.00    +0.020 A 
ATOM     28 CL   LIG    1       -5.431  -6.181  -0.006  0.00  0.00    -0.060 Cl
ATOM     29  C   LIG    1       -5.810  -2.207   0.017  0.00  0.00    +0.090 A 
ENDBRANCH  22  23
ENDBRANCH  19  22
ENDBRANCH   1  20
TORSDOF 5
