REMARK  Name = ZINC650000002BQy.0
REMARK                            x       y       z     vdW  Elec       q    Type
REMARK                         _______ _______ _______ _____ _____    ______ ____
ROOT
ATOM      1  C   LIG    1        1.317   0.779  -0.006  0.00  0.00    -0.050 C 
ATOM      2  C   LIG    1       -0.019   1.526   0.010  0.00  0.00    +0.130 C 
ATOM      3  C   LIG    1        0.002  -0.004   0.002  0.00  0.00    +0.110 C 
ENDROOT
BRANCH   1   4
ATOM      4  N   LIG    1        2.111   0.783   1.229  0.00  0.00    -0.600 N 
ATOM      5  H   LIG    1        2.341   1.733   1.478  0.00  0.00    +0.440 HD
ATOM      6  H   LIG    1        2.962   0.259   1.084  0.00  0.00    +0.450 HD
ATOM      7  H   LIG    1        1.578   0.359   1.973  0.00  0.00    +0.430 HD
ENDBRANCH   1   4
BRANCH   1   8
ATOM      8  C   LIG    1        2.120   0.797  -1.308  0.00  0.00    +0.270 C 
BRANCH   8   9
ATOM      9  O   LIG    1        3.327   0.053  -1.134  0.00  0.00    -0.590 OA
ATOM     10  H   LIG    1        3.888   0.022  -1.921  0.00  0.00    +0.420 HD
ENDBRANCH   8   9
ENDBRANCH   1   8
TORSDOF 3
