REMARK  Name = ZINCrH00000tj1p4.0
REMARK                            x       y       z     vdW  Elec       q    Type
REMARK                         _______ _______ _______ _____ _____    ______ ____
ROOT
ATOM      1  C   LIG    1       -5.107   1.052   7.594  0.00  0.00    +0.210 C 
ATOM      2  C   LIG    1       -3.680   1.296   7.174  0.00  0.00    +0.190 A 
ATOM      3  N   LIG    1       -2.713   1.728   7.935  0.00  0.00    -0.270 NA
ATOM      4  N   LIG    1       -1.621   1.820   7.257  0.00  0.00    -0.240 NA
ATOM      5  C   LIG    1       -1.842   1.447   6.027  0.00  0.00    +0.140 A 
ATOM      6  S   LIG    1       -0.694   1.371   4.688  0.00  0.00    +0.080 S 
ATOM      7  C   LIG    1       -1.896   1.157   3.340  0.00  0.00    +0.020 C 
ATOM      8  C   LIG    1       -2.928   0.116   3.792  0.00  0.00    +0.220 C 
ATOM      9  N   LIG    1       -3.812   0.681   4.812  0.00  0.00    -0.440 N 
ATOM     10  H   LIG    1       -4.551   0.036   5.050  0.00  0.00    +0.380 HD
ATOM     11  N   LIG    1       -3.161   1.107   5.925  0.00  0.00    -0.320 N 
ENDROOT
BRANCH   8  12
ATOM     12  C   LIG    1       -3.750  -0.318   2.606  0.00  0.00    -0.100 A 
ATOM     13  C   LIG    1       -4.795   0.471   2.163  0.00  0.00    +0.060 A 
ATOM     14  C   LIG    1       -5.546   0.076   1.072  0.00  0.00    +0.020 A 
ATOM     15  C   LIG    1       -5.258  -1.115   0.429  0.00  0.00    -0.020 A 
ATOM     16  C   LIG    1       -4.215  -1.907   0.876  0.00  0.00    +0.030 A 
ATOM     17 CL   LIG    1       -6.204  -1.616  -0.937  0.00  0.00    -0.060 Cl
ATOM     18  C   LIG    1       -3.462  -1.508   1.964  0.00  0.00    +0.090 A 
ENDBRANCH   8  12
BRANCH   7  19
ATOM     19  C   LIG    1       -1.190   0.671   2.100  0.00  0.00    +0.550 C 
ATOM     20  N   LIG    1       -0.698   1.558   1.213  0.00  0.00    -0.600 N 
ATOM     21  C   LIG    1       -0.850   2.995   1.454  0.00  0.00    +0.280 C 
ATOM     22  O   LIG    1       -1.065  -0.519   1.901  0.00  0.00    -0.510 OA
BRANCH  20  23
ATOM     23  C   LIG    1       -0.013   1.086   0.008  0.00  0.00    +0.240 C 
ATOM     24  C   LIG    1       -0.753   1.593  -1.232  0.00  0.00    +0.010 C 
ATOM     25  C   LIG    1       -0.037   1.099  -2.490  0.00  0.00    +0.020 C 
ATOM     26  C   LIG    1        1.399   1.629  -2.501  0.00  0.00    +0.010 C 
ATOM     27  C   LIG    1        2.139   1.122  -1.262  0.00  0.00    +0.020 C 
ATOM     28  C   LIG    1        1.423   1.615  -0.003  0.00  0.00    +0.010 C 
ENDBRANCH  20  23
ENDBRANCH   7  19
TORSDOF 3
