REMARK  Name = ZINCvU00000009n3.0
REMARK                            x       y       z     vdW  Elec       q    Type
REMARK                         _______ _______ _______ _____ _____    ______ ____
ROOT
ATOM      1  O   LIG    1       -4.408  11.220  -0.402  0.00  0.00    -0.330 OA
ENDROOT
BRANCH   1   2
ATOM      2  C   LIG    1       -4.855   9.969  -0.177  0.00  0.00    +0.510 C 
ATOM      3  O   LIG    1       -4.650   9.434   0.894  0.00  0.00    -0.510 OA
BRANCH   2   4
ATOM      4  C   LIG    1       -5.594   9.249  -1.231  0.00  0.00    -0.160 A 
ATOM      5  C   LIG    1       -5.821   9.881  -2.459  0.00  0.00    +0.090 A 
ATOM      6  C   LIG    1       -6.500   9.271  -3.481  0.00  0.00    +0.000 A 
ATOM      7  C   LIG    1       -6.967   7.975  -3.257  0.00  0.00    +0.130 A 
ATOM      8  N   LIG    1       -7.661   7.111  -4.048  0.00  0.00    -0.580 N 
ATOM      9  H   LIG    1       -7.951   7.296  -4.955  0.00  0.00    +0.420 HD
ATOM     10  C   LIG    1       -7.889   5.940  -3.372  0.00  0.00    +0.070 A 
ATOM     11  C   LIG    1       -7.354   6.014  -2.135  0.00  0.00    -0.150 A 
ATOM     12  C   LIG    1       -7.416   4.909  -1.112  0.00  0.00    +0.090 C 
ATOM     13  C   LIG    1       -8.497   3.908  -1.538  0.00  0.00    +0.020 C 
ATOM     14  C   LIG    1       -8.285   3.528  -3.007  0.00  0.00    +0.020 C 
ATOM     15  C   LIG    1       -8.622   4.728  -3.898  0.00  0.00    +0.100 C 
ATOM     16  C   LIG    1       -6.742   7.322  -2.014  0.00  0.00    -0.120 A 
ATOM     17  C   LIG    1       -6.051   7.951  -0.980  0.00  0.00    +0.160 A 
ENDBRANCH   2   4
ENDBRANCH   1   2
BRANCH   1  18
ATOM     18  C   LIG    1       -3.689  11.868   0.681  0.00  0.00    +0.250 C 
BRANCH  18  20
ATOM     19  N   LIG    1       -2.485  13.996   1.051  0.00  0.00    -0.600 N 
ATOM     20  C   LIG    1       -3.269  13.249   0.249  0.00  0.00    +0.520 C 
ATOM     21  O   LIG    1       -3.638  13.689  -0.819  0.00  0.00    -0.510 OA
BRANCH  19  23
ATOM     22  C   LIG    1       -0.864  12.362   1.877  0.00  0.00    +0.040 C 
ATOM     23  C   LIG    1       -1.908  13.411   2.264  0.00  0.00    +0.160 C 
ATOM     24  C   LIG    1       -3.015  12.749   3.087  0.00  0.00    +0.040 C 
ATOM     25  C   LIG    1       -1.242  14.510   3.094  0.00  0.00    +0.060 C 
ENDBRANCH  19  23
BRANCH  19  26
ATOM     26  C   LIG    1       -2.208  15.394   0.710  0.00  0.00    +0.340 C 
BRANCH  26  27
ATOM     27  C   LIG    1       -3.342  16.262   1.192  0.00  0.00    -0.110 A 
ATOM     28  C   LIG    1       -4.492  16.381   0.434  0.00  0.00    +0.030 A 
ATOM     29  C   LIG    1       -5.534  17.173   0.879  0.00  0.00    +0.000 A 
ATOM     30  C   LIG    1       -5.421  17.856   2.076  0.00  0.00    +0.000 A 
ATOM     31  C   LIG    1       -4.269  17.741   2.831  0.00  0.00    +0.000 A 
ATOM     32  C   LIG    1       -3.229  16.945   2.389  0.00  0.00    +0.010 A 
ENDBRANCH  26  27
ENDBRANCH  19  26
ENDBRANCH  18  20
ENDBRANCH   1  18
TORSDOF 7
