REMARK  Name = ZINCqH0000051tvn.0
REMARK                            x       y       z     vdW  Elec       q    Type
REMARK                         _______ _______ _______ _____ _____    ______ ____
ROOT
ATOM      1  O   LIG    1       -6.971  -0.327   1.429  0.00  0.00    -0.500 OA
ATOM      2  C   LIG    1       -6.559   0.567   0.716  0.00  0.00    +0.580 C 
ATOM      3  N   LIG    1       -7.411   1.237  -0.085  0.00  0.00    -0.650 N 
ATOM      4  H   LIG    1       -7.098   2.000  -0.597  0.00  0.00    +0.420 HD
ENDROOT
BRANCH   2   5
ATOM      5  C   LIG    1       -5.122   0.920   0.727  0.00  0.00    +0.010 A 
ATOM      6  C   LIG    1       -4.235   0.225   1.557  0.00  0.00    +0.150 A 
ATOM      7  C   LIG    1       -2.898   0.588   1.527  0.00  0.00    +0.040 A 
ATOM      8  C   LIG    1       -2.521   1.629   0.681  0.00  0.00    +0.320 A 
ATOM      9  N   LIG    1       -3.431   2.233  -0.073  0.00  0.00    -0.250 NA
ATOM     10  N   LIG    1       -4.669   1.896  -0.052  0.00  0.00    -0.170 NA
BRANCH   8  11
ATOM     11  N   LIG    1       -1.186   2.031   0.623  0.00  0.00    -0.410 N 
ATOM     12  C   LIG    1       -0.685   3.094  -0.087  0.00  0.00    +0.160 A 
ATOM     13  C   LIG    1        0.643   3.117   0.133  0.00  0.00    +0.160 A 
ATOM     14  N   LIG    1        0.950   2.103   0.957  0.00  0.00    -0.470 NA
ATOM     15  C   LIG    1       -0.137   1.447   1.260  0.00  0.00    +0.420 A 
ENDBRANCH   8  11
ENDBRANCH   2   5
BRANCH   3  16
ATOM     16  C   LIG    1       -8.746   0.834  -0.179  0.00  0.00    +0.140 A 
ATOM     17  C   LIG    1       -9.075  -0.512  -0.080  0.00  0.00    +0.040 A 
ATOM     18  C   LIG    1      -10.396  -0.907  -0.168  0.00  0.00    +0.030 A 
ATOM     19  C   LIG    1      -11.389   0.034  -0.365  0.00  0.00    +0.050 A 
ATOM     20  C   LIG    1      -11.064   1.375  -0.469  0.00  0.00    -0.050 A 
ATOM     21  C   LIG    1       -9.746   1.777  -0.377  0.00  0.00    +0.020 A 
BRANCH  20  22
ATOM     22  C   LIG    1      -12.150   2.398  -0.683  0.00  0.00    +0.130 C 
ATOM     23  S   LIG    1      -13.326   2.334   0.699  0.00  0.00    -0.210 S 
ATOM     24  C   LIG    1      -14.578   3.554   0.220  0.00  0.00    +0.100 C 
ATOM     25  C   LIG    1      -15.261   3.126  -1.074  0.00  0.00    +0.060 C 
ATOM     26  C   LIG    1      -14.325   3.302  -2.264  0.00  0.00    +0.110 C 
ATOM     27  S   LIG    1      -13.029   2.035  -2.230  0.00  0.00    -0.210 S 
ENDBRANCH  20  22
ENDBRANCH   3  16
TORSDOF 4
