REMARK  Name = ZINCvU00000004Cw.0
REMARK                            x       y       z     vdW  Elec       q    Type
REMARK                         _______ _______ _______ _____ _____    ______ ____
ROOT
ATOM      1  C   LIG    1       -0.674  -7.233  -0.134  0.00  0.00    -0.270 A 
ATOM      2  C   LIG    1       -1.681  -8.133  -0.246  0.00  0.00    +0.180 A 
ATOM      3  C   LIG    1       -2.294  -8.492   0.952  0.00  0.00    -0.240 A 
ATOM      4  C   LIG    1       -1.764  -7.863   2.056  0.00  0.00    +0.040 A 
ATOM      5  N   LIG    1       -2.358  -8.212   3.208  0.00  0.00    -0.500 NA
ATOM      6  C   LIG    1       -3.323  -9.066   3.160  0.00  0.00    +0.360 A 
ATOM      7  S   LIG    1       -3.603  -9.559   1.498  0.00  0.00    +0.130 S 
ATOM      8  S   LIG    1       -0.447  -6.792   1.547  0.00  0.00    +0.250 S 
ENDROOT
BRANCH   1  16
ATOM      9  C   LIG    1        0.802  -1.157   0.662  0.00  0.00    +0.110 A 
ATOM     10  C   LIG    1        0.737  -2.519   0.888  0.00  0.00    -0.050 A 
ATOM     11  C   LIG    1        0.985  -3.418  -0.141  0.00  0.00    -0.060 A 
ATOM     12  C   LIG    1        1.291  -2.954  -1.401  0.00  0.00    -0.090 A 
ATOM     13  C   LIG    1        1.551  -3.870  -2.568  0.00  0.00    +0.090 C 
ATOM     14  C   LIG    1        1.921  -5.272  -2.088  0.00  0.00    +0.300 C 
ATOM     15  N   LIG    1        0.946  -5.670  -1.059  0.00  0.00    -0.610 N 
ATOM     16  C   LIG    1        0.111  -6.711  -1.251  0.00  0.00    +0.600 C 
ATOM     17  O   LIG    1        0.011  -7.216  -2.354  0.00  0.00    -0.520 OA
ATOM     18  C   LIG    1        1.357  -1.584  -1.632  0.00  0.00    +0.030 A 
ATOM     19  C   LIG    1        0.920  -4.890   0.182  0.00  0.00    +0.330 C 
ATOM     20  C   LIG    1        1.120  -0.686  -0.609  0.00  0.00    +0.080 A 
BRANCH   9  22
ATOM     21  C   LIG    1        0.238  -0.840   2.950  0.00  0.00    +0.240 C 
ATOM     22  O   LIG    1        0.558  -0.282   1.674  0.00  0.00    -0.310 OA
ENDBRANCH   9  22
BRANCH  20  23
ATOM     23  O   LIG    1        1.192   0.652  -0.844  0.00  0.00    -0.490 OA
ATOM     24  H   LIG    1        2.070   1.030  -0.701  0.00  0.00    +0.390 HD
ENDBRANCH  20  23
ENDBRANCH   1  16
BRANCH   6  25
ATOM     25  N   LIG    1       -4.032  -9.524   4.253  0.00  0.00    -0.610 N 
ATOM     26  H   LIG    1       -4.655 -10.261   4.153  0.00  0.00    +0.430 HD
BRANCH  25  27
ATOM     27  C   LIG    1       -3.853  -8.925   5.503  0.00  0.00    +0.160 A 
ATOM     28  C   LIG    1       -3.071  -7.784   5.622  0.00  0.00    +0.020 A 
ATOM     29  C   LIG    1       -2.896  -7.194   6.859  0.00  0.00    +0.020 A 
ATOM     30  C   LIG    1       -3.499  -7.739   7.978  0.00  0.00    -0.020 A 
ATOM     31  C   LIG    1       -4.279  -8.875   7.862  0.00  0.00    +0.040 A 
ATOM     32  C   LIG    1       -4.462  -9.467   6.628  0.00  0.00    -0.120 A 
ATOM     33  C   LIG    1       -5.317 -10.701   6.503  0.00  0.00    +0.100 C 
ENDBRANCH  25  27
ENDBRANCH   6  25
TORSDOF 5
