REMARK  Name = ZINCkj000005hny7.1
REMARK                            x       y       z     vdW  Elec       q    Type
REMARK                         _______ _______ _______ _____ _____    ______ ____
ROOT
ATOM      1  C   LIG    1       -1.245  -2.237   0.028  0.00  0.00    -0.130 A 
ATOM      2  C   LIG    1       -0.381  -2.936  -0.818  0.00  0.00    +0.120 A 
ATOM      3  C   LIG    1       -0.364  -4.314  -0.800  0.00  0.00    +0.080 A 
ATOM      4  C   LIG    1       -1.203  -5.012   0.057  0.00  0.00    +0.060 A 
ATOM      5  O   LIG    1       -1.372  -6.349   0.261  0.00  0.00    -0.280 OA
ATOM      6  C   LIG    1       -2.635  -6.479   0.942  0.00  0.00    +0.570 C 
ATOM      7  O   LIG    1       -2.779  -5.227   1.638  0.00  0.00    -0.280 OA
ATOM      8  F   LIG    1       -2.598  -7.546   1.846  0.00  0.00    -0.110 F 
ATOM      9  F   LIG    1       -3.674  -6.652   0.021  0.00  0.00    -0.150 F 
ATOM     10  C   LIG    1       -2.069  -4.319   0.905  0.00  0.00    +0.030 A 
ATOM     11  C   LIG    1       -2.090  -2.939   0.892  0.00  0.00    +0.080 A 
ENDROOT
BRANCH   1  18
ATOM     12  C   LIG    1       -5.588   1.562  -2.272  0.00  0.00    +0.330 C 
ATOM     13  N   LIG    1       -4.693   1.110  -1.198  0.00  0.00    -0.390 N 
ATOM     14  C   LIG    1       -4.556  -0.351  -1.259  0.00  0.00    +0.270 C 
ATOM     15  C   LIG    1       -3.716  -0.834  -0.072  0.00  0.00    +0.310 C 
ATOM     16  N   LIG    1       -2.439  -0.104  -0.078  0.00  0.00    -0.630 N 
ATOM     17  C   LIG    1       -2.479   1.363  -0.175  0.00  0.00    +0.330 C 
ATOM     18  C   LIG    1       -1.265  -0.761   0.010  0.00  0.00    +0.580 C 
ATOM     19  O   LIG    1       -0.223  -0.138   0.073  0.00  0.00    -0.490 OA
ATOM     20  C   LIG    1       -3.377   1.742  -1.362  0.00  0.00    +0.270 C 
ATOM     21  H   LIG    1       -5.082   1.374  -0.305  0.00  0.00    +0.430 HD
ENDBRANCH   1  18
TORSDOF 1
