REMARK  Name = ZINCrH000004vC4w.0
REMARK                            x       y       z     vdW  Elec       q    Type
REMARK                         _______ _______ _______ _____ _____    ______ ____
ROOT
ATOM      1  O   LIG    1        1.248   5.693  -0.057  0.00  0.00    -0.520 OA
ATOM      2  C   LIG    1        0.148   5.183   0.035  0.00  0.00    +0.570 C 
ATOM      3  N   LIG    1       -0.946   5.960   0.159  0.00  0.00    -0.610 N 
ATOM      4  C   LIG    1       -2.316   5.480   0.391  0.00  0.00    +0.250 C 
ATOM      5  C   LIG    1       -3.235   6.719   0.437  0.00  0.00    +0.050 C 
ATOM      6  C   LIG    1       -2.416   7.787  -0.335  0.00  0.00    +0.050 C 
ATOM      7  C   LIG    1       -0.967   7.432   0.090  0.00  0.00    +0.270 C 
ENDROOT
BRANCH   6   8
ATOM      8  C   LIG    1       -2.784   9.178   0.113  0.00  0.00    -0.150 A 
ATOM      9  C   LIG    1       -2.615   9.546   1.436  0.00  0.00    +0.130 A 
ATOM     10  C   LIG    1       -2.949  10.826   1.846  0.00  0.00    -0.010 A 
ATOM     11  C   LIG    1       -3.461  11.732   0.937  0.00  0.00    +0.090 A 
ATOM     12  C   LIG    1       -3.635  11.364  -0.384  0.00  0.00    -0.010 A 
ATOM     13  F   LIG    1       -2.119   8.659   2.327  0.00  0.00    -0.120 F 
ATOM     14  C   LIG    1       -3.297  10.086  -0.797  0.00  0.00    +0.140 A 
ATOM     15  F   LIG    1       -3.468   9.726  -2.088  0.00  0.00    -0.130 F 
ENDBRANCH   6   8
BRANCH   2  16
ATOM     16  C   LIG    1        0.011   3.711   0.011  0.00  0.00    -0.100 A 
ATOM     17  C   LIG    1       -1.222   3.118   0.288  0.00  0.00    +0.010 A 
ATOM     18  C   LIG    1       -1.348   1.744   0.260  0.00  0.00    +0.030 A 
ATOM     19  C   LIG    1       -0.255   0.951  -0.032  0.00  0.00    +0.000 A 
ATOM     20  C   LIG    1        0.977   1.531  -0.310  0.00  0.00    +0.160 A 
ATOM     21  C   LIG    1        1.113   2.910  -0.289  0.00  0.00    +0.070 A 
BRANCH  20  22
ATOM     22  N   LIG    1        2.079   0.724  -0.610  0.00  0.00    -0.560 N 
ATOM     23  C   LIG    1        2.078  -0.742  -0.533  0.00  0.00    +0.260 C 
ATOM     24  C   LIG    1        3.566  -1.156  -0.518  0.00  0.00    +0.060 C 
ATOM     25  C   LIG    1        4.234   0.041  -1.234  0.00  0.00    +0.070 C 
ATOM     26  C   LIG    1        3.274   1.190  -1.012  0.00  0.00    +0.510 C 
ATOM     27  O   LIG    1        3.545   2.362  -1.172  0.00  0.00    -0.500 OA
ENDBRANCH  20  22
ENDBRANCH   2  16
TORSDOF 3
