REMARK  Name = ZINCvU00000009N9.0
REMARK                            x       y       z     vdW  Elec       q    Type
REMARK                         _______ _______ _______ _____ _____    ______ ____
ROOT
ATOM      1  C   LIG    1        4.387  -0.339   0.612  0.00  0.00    -0.210 A 
ATOM      2  C   LIG    1        5.676  -0.025   0.360  0.00  0.00    +0.250 A 
ATOM      3  N   LIG    1        5.690   1.092  -0.414  0.00  0.00    -0.310 N 
ATOM      4  N   LIG    1        4.364   1.474  -0.650  0.00  0.00    -0.250 NA
ATOM      5  C   LIG    1        3.574   0.619  -0.030  0.00  0.00    +0.170 A 
ENDROOT
BRANCH   1  12
ATOM      6  C   LIG    1        6.686  -1.951   4.090  0.00  0.00    +0.130 C 
ATOM      7  C   LIG    1        5.596  -1.308   3.272  0.00  0.00    +0.550 C 
ATOM      8  N   LIG    1        4.978  -2.010   2.301  0.00  0.00    -0.470 N 
ATOM      9  N   LIG    1        5.254  -3.332   1.957  0.00  0.00    -0.230 NA
ATOM     10  C   LIG    1        4.529  -3.787   0.995  0.00  0.00    +0.140 C 
ATOM     11  C   LIG    1        3.578  -2.710   0.526  0.00  0.00    +0.100 C 
ATOM     12  C   LIG    1        3.903  -1.507   1.433  0.00  0.00    +0.290 C 
ATOM     13  O   LIG    1        5.274  -0.159   3.487  0.00  0.00    -0.510 OA
BRANCH  10  14
ATOM     14  C   LIG    1        4.615  -5.149   0.435  0.00  0.00    -0.020 A 
ATOM     15  C   LIG    1        3.771  -5.533  -0.609  0.00  0.00    +0.060 A 
ATOM     16  C   LIG    1        3.860  -6.807  -1.131  0.00  0.00    +0.030 A 
ATOM     17  C   LIG    1        4.775  -7.707  -0.616  0.00  0.00    +0.050 A 
ATOM     18  C   LIG    1        5.612  -7.336   0.423  0.00  0.00    -0.040 A 
ATOM     19 CL   LIG    1        6.757  -8.473   1.062  0.00  0.00    -0.060 Cl
ATOM     20  C   LIG    1        5.537  -6.063   0.951  0.00  0.00    +0.070 A 
ENDBRANCH  10  14
ENDBRANCH   1  12
BRANCH   3  21
ATOM     21  C   LIG    1        6.832   1.744  -0.896  0.00  0.00    +0.160 A 
ATOM     22  C   LIG    1        8.095   1.256  -0.587  0.00  0.00    -0.010 A 
ATOM     23  C   LIG    1        9.219   1.898  -1.069  0.00  0.00    +0.050 A 
ATOM     24  C   LIG    1        9.088   3.031  -1.850  0.00  0.00    +0.010 A 
ATOM     25  C   LIG    1        7.832   3.523  -2.155  0.00  0.00    +0.050 A 
ATOM     26  C   LIG    1        6.704   2.882  -1.681  0.00  0.00    +0.020 A 
ENDBRANCH   3  21
BRANCH   5  27
ATOM     27  C   LIG    1        2.097   0.654  -0.014  0.00  0.00    +0.050 A 
ATOM     28  C   LIG    1        1.326   1.774  -0.001  0.00  0.00    -0.010 A 
ATOM     29  C   LIG    1       -0.016   1.343   0.009  0.00  0.00    -0.050 A 
ATOM     30  C   LIG    1        0.002  -0.004   0.002  0.00  0.00    +0.190 A 
ATOM     31  O   LIG    1        1.280  -0.417  -0.012  0.00  0.00    -0.170 OA
ENDBRANCH   5  27
TORSDOF 4
