REMARK  Name = ZINCkj00000GeTm2.1
REMARK                            x       y       z     vdW  Elec       q    Type
REMARK                         _______ _______ _______ _____ _____    ______ ____
ROOT
ATOM      1  N   LIG    1        1.883   6.841  -1.162  0.00  0.00    -0.380 N 
ATOM      2  C   LIG    1        3.282   6.473  -1.413  0.00  0.00    +0.250 C 
ATOM      3  C   LIG    1        3.383   5.710  -2.736  0.00  0.00    +0.060 C 
ATOM      4  C   LIG    1        2.876   6.602  -3.873  0.00  0.00    +0.060 C 
ATOM      5  C   LIG    1        1.442   7.041  -3.564  0.00  0.00    +0.090 C 
ATOM      6  C   LIG    1        1.414   7.753  -2.212  0.00  0.00    +0.280 C 
ATOM      7  H   LIG    1        1.812   7.297  -0.265  0.00  0.00    +0.430 HD
ENDROOT
BRANCH   5   8
ATOM      8  C   LIG    1        0.961   7.981  -4.639  0.00  0.00    +0.060 A 
ATOM      9  N   LIG    1       -0.260   8.056  -5.103  0.00  0.00    -0.280 NA
ATOM     10  N   LIG    1       -0.295   9.054  -6.085  0.00  0.00    -0.460 N 
ATOM     11  H   LIG    1       -1.074   9.325  -6.596  0.00  0.00    +0.450 HD
ATOM     12  C   LIG    1        0.948   9.567  -6.200  0.00  0.00    +0.270 A 
ATOM     13  C   LIG    1        1.744   8.921  -5.317  0.00  0.00    -0.120 A 
ENDBRANCH   5   8
BRANCH   1  14
ATOM     14  C   LIG    1        1.052   5.629  -1.161  0.00  0.00    +0.250 C 
BRANCH  14  15
ATOM     15  C   LIG    1        1.456   4.735   0.013  0.00  0.00    +0.350 C 
BRANCH  15  18
ATOM     16  C   LIG    1       -0.017   1.428   0.010  0.00  0.00    -0.160 A 
ATOM     17  C   LIG    1        1.082   2.262   0.004  0.00  0.00    +0.320 A 
ATOM     18  N   LIG    1        0.627   3.527   0.014  0.00  0.00    -0.380 N 
ATOM     19  N   LIG    1       -0.772   3.495   0.027  0.00  0.00    -0.290 NA
ATOM     20  C   LIG    1       -1.166   2.251   0.019  0.00  0.00    +0.330 A 
BRANCH  16  22
ATOM     21  N   LIG    1        0.018  -1.140  -0.004  0.00  0.00    -0.400 NA
ATOM     22  C   LIG    1        0.002  -0.004   0.002  0.00  0.00    +0.270 C 
ENDBRANCH  16  22
ENDBRANCH  15  18
ENDBRANCH  14  15
ENDBRANCH   1  14
TORSDOF 5
