REMARK  Name = ZINCkj00000GeTm2.0
REMARK                            x       y       z     vdW  Elec       q    Type
REMARK                         _______ _______ _______ _____ _____    ______ ____
ROOT
ATOM      1  N   LIG    1        1.882   6.840  -1.164  0.00  0.00    -0.380 N 
ATOM      2  C   LIG    1        1.599   7.628   0.042  0.00  0.00    +0.250 C 
ATOM      3  C   LIG    1        2.519   8.850   0.085  0.00  0.00    +0.070 C 
ATOM      4  C   LIG    1        2.276   9.710  -1.158  0.00  0.00    +0.060 C 
ATOM      5  C   LIG    1        2.502   8.857  -2.409  0.00  0.00    +0.090 C 
ATOM      6  C   LIG    1        1.582   7.635  -2.361  0.00  0.00    +0.270 C 
ATOM      7  H   LIG    1        2.857   6.579  -1.172  0.00  0.00    +0.420 HD
ENDROOT
BRANCH   5   8
ATOM      8  C   LIG    1        2.192   9.673  -3.638  0.00  0.00    +0.060 A 
ATOM      9  N   LIG    1        2.811   9.595  -4.788  0.00  0.00    -0.280 NA
ATOM     10  N   LIG    1        2.224  10.516  -5.665  0.00  0.00    -0.460 N 
ATOM     11  H   LIG    1        2.483  10.672  -6.586  0.00  0.00    +0.450 HD
ATOM     12  C   LIG    1        1.232  11.147  -5.002  0.00  0.00    +0.270 A 
ATOM     13  C   LIG    1        1.188  10.641  -3.747  0.00  0.00    -0.120 A 
ENDBRANCH   5   8
BRANCH   1  14
ATOM     14  C   LIG    1        1.051   5.629  -1.162  0.00  0.00    +0.270 C 
BRANCH  14  15
ATOM     15  C   LIG    1        1.456   4.735   0.012  0.00  0.00    +0.350 C 
BRANCH  15  18
ATOM     16  C   LIG    1       -0.017   1.428   0.010  0.00  0.00    -0.160 A 
ATOM     17  C   LIG    1        1.082   2.262   0.004  0.00  0.00    +0.330 A 
ATOM     18  N   LIG    1        0.627   3.527   0.014  0.00  0.00    -0.380 N 
ATOM     19  N   LIG    1       -0.772   3.495   0.027  0.00  0.00    -0.290 NA
ATOM     20  C   LIG    1       -1.166   2.251   0.019  0.00  0.00    +0.330 A 
BRANCH  16  22
ATOM     21  N   LIG    1        0.018  -1.140  -0.004  0.00  0.00    -0.400 NA
ATOM     22  C   LIG    1        0.002  -0.004   0.002  0.00  0.00    +0.270 C 
ENDBRANCH  16  22
ENDBRANCH  15  18
ENDBRANCH  14  15
ENDBRANCH   1  14
TORSDOF 5
