REMARK  Name = ZINCpe00000VVGRi.0
REMARK                            x       y       z     vdW  Elec       q    Type
REMARK                         _______ _______ _______ _____ _____    ______ ____
ROOT
ATOM      1  N   LIG    1       -2.137   0.086   1.820  0.00  0.00    -0.520 N 
ATOM      2  H   LIG    1       -1.313  -0.417   1.923  0.00  0.00    +0.430 HD
ATOM      3  C   LIG    1       -2.091   1.398   1.517  0.00  0.00    +0.510 C 
ATOM      4  O   LIG    1       -3.115   2.046   1.472  0.00  0.00    -0.510 OA
ENDROOT
BRANCH   1   6
ATOM      5  C   LIG    1       -3.418  -1.865   2.287  0.00  0.00    +0.500 C 
ATOM      6  N   LIG    1       -3.373  -0.552   1.985  0.00  0.00    -0.520 N 
ATOM      7  H   LIG    1       -4.196  -0.050   1.882  0.00  0.00    +0.430 HD
ATOM      8  O   LIG    1       -2.389  -2.494   2.417  0.00  0.00    -0.520 OA
BRANCH   5   9
ATOM      9  C   LIG    1       -4.748  -2.551   2.465  0.00  0.00    +0.390 C 
BRANCH   9  16
ATOM     10  C   LIG    1       -4.443  -3.719   5.321  0.00  0.00    +0.150 C 
ATOM     11  C   LIG    1       -4.395  -4.485   4.024  0.00  0.00    +0.100 A 
ATOM     12  C   LIG    1       -4.210  -5.819   3.892  0.00  0.00    -0.120 A 
ATOM     13  C   LIG    1       -4.232  -6.124   2.527  0.00  0.00    +0.080 A 
ATOM     14  N   LIG    1       -4.429  -5.013   1.864  0.00  0.00    -0.290 NA
ATOM     15  C   LIG    1       -4.064  -7.495   1.925  0.00  0.00    +0.160 C 
ATOM     16  N   LIG    1       -4.529  -3.964   2.787  0.00  0.00    -0.360 N 
ENDBRANCH   9  16
ENDBRANCH   5   9
ENDBRANCH   1   6
BRANCH   3  17
ATOM     17  C   LIG    1       -0.767   2.061   1.236  0.00  0.00    +0.180 C 
BRANCH  17  18
ATOM     18  C   LIG    1       -0.160   1.468  -0.037  0.00  0.00    -0.030 C 
ATOM     19  C   LIG    1       -1.044   1.820  -1.236  0.00  0.00    +0.040 C 
ATOM     20  C   LIG    1        1.241   2.044  -0.251  0.00  0.00    +0.040 C 
ENDBRANCH  17  18
BRANCH  17  21
ATOM     21  O   LIG    1       -0.965   3.465   1.060  0.00  0.00    -0.340 OA
BRANCH  21  22
ATOM     22  C   LIG    1       -0.015   4.278   1.751  0.00  0.00    +0.190 C 
BRANCH  22  23
ATOM     23  C   LIG    1       -0.394   5.752   1.595  0.00  0.00    +0.160 C 
ATOM     24  C   LIG    1        0.687   6.655   2.228  0.00  0.00    +0.010 C 
ATOM     25  C   LIG    1       -0.115   7.813   2.862  0.00  0.00    +0.000 C 
ATOM     26  C   LIG    1       -1.587   7.472   2.538  0.00  0.00    +0.190 C 
ATOM     27  O   LIG    1       -1.598   6.042   2.338  0.00  0.00    -0.360 OA
ENDBRANCH  22  23
ENDBRANCH  21  22
ENDBRANCH  17  21
ENDBRANCH   3  17
TORSDOF 8
