REMARK  Name = ZINCpe00000VVGRI.2
REMARK                            x       y       z     vdW  Elec       q    Type
REMARK                         _______ _______ _______ _____ _____    ______ ____
ROOT
ATOM      1  C   LIG    1        3.486   1.790   1.207  0.00  0.00    +0.040 C 
ATOM      2  C   LIG    1        4.248   1.436  -0.073  0.00  0.00    +0.000 C 
ATOM      3  C   LIG    1        3.431   1.890  -1.286  0.00  0.00    +0.040 C 
ATOM      4  C   LIG    1        2.054   1.224  -1.245  0.00  0.00    +0.170 C 
ATOM      5  N   LIG    1        1.365   1.594  -0.002  0.00  0.00    -0.510 NA
ATOM      6  C   LIG    1        2.108   1.127   1.175  0.00  0.00    +0.200 C 
ENDROOT
BRANCH   1  12
ATOM      7  C   LIG    1        7.968   0.975   2.355  0.00  0.00    +0.340 C 
ATOM      8  N   LIG    1        6.508   0.848   2.364  0.00  0.00    -0.580 N 
ATOM      9  C   LIG    1        5.855  -0.317   2.287  0.00  0.00    +0.700 C 
ATOM     10  N   LIG    1        4.516  -0.161   2.317  0.00  0.00    -0.720 N 
ATOM     11  H   LIG    1        3.847  -0.862   2.276  0.00  0.00    +0.440 HD
ATOM     12  C   LIG    1        4.267   1.287   2.423  0.00  0.00    +0.130 C 
ATOM     13  C   LIG    1        3.515   1.611   3.716  0.00  0.00    +0.090 C 
ATOM     14  O   LIG    1        6.406  -1.397   2.202  0.00  0.00    -0.540 OA
ATOM     15  C   LIG    1        5.658   1.890   2.450  0.00  0.00    +0.530 C 
ATOM     16  O   LIG    1        5.946   3.064   2.532  0.00  0.00    -0.460 OA
ENDBRANCH   1  12
BRANCH   5  17
ATOM     17  C   LIG    1       -0.013   1.086   0.008  0.00  0.00    +0.180 C 
BRANCH  17  18
ATOM     18  C   LIG    1       -0.742   1.585  -1.213  0.00  0.00    -0.090 A 
ATOM     19  C   LIG    1       -0.551   2.883  -1.649  0.00  0.00    +0.050 A 
ATOM     20  C   LIG    1       -1.217   3.340  -2.771  0.00  0.00    +0.000 A 
ATOM     21  C   LIG    1       -2.079   2.501  -3.452  0.00  0.00    +0.010 A 
ATOM     22  C   LIG    1       -2.273   1.205  -3.014  0.00  0.00    +0.000 A 
ATOM     23  C   LIG    1       -1.605   0.747  -1.893  0.00  0.00    +0.010 A 
ENDBRANCH  17  18
BRANCH  17  24
ATOM     24  C   LIG    1       -0.718   1.572   1.248  0.00  0.00    +0.530 C 
ATOM     25  O   LIG    1       -0.131   2.273   2.044  0.00  0.00    -0.520 OA
ATOM     26  N   LIG    1       -2.002   1.228   1.472  0.00  0.00    -0.850 N 
ATOM     27  H   LIG    1       -2.456   1.540   2.270  0.00  0.00    +0.410 HD
ATOM     28  H   LIG    1       -2.472   0.667   0.835  0.00  0.00    +0.400 HD
ENDBRANCH  17  24
ENDBRANCH   5  17
TORSDOF 4
