REMARK  Name = ZINCkj000005hrcB.2
REMARK                            x       y       z     vdW  Elec       q    Type
REMARK                         _______ _______ _______ _____ _____    ______ ____
ROOT
ATOM      1  C   LIG    1       -1.290   1.681   0.017  0.00  0.00    +0.310 C 
ATOM      2  C   LIG    1       -2.373   0.795  -0.599  0.00  0.00    +0.270 C 
ATOM      3  N   LIG    1       -3.680   1.434  -0.386  0.00  0.00    -0.380 N 
ATOM      4  C   LIG    1       -4.044   1.315   1.029  0.00  0.00    +0.330 C 
ATOM      5  C   LIG    1       -2.946   1.858   1.906  0.00  0.00    -0.130 A 
ATOM      6  C   LIG    1       -3.248   2.191   3.217  0.00  0.00    +0.030 A 
ATOM      7  C   LIG    1       -2.269   2.687   4.055  0.00  0.00    +0.040 A 
ATOM      8  C   LIG    1       -0.980   2.852   3.585  0.00  0.00    +0.030 A 
ATOM      9  C   LIG    1       -0.677   2.522   2.279  0.00  0.00    +0.060 A 
ATOM     10  C   LIG    1       -4.696   0.769  -1.212  0.00  0.00    +0.330 C 
ATOM     11  H   LIG    1       -3.624   2.409  -0.639  0.00  0.00    +0.430 HD
ATOM     12  C   LIG    1       -1.660   2.026   1.437  0.00  0.00    -0.110 A 
ENDROOT
BRANCH   1  13
ATOM     13  N   LIG    1       -0.011   0.966   0.007  0.00  0.00    -0.690 N 
ATOM     14  H   LIG    1        0.002  -0.004   0.002  0.00  0.00    +0.420 HD
BRANCH  13  20
ATOM     15  C   LIG    1        4.912   1.044  -0.040  0.00  0.00    +0.340 C 
ATOM     16  N   LIG    1        3.604   1.703  -0.023  0.00  0.00    -0.480 N 
ATOM     17  C   LIG    1        3.517   3.063  -0.015  0.00  0.00    +0.210 A 
ATOM     18  C   LIG    1        2.316   3.680  -0.000  0.00  0.00    +0.180 A 
ATOM     19  N   LIG    1        1.174   2.992   0.002  0.00  0.00    -0.480 NA
ATOM     20  C   LIG    1        1.182   1.676  -0.000  0.00  0.00    +0.330 A 
ATOM     21  C   LIG    1        2.468   0.970  -0.016  0.00  0.00    +0.480 A 
ATOM     22  O   LIG    1        2.511  -0.248  -0.024  0.00  0.00    -0.520 OA
ENDBRANCH  13  20
ENDBRANCH   1  13
TORSDOF 2
