REMARK  Name = ZINCkj000005hrcB.1
REMARK                            x       y       z     vdW  Elec       q    Type
REMARK                         _______ _______ _______ _____ _____    ______ ____
ROOT
ATOM      1  C   LIG    1       -2.863   1.787   2.316  0.00  0.00    +0.330 C 
ATOM      2  C   LIG    1       -2.079   1.048   1.231  0.00  0.00    +0.290 C 
ATOM      3  N   LIG    1       -0.700   1.560   1.217  0.00  0.00    -0.390 N 
ATOM      4  C   LIG    1        0.005   1.071   2.405  0.00  0.00    +0.330 C 
ATOM      5  C   LIG    1       -0.763   1.413   3.655  0.00  0.00    -0.130 A 
ATOM      6  C   LIG    1       -0.097   1.389   4.870  0.00  0.00    +0.030 A 
ATOM      7  C   LIG    1       -0.766   1.693   6.039  0.00  0.00    +0.040 A 
ATOM      8  C   LIG    1       -2.107   2.023   5.999  0.00  0.00    +0.030 A 
ATOM      9  C   LIG    1       -2.773   2.048   4.789  0.00  0.00    +0.070 A 
ATOM     10  C   LIG    1       -0.013   1.086   0.008  0.00  0.00    +0.340 C 
ATOM     11  H   LIG    1       -0.715   2.568   1.223  0.00  0.00    +0.420 HD
ATOM     12  C   LIG    1       -2.101   1.744   3.616  0.00  0.00    -0.110 A 
ENDROOT
BRANCH   1  13
ATOM     13  N   LIG    1       -3.055   3.181   1.909  0.00  0.00    -0.710 N 
ATOM     14  H   LIG    1       -2.433   3.596   1.291  0.00  0.00    +0.410 HD
BRANCH  13  20
ATOM     15  C   LIG    1       -5.629   7.372   2.147  0.00  0.00    +0.340 C 
ATOM     16  N   LIG    1       -5.386   5.976   2.517  0.00  0.00    -0.480 N 
ATOM     17  C   LIG    1       -6.223   5.334   3.381  0.00  0.00    +0.210 A 
ATOM     18  C   LIG    1       -6.008   4.048   3.728  0.00  0.00    +0.180 A 
ATOM     19  N   LIG    1       -4.976   3.355   3.246  0.00  0.00    -0.480 NA
ATOM     20  C   LIG    1       -4.127   3.909   2.407  0.00  0.00    +0.330 A 
ATOM     21  C   LIG    1       -4.325   5.308   2.011  0.00  0.00    +0.480 A 
ATOM     22  O   LIG    1       -3.554   5.854   1.240  0.00  0.00    -0.530 OA
ENDBRANCH  13  20
ENDBRANCH   1  13
TORSDOF 2
