REMARK  Name = ZINCrH000004rSQo.0
REMARK                            x       y       z     vdW  Elec       q    Type
REMARK                         _______ _______ _______ _____ _____    ______ ____
ROOT
ATOM      1  C   LIG    1        5.534   1.942  -3.499  0.00  0.00    +0.210 A 
ATOM      2  C   LIG    1        6.128   1.655  -4.721  0.00  0.00    +0.000 A 
ATOM      3  C   LIG    1        5.569   0.710  -5.557  0.00  0.00    +0.050 A 
ATOM      4  C   LIG    1        4.416   0.038  -5.184  0.00  0.00    +0.000 A 
ATOM      5  C   LIG    1        3.815   0.305  -3.973  0.00  0.00    +0.050 A 
ATOM      6  C   LIG    1        4.369   1.259  -3.116  0.00  0.00    -0.140 A 
ENDROOT
BRANCH   6   7
ATOM      7  C   LIG    1        3.731   1.550  -1.819  0.00  0.00    +0.560 C 
ATOM      8  N   LIG    1        2.576   0.942  -1.484  0.00  0.00    -0.720 N 
ATOM      9  H   LIG    1        2.165   0.312  -2.096  0.00  0.00    +0.400 HD
ATOM     10  O   LIG    1        4.247   2.340  -1.051  0.00  0.00    -0.490 OA
BRANCH   8  11
ATOM     11  C   LIG    1        1.942   1.231  -0.196  0.00  0.00    +0.240 C 
ATOM     12  C   LIG    1        1.053   0.046   0.248  0.00  0.00    +0.060 C 
ATOM     13  C   LIG    1       -0.331   0.471  -0.293  0.00  0.00    +0.250 C 
ATOM     14  N   LIG    1       -0.286   1.936  -0.375  0.00  0.00    -0.620 N 
ATOM     15  C   LIG    1        0.978   2.389  -0.328  0.00  0.00    +0.510 C 
ATOM     16  O   LIG    1        1.300   3.558  -0.384  0.00  0.00    -0.500 OA
BRANCH  14  17
ATOM     17  C   LIG    1       -1.468   2.793  -0.498  0.00  0.00    +0.240 C 
ATOM     18  C   LIG    1       -1.378   3.603  -1.793  0.00  0.00    +0.020 C 
ATOM     19  C   LIG    1       -1.533   3.746   0.696  0.00  0.00    +0.030 C 
ENDBRANCH  14  17
ENDBRANCH   8  11
ENDBRANCH   6   7
BRANCH   1  20
ATOM     20  N   LIG    1        6.092   2.897  -2.658  0.00  0.00    -0.690 N 
ATOM     21  H   LIG    1        5.919   3.839  -2.812  0.00  0.00    +0.410 HD
BRANCH  20  27
ATOM     22  C   LIG    1        8.681   4.070   1.351  0.00  0.00    +0.090 C 
ATOM     23  C   LIG    1        8.173   3.048   0.368  0.00  0.00    -0.040 A 
ATOM     24  C   LIG    1        8.510   1.716   0.520  0.00  0.00    -0.050 A 
ATOM     25  C   LIG    1        8.046   0.775  -0.382  0.00  0.00    +0.040 A 
ATOM     26  C   LIG    1        7.244   1.163  -1.436  0.00  0.00    -0.080 A 
ATOM     27  C   LIG    1        6.903   2.501  -1.592  0.00  0.00    +0.250 A 
ATOM     28  C   LIG    1        7.375   3.444  -0.688  0.00  0.00    -0.150 A 
ATOM     29  C   LIG    1        7.013   4.897  -0.856  0.00  0.00    +0.090 C 
ENDBRANCH  20  27
ENDBRANCH   1  20
TORSDOF 5
