REMARK  Name = ZINCnE000001SekM.1
REMARK                            x       y       z     vdW  Elec       q    Type
REMARK                         _______ _______ _______ _____ _____    ______ ____
ROOT
ATOM      1  C   LIG    1       -2.384   1.155   0.020  0.00  0.00    +0.380 A 
ATOM      2  N   LIG    1       -3.570   1.681   0.028  0.00  0.00    -0.550 NA
ATOM      3  C   LIG    1       -4.599   0.845   0.029  0.00  0.00    +0.120 A 
ATOM      4  C   LIG    1       -4.280  -0.461   0.020  0.00  0.00    -0.180 A 
ATOM      5  S   LIG    1       -2.523  -0.600   0.003  0.00  0.00    -0.010 S 
ENDROOT
BRANCH   3   6
ATOM      6  C   LIG    1       -6.004   1.319   0.037  0.00  0.00    +0.030 A 
ATOM      7  C   LIG    1       -6.282   2.684   0.046  0.00  0.00    +0.040 A 
ATOM      8  C   LIG    1       -7.592   3.121   0.054  0.00  0.00    +0.030 A 
ATOM      9  C   LIG    1       -8.629   2.206   0.053  0.00  0.00    -0.040 A 
ATOM     10  C   LIG    1       -8.359   0.847   0.044  0.00  0.00    +0.090 A 
ATOM     11  F   LIG    1       -9.377  -0.043   0.044  0.00  0.00    -0.150 F 
ATOM     12  C   LIG    1       -7.052   0.399   0.031  0.00  0.00    -0.020 A 
ENDBRANCH   3   6
BRANCH   1  15
ATOM     13  O   LIG    1        0.002  -0.004   0.002  0.00  0.00    -0.610 OA
ATOM     14  C   LIG    1       -0.014   1.209   0.009  0.00  0.00    +0.460 C 
ATOM     15  N   LIG    1       -1.191   1.867   0.018  0.00  0.00    -0.660 NA
BRANCH  14  16
ATOM     16  C   LIG    1        1.280   1.980   0.001  0.00  0.00    +0.040 C 
BRANCH  16  17
ATOM     17  C   LIG    1        2.457   1.002  -0.016  0.00  0.00    +0.310 C 
BRANCH  17  18
ATOM     18  N   LIG    1        3.715   1.751  -0.024  0.00  0.00    -0.610 N 
ATOM     19  C   LIG    1        4.338   2.130  -1.272  0.00  0.00    +0.280 C 
ATOM     20  C   LIG    1        5.641   2.909  -1.043  0.00  0.00    +0.140 C 
ATOM     21  S   LIG    1        5.795   2.980   0.770  0.00  0.00    -0.200 S 
ATOM     22  C   LIG    1        4.308   2.091   1.117  0.00  0.00    +0.550 C 
ATOM     23  O   LIG    1        3.891   1.830   2.229  0.00  0.00    -0.480 OA
ENDBRANCH  17  18
ENDBRANCH  16  17
ENDBRANCH  14  16
ENDBRANCH   1  15
TORSDOF 5
