REMARK  Name = ZINCrD000003etRH.0
REMARK                            x       y       z     vdW  Elec       q    Type
REMARK                         _______ _______ _______ _____ _____    ______ ____
ROOT
ATOM      1  C   LIG    1        2.781   1.806   4.460  0.00  0.00    +0.560 C 
ATOM      2  N   LIG    1        1.876   1.103   3.752  0.00  0.00    -0.600 N 
ATOM      3  C   LIG    1        1.547  -0.281   4.122  0.00  0.00    +0.260 C 
ATOM      4  C   LIG    1        0.029  -0.398   4.293  0.00  0.00    +0.020 C 
ATOM      5  C   LIG    1       -0.663   0.094   3.019  0.00  0.00    +0.040 C 
ATOM      6  C   LIG    1       -0.316   1.565   2.783  0.00  0.00    +0.160 C 
ATOM      7  C   LIG    1        1.198   1.705   2.595  0.00  0.00    +0.240 C 
ATOM      8  O   LIG    1        3.096   2.925   4.103  0.00  0.00    -0.530 OA
ENDROOT
BRANCH   1  12
ATOM      9  C   LIG    1        4.539   0.114   7.936  0.00  0.00    +0.110 A 
ATOM     10  C   LIG    1        4.530  -0.603   6.745  0.00  0.00    -0.100 A 
ATOM     11  C   LIG    1        3.962  -0.057   5.615  0.00  0.00    +0.040 A 
ATOM     12  C   LIG    1        3.392   1.218   5.668  0.00  0.00    -0.120 A 
ATOM     13  C   LIG    1        3.406   1.936   6.866  0.00  0.00    +0.070 A 
ATOM     14  C   LIG    1        5.145  -1.977   6.689  0.00  0.00    +0.110 C 
ATOM     15  C   LIG    1        3.973   1.382   7.993  0.00  0.00    -0.100 A 
ATOM     16  C   LIG    1        3.985   2.154   9.287  0.00  0.00    +0.110 C 
BRANCH   9  18
ATOM     17  C   LIG    1        6.490  -0.172   9.261  0.00  0.00    +0.240 C 
ATOM     18  O   LIG    1        5.101  -0.427   9.047  0.00  0.00    -0.330 OA
ENDBRANCH   9  18
ENDBRANCH   1  12
BRANCH   6  19
ATOM     19  N   LIG    1       -1.006   2.045   1.578  0.00  0.00    -0.520 NA
ATOM     20  C   LIG    1       -0.586   1.284   0.394  0.00  0.00    +0.190 C 
BRANCH  19  21
ATOM     21  C   LIG    1       -0.787   3.485   1.384  0.00  0.00    +0.290 C 
BRANCH  21  22
ATOM     22  C   LIG    1       -1.697   3.989   0.294  0.00  0.00    +0.030 A 
ATOM     23  N   LIG    1       -1.431   4.047  -0.979  0.00  0.00    -0.360 NA
ATOM     24  O   LIG    1       -2.361   4.495  -1.608  0.00  0.00    +0.100 OA
ATOM     25  C   LIG    1       -3.390   4.810  -0.809  0.00  0.00    +0.150 A 
ATOM     26  C   LIG    1       -3.007   4.497   0.452  0.00  0.00    -0.180 A 
ATOM     27  C   LIG    1       -3.794   4.653   1.727  0.00  0.00    +0.140 C 
ENDBRANCH  21  22
ENDBRANCH  19  21
ENDBRANCH   6  19
TORSDOF 5
