REMARK  Name = ZINCvU00000005tu.0
REMARK                            x       y       z     vdW  Elec       q    Type
REMARK                         _______ _______ _______ _____ _____    ______ ____
ROOT
ATOM      1  N   LIG    1       -6.040   5.913   0.294  0.00  0.00    -0.510 N 
ATOM      2  C   LIG    1       -7.219   5.277   0.379  0.00  0.00    +0.570 C 
ATOM      3  C   LIG    1       -7.291   3.810   0.380  0.00  0.00    -0.160 A 
ATOM      4  C   LIG    1       -8.512   3.142   0.469  0.00  0.00    +0.110 A 
ATOM      5  C   LIG    1       -8.538   1.764   0.466  0.00  0.00    -0.010 A 
ATOM      6  C   LIG    1       -7.362   1.033   0.376  0.00  0.00    +0.060 A 
ATOM      7  C   LIG    1       -6.143   1.675   0.288  0.00  0.00    -0.010 A 
ATOM      8  C   LIG    1       -6.097   3.063   0.289  0.00  0.00    +0.050 A 
ATOM      9  C   LIG    1       -4.819   3.800   0.197  0.00  0.00    -0.300 C 
ATOM     10  C   LIG    1       -3.619   3.129   0.106  0.00  0.00    +0.430 C 
ATOM     11  O   LIG    1       -8.245   5.926   0.457  0.00  0.00    -0.490 OA
ATOM     12  C   LIG    1       -4.866   5.266   0.212  0.00  0.00    +0.580 C 
ATOM     13  O   LIG    1       -3.830   5.903   0.143  0.00  0.00    -0.520 OA
ENDROOT
BRANCH   1  18
ATOM     14  C   LIG    1       -6.014  11.588   0.311  0.00  0.00    +0.090 C 
ATOM     15  C   LIG    1       -6.021  10.081   0.307  0.00  0.00    -0.070 A 
ATOM     16  C   LIG    1       -5.624   9.393  -0.825  0.00  0.00    +0.020 A 
ATOM     17  C   LIG    1       -5.630   8.011  -0.833  0.00  0.00    +0.030 A 
ATOM     18  C   LIG    1       -6.033   7.314   0.298  0.00  0.00    +0.110 A 
ATOM     19  C   LIG    1       -6.436   8.008   1.431  0.00  0.00    +0.030 A 
ATOM     20  C   LIG    1       -6.424   9.389   1.434  0.00  0.00    +0.020 A 
ENDBRANCH   1  18
BRANCH  10  21
ATOM     21  N   LIG    1       -2.449   3.819   0.161  0.00  0.00    -0.620 N 
ATOM     22  H   LIG    1       -2.458   4.789   0.186  0.00  0.00    +0.430 HD
BRANCH  21  23
ATOM     23  C   LIG    1       -1.233   3.131   0.183  0.00  0.00    +0.150 A 
ATOM     24  C   LIG    1       -1.217   1.743   0.142  0.00  0.00    +0.000 A 
ATOM     25  C   LIG    1       -0.014   1.066   0.168  0.00  0.00    +0.070 A 
ATOM     26  C   LIG    1        1.176   1.769   0.224  0.00  0.00    +0.050 A 
ATOM     27  C   LIG    1        1.164   3.152   0.260  0.00  0.00    -0.140 A 
ATOM     28  C   LIG    1       -0.036   3.835   0.239  0.00  0.00    +0.040 A 
BRANCH  27  29
ATOM     29  C   LIG    1        2.463   3.914   0.322  0.00  0.00    +0.510 C 
ATOM     30  F   LIG    1        2.494   4.689   1.486  0.00  0.00    -0.170 F 
ATOM     31  F   LIG    1        2.567   4.749  -0.796  0.00  0.00    -0.170 F 
ATOM     32  F   LIG    1        3.533   3.013   0.332  0.00  0.00    -0.170 F 
ENDBRANCH  27  29
ENDBRANCH  21  23
ENDBRANCH  10  21
TORSDOF 4
