REMARK  Name = ZINCrH000004pSrY.0
REMARK                            x       y       z     vdW  Elec       q    Type
REMARK                         _______ _______ _______ _____ _____    ______ ____
ROOT
ATOM      1  C   LIG    1        3.681   0.936   4.566  0.00  0.00    -0.140 A 
ATOM      2  C   LIG    1        3.289   2.112   5.208  0.00  0.00    +0.100 A 
ATOM      3  C   LIG    1        2.888   3.200   4.461  0.00  0.00    +0.000 A 
ATOM      4  C   LIG    1        2.877   3.129   3.080  0.00  0.00    +0.150 A 
ATOM      5  C   LIG    1        3.259   1.964   2.438  0.00  0.00    -0.680 A 
ATOM      6  C   LIG    1        3.663   0.869   3.172  0.00  0.00    +0.180 A 
ENDROOT
BRANCH   1  13
ATOM      7  C   LIG    1        0.655  -1.296   5.542  0.00  0.00    +0.020 C 
ATOM      8  C   LIG    1        1.007  -0.794   6.944  0.00  0.00    -0.030 C 
ATOM      9  C   LIG    1        1.346  -1.985   7.843  0.00  0.00    +0.030 C 
ATOM     10  C   LIG    1        2.519  -2.762   7.241  0.00  0.00    -0.030 C 
ATOM     11  C   LIG    1        3.746  -1.849   7.164  0.00  0.00    +0.280 C 
ATOM     12  N   LIG    1        3.385  -0.633   6.423  0.00  0.00    -0.600 N 
ATOM     13  C   LIG    1        4.112  -0.235   5.360  0.00  0.00    +0.560 C 
ATOM     14  O   LIG    1        5.122  -0.838   5.054  0.00  0.00    -0.520 OA
ATOM     15  C   LIG    1        2.837  -3.972   8.123  0.00  0.00    +0.030 C 
ATOM     16  C   LIG    1        2.220   0.145   6.867  0.00  0.00    +0.260 C 
ENDBRANCH   1  13
BRANCH   5  17
ATOM     17  S   LIG    1        3.236   1.883   0.678  0.00  0.00    +2.690 S 
ATOM     18  O   LIG    1        3.332   3.222   0.212  0.00  0.00    -0.940 OA
ATOM     19  O   LIG    1        4.158   0.865   0.311  0.00  0.00    -0.940 OA
BRANCH  17  20
ATOM     20  N   LIG    1        1.737   1.339   0.232  0.00  0.00    -1.050 N 
ATOM     21  H   LIG    1        1.650   0.514  -0.271  0.00  0.00    +0.430 HD
BRANCH  20  22
ATOM     22  C   LIG    1        0.596   2.069   0.579  0.00  0.00    +0.120 A 
ATOM     23  C   LIG    1        0.638   3.456   0.599  0.00  0.00    +0.020 A 
ATOM     24  C   LIG    1       -0.491   4.176   0.942  0.00  0.00    +0.040 A 
ATOM     25  C   LIG    1       -1.662   3.516   1.266  0.00  0.00    +0.040 A 
ATOM     26  C   LIG    1       -1.710   2.133   1.242  0.00  0.00    +0.010 A 
ATOM     27  C   LIG    1       -0.583   1.407   0.905  0.00  0.00    +0.080 A 
ATOM     28  F   LIG    1       -0.628   0.057   0.888  0.00  0.00    -0.130 F 
ENDBRANCH  20  22
ENDBRANCH  17  20
ENDBRANCH   5  17
TORSDOF 4
