REMARK  Name = ZINCpk00001AZj68.0
REMARK                            x       y       z     vdW  Elec       q    Type
REMARK                         _______ _______ _______ _____ _____    ______ ____
ROOT
ATOM      1  N   LIG    1        2.030   2.456   1.633  0.00  0.00    -0.520 NA
ENDROOT
BRANCH   1   2
ATOM      2  C   LIG    1        2.911   3.613   1.843  0.00  0.00    +0.310 C 
BRANCH   2   6
ATOM      3  C   LIG    1        1.397   6.544   0.344  0.00  0.00    +0.410 A 
ATOM      4  N   LIG    1        0.939   6.697   1.563  0.00  0.00    -0.350 NA
ATOM      5  N   LIG    1        1.433   5.623   2.320  0.00  0.00    -0.360 N 
ATOM      6  C   LIG    1        2.174   4.877   1.484  0.00  0.00    +0.310 A 
ATOM      7  C   LIG    1        1.190   5.366   3.742  0.00  0.00    +0.370 C 
ATOM      8  N   LIG    1        2.150   5.442   0.303  0.00  0.00    -0.520 NA
BRANCH   3  10
ATOM      9  C   LIG    1        0.321   8.508  -0.451  0.00  0.00    +0.270 C 
ATOM     10  O   LIG    1        1.151   7.373  -0.703  0.00  0.00    -0.280 OA
ENDBRANCH   3  10
ENDBRANCH   2   6
ENDBRANCH   1   2
BRANCH   1  11
ATOM     11  C   LIG    1        0.898   2.479   2.569  0.00  0.00    +0.170 C 
BRANCH  11  12
ATOM     12  C   LIG    1       -0.302   1.774   1.935  0.00  0.00    +0.180 C 
BRANCH  12  13
ATOM     13  O   LIG    1       -0.756   2.527   0.808  0.00  0.00    -0.370 OA
ATOM     14  C   LIG    1       -0.218   2.085  -0.440  0.00  0.00    +0.200 C 
ENDBRANCH  12  13
BRANCH  12  15
ATOM     15  C   LIG    1       -1.431   1.665   2.962  0.00  0.00    +0.180 C 
BRANCH  15  16
ATOM     16  O   LIG    1       -1.737   2.964   3.473  0.00  0.00    -0.560 OA
ATOM     17  H   LIG    1       -2.446   2.970   4.131  0.00  0.00    +0.380 HD
ENDBRANCH  15  16
ENDBRANCH  12  15
ENDBRANCH  11  12
ENDBRANCH   1  11
BRANCH   1  18
ATOM     18  C   LIG    1        2.779   1.197   1.744  0.00  0.00    +0.230 C 
BRANCH  18  19
ATOM     19  C   LIG    1        2.030   0.102   1.028  0.00  0.00    -0.080 A 
ATOM     20  C   LIG    1        2.110  -0.003  -0.347  0.00  0.00    +0.040 A 
ATOM     21  C   LIG    1        1.423  -1.008  -1.004  0.00  0.00    +0.000 A 
ATOM     22  C   LIG    1        0.658  -1.906  -0.285  0.00  0.00    -0.080 A 
ATOM     23  C   LIG    1        0.579  -1.800   1.091  0.00  0.00    -0.090 A 
ATOM     24  C   LIG    1       -0.256  -2.780   1.876  0.00  0.00    +0.080 C 
ATOM     25  C   LIG    1       -0.090  -3.001  -1.001  0.00  0.00    +0.090 C 
ATOM     26  C   LIG    1        1.269  -0.799   1.748  0.00  0.00    +0.010 A 
ENDBRANCH  18  19
ENDBRANCH   1  18
TORSDOF 10
