REMARK  Name = ZINCtV00001bB3ni.0
REMARK                            x       y       z     vdW  Elec       q    Type
REMARK                         _______ _______ _______ _____ _____    ______ ____
ROOT
ATOM      1  N   LIG    1        4.125   4.966  -5.247  0.00  0.00    -0.580 N 
ATOM      2  H   LIG    1        4.951   5.459  -5.373  0.00  0.00    +0.380 HD
ATOM      3  C   LIG    1        3.684   4.697  -4.002  0.00  0.00    +0.580 C 
ATOM      4  O   LIG    1        2.648   4.079  -3.844  0.00  0.00    -0.480 OA
ENDROOT
BRANCH   1  10
ATOM      5  C   LIG    1        3.162   4.409  -8.811  0.00  0.00    -0.080 C 
ATOM      6  C   LIG    1        3.836   4.816  -9.873  0.00  0.00    +0.030 C 
ATOM      7  C   LIG    1        5.082   5.557  -9.458  0.00  0.00    +0.080 C 
ATOM      8  C   LIG    1        5.074   5.553  -7.920  0.00  0.00    +0.050 C 
ATOM      9  C   LIG    1        3.815   4.793  -7.559  0.00  0.00    +0.120 C 
ATOM     10  N   LIG    1        3.390   4.534  -6.359  0.00  0.00    -0.210 NA
BRANCH   5  11
ATOM     11  C   LIG    1        1.869   3.639  -8.882  0.00  0.00    +0.080 C 
BRANCH  11  12
ATOM     12  C   LIG    1        2.162   2.140  -8.786  0.00  0.00    +0.010 C 
BRANCH  12  13
ATOM     13  C   LIG    1        0.849   1.358  -8.857  0.00  0.00    +0.000 C 
BRANCH  13  15
ATOM     14  C   LIG    1       -0.171  -0.923  -8.833  0.00  0.00    +0.000 C 
ATOM     15  C   LIG    1        1.142  -0.141  -8.762  0.00  0.00    -0.010 C 
ENDBRANCH  13  15
ENDBRANCH  12  13
ENDBRANCH  11  12
ENDBRANCH   5  11
ENDBRANCH   1  10
BRANCH   3  16
ATOM     16  C   LIG    1        4.457   5.153  -2.831  0.00  0.00    -0.170 A 
ATOM     17  C   LIG    1        5.644   5.868  -3.008  0.00  0.00    +0.080 A 
ATOM     18  C   LIG    1        6.365   6.285  -1.911  0.00  0.00    -0.030 A 
ATOM     19  C   LIG    1        5.915   6.004  -0.631  0.00  0.00    +0.080 A 
ATOM     20  C   LIG    1        4.741   5.303  -0.442  0.00  0.00    -0.080 A 
ATOM     21  C   LIG    1        4.003   4.875  -1.534  0.00  0.00    +0.190 A 
BRANCH  21  22
ATOM     22  O   LIG    1        2.848   4.187  -1.350  0.00  0.00    -0.270 OA
BRANCH  22  23
ATOM     23  C   LIG    1        2.451   3.936  -0.000  0.00  0.00    +0.250 C 
BRANCH  23  24
ATOM     24  C   LIG    1        1.156   3.166   0.007  0.00  0.00    -0.090 A 
ATOM     25  C   LIG    1        1.175   1.783   0.000  0.00  0.00    +0.050 A 
ATOM     26  C   LIG    1       -0.013   1.076   0.008  0.00  0.00    +0.030 A 
ATOM     27  C   LIG    1       -1.220   1.751   0.017  0.00  0.00    -0.020 A 
ATOM     28  C   LIG    1       -1.238   3.135   0.029  0.00  0.00    +0.030 A 
ATOM     29 CL   LIG    1       -2.712   0.864   0.020  0.00  0.00    -0.070 Cl
ATOM     30  C   LIG    1       -0.050   3.841   0.022  0.00  0.00    +0.050 A 
ENDBRANCH  23  24
ENDBRANCH  22  23
ENDBRANCH  21  22
ENDBRANCH   3  16
TORSDOF 9
