REMARK  Name = ZINCqH0000008qCv.0
REMARK                            x       y       z     vdW  Elec       q    Type
REMARK                         _______ _______ _______ _____ _____    ______ ____
ROOT
ATOM      1  N   LIG    1       -0.721   1.571  -1.179  0.00  0.00    -0.730 N 
ATOM      2  H   LIG    1       -0.433   2.388  -1.615  0.00  0.00    +0.400 HD
ATOM      3  C   LIG    1       -1.773   0.883  -1.664  0.00  0.00    +0.570 C 
ATOM      4  O   LIG    1       -2.135  -0.141  -1.117  0.00  0.00    -0.510 OA
ENDROOT
BRANCH   3   5
ATOM      5  C   LIG    1       -2.487   1.371  -2.859  0.00  0.00    -0.140 A 
ATOM      6  C   LIG    1       -2.076   2.547  -3.491  0.00  0.00    +0.050 A 
ATOM      7  C   LIG    1       -2.746   2.998  -4.608  0.00  0.00    +0.020 A 
ATOM      8  C   LIG    1       -3.828   2.291  -5.108  0.00  0.00    +0.060 A 
ATOM      9  C   LIG    1       -4.246   1.127  -4.494  0.00  0.00    +0.010 A 
ATOM     10  C   LIG    1       -3.579   0.655  -3.371  0.00  0.00    +0.210 A 
BRANCH  10  11
ATOM     11  N   LIG    1       -3.996  -0.522  -2.753  0.00  0.00    -0.570 N 
ATOM     12  C   LIG    1       -3.494  -1.859  -3.093  0.00  0.00    +0.270 C 
ATOM     13  C   LIG    1       -4.519  -2.848  -2.495  0.00  0.00    +0.040 C 
ATOM     14  C   LIG    1       -5.125  -2.014  -1.342  0.00  0.00    +0.060 C 
ATOM     15  C   LIG    1       -4.905  -0.579  -1.765  0.00  0.00    +0.540 C 
ATOM     16  O   LIG    1       -5.469   0.381  -1.284  0.00  0.00    -0.530 OA
ENDBRANCH  10  11
ENDBRANCH   3   5
BRANCH   1  18
ATOM     17  C   LIG    1       -0.729   1.579   1.267  0.00  0.00    +0.060 C 
ATOM     18  C   LIG    1       -0.013   1.086   0.008  0.00  0.00    +0.350 C 
BRANCH  18  19
ATOM     19  C   LIG    1        1.401   1.607  -0.003  0.00  0.00    +0.040 A 
ATOM     20  N   LIG    1        2.450   0.903   0.257  0.00  0.00    -0.430 NA
ATOM     21  C   LIG    1        3.615   1.517   0.203  0.00  0.00    -0.020 A 
ATOM     22  C   LIG    1        3.545   2.811  -0.122  0.00  0.00    +0.000 A 
ATOM     23  S   LIG    1        1.848   3.217  -0.368  0.00  0.00    +0.200 S 
BRANCH  21  24
ATOM     24  C   LIG    1        4.920   0.816   0.482  0.00  0.00    +0.550 C 
ATOM     25  F   LIG    1        4.706  -0.218   1.400  0.00  0.00    -0.160 F 
ATOM     26  F   LIG    1        5.835   1.730   1.014  0.00  0.00    -0.170 F 
ATOM     27  F   LIG    1        5.429   0.286  -0.708  0.00  0.00    -0.170 F 
ENDBRANCH  21  24
ENDBRANCH  18  19
ENDBRANCH   1  18
TORSDOF 5
