REMARK  Name = ZINCqH0000050jiz.0
REMARK                            x       y       z     vdW  Elec       q    Type
REMARK                         _______ _______ _______ _____ _____    ______ ____
ROOT
ATOM      1  C   LIG    1       -0.332   0.657   6.982  0.00  0.00    +0.600 C 
ATOM      2  N   LIG    1        0.671   1.518   6.720  0.00  0.00    -0.610 N 
ATOM      3  C   LIG    1        0.933   1.965   5.344  0.00  0.00    +0.290 C 
ATOM      4  C   LIG    1        2.397   1.662   5.000  0.00  0.00    +0.270 C 
ATOM      5  N   LIG    1        3.249   2.170   6.085  0.00  0.00    -0.630 N 
ATOM      6  C   LIG    1        2.991   1.719   7.459  0.00  0.00    +0.300 C 
ATOM      7  C   LIG    1        4.252   3.031   5.822  0.00  0.00    +0.710 C 
ATOM      8  N   LIG    1        4.402   3.533   4.580  0.00  0.00    -0.740 N 
ATOM      9  H   LIG    1        3.744   3.336   3.895  0.00  0.00    +0.400 HD
ATOM     10  O   LIG    1        5.022   3.354   6.706  0.00  0.00    -0.580 OA
ATOM     11  C   LIG    1        1.524   2.026   7.804  0.00  0.00    +0.260 C 
ATOM     12  O   LIG    1       -1.150   0.395   6.120  0.00  0.00    -0.520 OA
ENDROOT
BRANCH   8  13
ATOM     13  C   LIG    1        5.558   4.376   4.266  0.00  0.00    +0.260 C 
ATOM     14  C   LIG    1        5.305   5.119   2.952  0.00  0.00    +0.030 C 
ATOM     15  C   LIG    1        5.091   4.106   1.826  0.00  0.00    -0.020 C 
ATOM     16  C   LIG    1        6.337   3.229   1.684  0.00  0.00    +0.020 C 
ATOM     17  C   LIG    1        6.590   2.486   2.998  0.00  0.00    -0.060 C 
ATOM     18  C   LIG    1        7.837   1.610   2.856  0.00  0.00    +0.010 C 
ATOM     19  C   LIG    1        5.383   1.606   3.326  0.00  0.00    +0.020 C 
ATOM     20  C   LIG    1        4.838   4.849   0.513  0.00  0.00    +0.030 C 
ATOM     21  C   LIG    1        6.804   3.499   4.124  0.00  0.00    +0.020 C 
ENDBRANCH   8  13
BRANCH   1  26
ATOM     22  C   LIG    1       -0.597  -0.659  12.216  0.00  0.00    +0.140 C 
ATOM     23  C   LIG    1       -0.560  -0.563  10.713  0.00  0.00    -0.200 A 
ATOM     24  C   LIG    1       -0.689  -1.604   9.882  0.00  0.00    +0.000 A 
ATOM     25  C   LIG    1       -0.625  -1.295   8.544  0.00  0.00    +0.100 A 
ATOM     26  C   LIG    1       -0.439   0.037   8.306  0.00  0.00    -0.270 A 
ATOM     27  S   LIG    1       -0.339   0.888   9.842  0.00  0.00    +0.210 S 
ENDBRANCH   1  26
TORSDOF 2
