REMARK  Name = ZINCvU00000004Gs.0
REMARK                            x       y       z     vdW  Elec       q    Type
REMARK                         _______ _______ _______ _____ _____    ______ ____
ROOT
ATOM      1  N   LIG    1        3.392  -5.612  -1.413  0.00  0.00    -0.520 NA
ENDROOT
BRANCH   1   2
ATOM      2  C   LIG    1        2.455  -6.316  -2.299  0.00  0.00    +0.150 C 
ATOM      3  C   LIG    1        2.817  -7.740  -2.723  0.00  0.00    +0.000 C 
ATOM      4  C   LIG    1        2.911  -6.593  -3.732  0.00  0.00    +0.040 C 
ENDBRANCH   1   2
BRANCH   1   5
ATOM      5  C   LIG    1        2.796  -5.384  -0.090  0.00  0.00    +0.540 C 
BRANCH   5   8
ATOM      6  C   LIG    1        1.262  -2.127  -0.229  0.00  0.00    +0.290 A 
ATOM      7  N   LIG    1        2.333  -2.867  -0.193  0.00  0.00    -0.250 NA
ATOM      8  N   LIG    1        1.924  -4.208  -0.144  0.00  0.00    -0.370 N 
ATOM      9  C   LIG    1        0.574  -4.207  -0.161  0.00  0.00    +0.420 A 
ATOM     10  S   LIG    1       -0.440  -5.585  -0.124  0.00  0.00    -0.450 S 
ATOM     11  O   LIG    1        0.173  -2.925  -0.213  0.00  0.00    -0.210 OA
BRANCH   6  16
ATOM     12  F   LIG    1        1.187   3.469  -0.436  0.00  0.00    -0.130 F 
ATOM     13  C   LIG    1        1.205   2.119  -0.386  0.00  0.00    +0.140 A 
ATOM     14  C   LIG    1        0.013   1.412  -0.374  0.00  0.00    +0.000 A 
ATOM     15  C   LIG    1        0.026   0.034  -0.323  0.00  0.00    +0.110 A 
ATOM     16  C   LIG    1        1.242  -0.649  -0.283  0.00  0.00    -0.060 A 
ATOM     17  C   LIG    1        2.440   0.068  -0.295  0.00  0.00    +0.120 A 
ATOM     18  C   LIG    1        2.416   1.446  -0.346  0.00  0.00    -0.010 A 
ENDBRANCH   6  16
ENDBRANCH   5   8
ENDBRANCH   1   5
BRANCH   1  19
ATOM     19  C   LIG    1        4.660  -6.346  -1.299  0.00  0.00    +0.380 C 
BRANCH  19  20
ATOM     20  C   LIG    1        5.733  -5.419  -0.788  0.00  0.00    +0.170 A 
ATOM     21  N   LIG    1        6.100  -5.278   0.455  0.00  0.00    -0.270 NA
ATOM     22  N   LIG    1        7.043  -4.406   0.528  0.00  0.00    -0.270 NA
ATOM     23  C   LIG    1        7.305  -3.950  -0.675  0.00  0.00    +0.210 A 
ATOM     24  O   LIG    1        6.479  -4.584  -1.531  0.00  0.00    -0.190 OA
BRANCH  23  25
ATOM     25  C   LIG    1        8.317  -2.931  -1.025  0.00  0.00    -0.020 A 
ATOM     26  C   LIG    1        9.106  -2.355  -0.028  0.00  0.00    +0.090 A 
ATOM     27  C   LIG    1       10.049  -1.405  -0.362  0.00  0.00    +0.030 A 
ATOM     28  C   LIG    1       10.213  -1.021  -1.681  0.00  0.00    +0.060 A 
ATOM     29  C   LIG    1        9.435  -1.587  -2.674  0.00  0.00    +0.030 A 
ATOM     30  C   LIG    1        8.491  -2.543  -2.356  0.00  0.00    -0.010 A 
ATOM     31 CL   LIG    1        7.520  -3.257  -3.604  0.00  0.00    -0.040 Cl
ENDBRANCH  23  25
ENDBRANCH  19  20
ENDBRANCH   1  19
TORSDOF 7
