REMARK  Name = ZINCqH0000036kyj.0
REMARK                            x       y       z     vdW  Elec       q    Type
REMARK                         _______ _______ _______ _____ _____    ______ ____
ROOT
ATOM      1  C   LIG    1        3.369  -0.277  -2.055  0.00  0.00    +0.100 A 
ATOM      2  C   LIG    1        3.577  -1.641  -2.176  0.00  0.00    -0.060 A 
ATOM      3  C   LIG    1        2.646  -2.527  -1.667  0.00  0.00    +0.020 A 
ATOM      4  C   LIG    1        1.511  -2.056  -1.037  0.00  0.00    -0.010 A 
ATOM      5  C   LIG    1        1.293  -0.693  -0.910  0.00  0.00    -0.080 A 
ATOM      6  C   LIG    1        0.045  -0.217  -0.214  0.00  0.00    +0.040 C 
ATOM      7  C   LIG    1       -1.128  -1.115  -0.612  0.00  0.00    +0.040 C 
ATOM      8  C   LIG    1       -0.270   1.226  -0.607  0.00  0.00    +0.030 C 
ATOM      9  C   LIG    1        0.986   2.082  -0.399  0.00  0.00    +0.270 C 
ATOM     10  N   LIG    1        2.025   1.583  -1.310  0.00  0.00    -0.560 N 
ATOM     11  C   LIG    1        2.776   2.441  -2.029  0.00  0.00    +0.490 C 
ATOM     12  O   LIG    1        3.357   2.054  -3.021  0.00  0.00    -0.430 OA
ATOM     13  C   LIG    1        2.221   0.198  -1.420  0.00  0.00    +0.130 A 
ENDROOT
BRANCH   1  15
ATOM     14  C   LIG    1        5.434   0.041  -3.191  0.00  0.00    +0.200 C 
ATOM     15  O   LIG    1        4.282   0.598  -2.554  0.00  0.00    -0.240 OA
ENDBRANCH   1  15
BRANCH  11  16
ATOM     16  C   LIG    1        2.894   3.881  -1.600  0.00  0.00    +0.110 C 
BRANCH  16  17
ATOM     17  C   LIG    1        3.784   4.621  -2.565  0.00  0.00    -0.080 A 
ATOM     18  C   LIG    1        5.146   4.688  -2.335  0.00  0.00    +0.040 A 
ATOM     19  C   LIG    1        5.964   5.362  -3.220  0.00  0.00    -0.010 A 
ATOM     20  C   LIG    1        5.417   5.981  -4.336  0.00  0.00    +0.150 A 
ATOM     21  C   LIG    1        4.048   5.917  -4.561  0.00  0.00    +0.010 A 
ATOM     22  C   LIG    1        3.236   5.237  -3.675  0.00  0.00    +0.040 A 
BRANCH  20  23
ATOM     23  N   LIG    1        6.244   6.668  -5.232  0.00  0.00    -0.680 N 
ATOM     24  H   LIG    1        7.143   6.349  -5.406  0.00  0.00    +0.410 HD
ATOM     25  C   LIG    1        5.790   7.774  -5.855  0.00  0.00    +0.510 C 
ATOM     26  O   LIG    1        4.704   8.231  -5.566  0.00  0.00    -0.520 OA
ATOM     27  C   LIG    1        6.632   8.444  -6.910  0.00  0.00    +0.110 C 
ENDBRANCH  20  23
ENDBRANCH  16  17
ENDBRANCH  11  16
TORSDOF 4
