REMARK  Name = ZINCvU0000000BhZ.2
REMARK                            x       y       z     vdW  Elec       q    Type
REMARK                         _______ _______ _______ _____ _____    ______ ____
ROOT
ATOM      1  C   LIG    1       -0.063   1.103   0.030  0.00  0.00    +0.230 C 
ENDROOT
BRANCH   1   2
ATOM      2  C   LIG    1       -0.867   1.656   1.178  0.00  0.00    -0.040 A 
ATOM      3  C   LIG    1       -0.565   2.904   1.692  0.00  0.00    +0.020 A 
ATOM      4  C   LIG    1       -1.300   3.418   2.740  0.00  0.00    +0.040 A 
ATOM      5  C   LIG    1       -2.344   2.672   3.289  0.00  0.00    -0.140 A 
ATOM      6  C   LIG    1       -2.640   1.411   2.769  0.00  0.00    +0.090 A 
ATOM      7  C   LIG    1       -1.901   0.910   1.718  0.00  0.00    +0.010 A 
BRANCH   5   8
ATOM      8  C   LIG    1       -3.132   3.214   4.416  0.00  0.00    +0.560 C 
ATOM      9  N   LIG    1       -2.843   4.432   4.916  0.00  0.00    -0.670 N 
ATOM     10  H   LIG    1       -2.176   4.988   4.484  0.00  0.00    +0.410 HD
ATOM     11  O   LIG    1       -4.040   2.561   4.892  0.00  0.00    -0.510 OA
BRANCH   9  12
ATOM     12  C   LIG    1       -3.506   4.894   6.058  0.00  0.00    +0.150 A 
ATOM     13  C   LIG    1       -3.642   6.258   6.279  0.00  0.00    -0.020 A 
ATOM     14  C   LIG    1       -4.300   6.711   7.405  0.00  0.00    +0.030 A 
ATOM     15  C   LIG    1       -4.815   5.808   8.317  0.00  0.00    -0.020 A 
ATOM     16  C   LIG    1       -4.676   4.449   8.103  0.00  0.00    +0.030 A 
ATOM     17  C   LIG    1       -4.023   3.989   6.976  0.00  0.00    +0.010 A 
ENDBRANCH   9  12
ENDBRANCH   5   8
ENDBRANCH   1   2
BRANCH   1  22
ATOM     18  C   LIG    1        0.241   1.299  -2.369  0.00  0.00    +0.230 C 
ATOM     19  C   LIG    1       -0.462   0.367  -3.378  0.00  0.00    +0.010 C 
ATOM     20  C   LIG    1       -1.964   0.549  -3.034  0.00  0.00    +0.030 C 
ATOM     21  C   LIG    1       -1.914   0.718  -1.495  0.00  0.00    +0.170 C 
ATOM     22  N   LIG    1       -0.686   1.500  -1.240  0.00  0.00    -0.510 NA
BRANCH  18  27
ATOM     23  C   LIG    1        2.659  -1.215  -0.915  0.00  0.00    +0.100 A 
ATOM     24  C   LIG    1        3.856  -0.518  -0.978  0.00  0.00    -0.040 A 
ATOM     25  C   LIG    1        3.882   0.765  -1.490  0.00  0.00    -0.040 A 
ATOM     26  C   LIG    1        2.711   1.355  -1.942  0.00  0.00    +0.100 A 
ATOM     27  C   LIG    1        1.514   0.657  -1.879  0.00  0.00    -0.090 A 
ATOM     28  C   LIG    1        1.487  -0.623  -1.362  0.00  0.00    +0.020 A 
BRANCH  23  30
ATOM     29  C   LIG    1        3.877  -3.023   0.035  0.00  0.00    +0.250 C 
ATOM     30  O   LIG    1        2.634  -2.478  -0.411  0.00  0.00    -0.320 OA
ENDBRANCH  23  30
BRANCH  26  31
ATOM     31  O   LIG    1        2.737   2.618  -2.446  0.00  0.00    -0.310 OA
ATOM     32  C   LIG    1        4.004   3.277  -2.480  0.00  0.00    +0.230 C 
ENDBRANCH  26  31
ENDBRANCH  18  27
ENDBRANCH   1  22
TORSDOF 7
