REMARK  Name = ZINCpk00000kQ6vE.0
REMARK                            x       y       z     vdW  Elec       q    Type
REMARK                         _______ _______ _______ _____ _____    ______ ____
ROOT
ATOM      1  N   LIG    1       -3.720   0.564  -2.237  0.00  0.00    -0.700 N 
ATOM      2  H   LIG    1       -3.187  -0.075  -2.734  0.00  0.00    +0.410 HD
ATOM      3  C   LIG    1       -4.644   1.311  -2.873  0.00  0.00    +0.500 C 
ATOM      4  O   LIG    1       -5.311   2.110  -2.251  0.00  0.00    -0.510 OA
ENDROOT
BRANCH   1   8
ATOM      5  C   LIG    1       -0.378  -0.534  -0.628  0.00  0.00    +0.630 C 
ATOM      6  N   LIG    1       -1.599  -0.005  -0.418  0.00  0.00    -0.650 N 
ATOM      7  C   LIG    1       -2.177   1.347  -0.396  0.00  0.00    +0.280 C 
ATOM      8  C   LIG    1       -3.522   0.717  -0.793  0.00  0.00    +0.240 C 
ATOM      9  C   LIG    1       -2.938  -0.523  -0.103  0.00  0.00    +0.300 C 
ATOM     10  O   LIG    1       -0.219  -1.740  -0.568  0.00  0.00    -0.510 OA
BRANCH   5  13
ATOM     11  C   LIG    1        2.460  -1.502  -1.136  0.00  0.00    +0.170 C 
ATOM     12  C   LIG    1        2.037  -0.056  -1.160  0.00  0.00    +0.150 A 
ATOM     13  C   LIG    1        0.760   0.341  -0.928  0.00  0.00    -0.300 A 
ATOM     14  S   LIG    1        0.714   2.098  -1.053  0.00  0.00    +0.160 S 
ATOM     15  C   LIG    1        2.388   2.127  -1.399  0.00  0.00    +0.250 A 
ATOM     16  N   LIG    1        2.868   0.925  -1.405  0.00  0.00    -0.470 NA
ENDBRANCH   5  13
ENDBRANCH   1   8
BRANCH   3  17
ATOM     17  C   LIG    1       -4.848   1.153  -4.358  0.00  0.00    +0.170 C 
ATOM     18  C   LIG    1       -5.817  -0.002  -4.620  0.00  0.00    +0.100 C 
BRANCH  17  19
ATOM     19  C   LIG    1       -5.419   2.427  -4.925  0.00  0.00    -0.080 A 
ATOM     20  C   LIG    1       -6.703   2.816  -4.593  0.00  0.00    +0.040 A 
ATOM     21  C   LIG    1       -7.227   3.987  -5.108  0.00  0.00    +0.050 A 
ATOM     22  C   LIG    1       -6.470   4.765  -5.965  0.00  0.00    -0.010 A 
ATOM     23  C   LIG    1       -5.186   4.373  -6.302  0.00  0.00    +0.100 A 
ATOM     24  F   LIG    1       -4.445   5.133  -7.139  0.00  0.00    -0.140 F 
ATOM     25  C   LIG    1       -4.661   3.203  -5.781  0.00  0.00    +0.000 A 
ENDBRANCH  17  19
BRANCH  17  26
ATOM     26  O   LIG    1       -3.594   0.873  -4.984  0.00  0.00    -0.540 OA
ATOM     27  H   LIG    1       -2.929   1.564  -4.859  0.00  0.00    +0.380 HD
ENDBRANCH  17  26
ENDBRANCH   3  17
TORSDOF 5
