REMARK  Name = ZINCtV00000L6joo.0
REMARK                            x       y       z     vdW  Elec       q    Type
REMARK                         _______ _______ _______ _____ _____    ______ ____
ROOT
ATOM      1  C   LIG    1       -2.904   0.850  -1.059  0.00  0.00    -0.070 A 
ATOM      2  C   LIG    1       -3.713  -0.249  -0.815  0.00  0.00    +0.210 A 
ATOM      3  C   LIG    1       -3.966  -0.646   0.485  0.00  0.00    -0.160 A 
ATOM      4  C   LIG    1       -3.410   0.047   1.545  0.00  0.00    +0.200 A 
ATOM      5  C   LIG    1       -2.597   1.140   1.311  0.00  0.00    +0.010 A 
ATOM      6  C   LIG    1       -2.337   1.545   0.010  0.00  0.00    +0.020 A 
ENDROOT
BRANCH   3   7
ATOM      7  C   LIG    1       -4.851  -1.837   0.748  0.00  0.00    +0.520 C 
ATOM      8  F   LIG    1       -4.296  -2.972   0.149  0.00  0.00    -0.160 F 
ATOM      9  F   LIG    1       -6.122  -1.601   0.212  0.00  0.00    -0.160 F 
ATOM     10  F   LIG    1       -4.958  -2.043   2.128  0.00  0.00    -0.170 F 
ENDBRANCH   3   7
BRANCH   5  11
ATOM     11  N   LIG    1       -2.002   1.878   2.448  0.00  0.00    +0.030 N 
ATOM     12  O   LIG    1       -1.286   2.841   2.242  0.00  0.00    -0.130 OA
ATOM     13  O   LIG    1       -2.230   1.522   3.591  0.00  0.00    -0.140 OA
ENDBRANCH   5  11
BRANCH   1  14
ATOM     14  S   LIG    1       -2.585   1.363  -2.715  0.00  0.00    +0.110 S 
BRANCH  14  15
ATOM     15  C   LIG    1       -3.655   2.760  -2.813  0.00  0.00    +0.280 C 
ATOM     16  S   LIG    1       -4.704   3.128  -1.512  0.00  0.00    -0.550 S 
BRANCH  15  17
ATOM     17  N   LIG    1       -3.646   3.539  -3.913  0.00  0.00    -0.500 N 
BRANCH  17  19
ATOM     18  C   LIG    1       -3.458   2.290  -6.007  0.00  0.00    +0.050 C 
ATOM     19  C   LIG    1       -2.747   3.224  -5.026  0.00  0.00    +0.270 C 
ENDBRANCH  17  19
BRANCH  17  20
ATOM     20  C   LIG    1       -4.535   4.701  -3.994  0.00  0.00    +0.300 C 
ATOM     21  C   LIG    1       -3.820   5.930  -3.430  0.00  0.00    +0.050 C 
ENDBRANCH  17  20
ENDBRANCH  15  17
ENDBRANCH  14  15
ENDBRANCH   1  14
BRANCH   6  22
ATOM     22  S   LIG    1       -1.301   2.938  -0.292  0.00  0.00    +0.150 S 
BRANCH  22  23
ATOM     23  C   LIG    1        0.266   2.138  -0.392  0.00  0.00    +0.280 C 
ATOM     24  S   LIG    1        0.374   0.441  -0.198  0.00  0.00    -0.580 S 
BRANCH  23  25
ATOM     25  N   LIG    1        1.378   2.862  -0.627  0.00  0.00    -0.500 N 
BRANCH  25  26
ATOM     26  C   LIG    1        1.285   4.314  -0.793  0.00  0.00    +0.270 C 
ATOM     27  C   LIG    1        1.440   4.994   0.569  0.00  0.00    +0.050 C 
ENDBRANCH  25  26
BRANCH  25  28
ATOM     28  C   LIG    1        2.680   2.196  -0.716  0.00  0.00    +0.300 C 
ATOM     29  C   LIG    1        2.947   1.790  -2.167  0.00  0.00    +0.050 C 
ENDBRANCH  25  28
ENDBRANCH  23  25
ENDBRANCH  22  23
ENDBRANCH   6  22
TORSDOF 12
