REMARK  Name = ZINCvU0000000D3j.0
REMARK                            x       y       z     vdW  Elec       q    Type
REMARK                         _______ _______ _______ _____ _____    ______ ____
ROOT
ATOM      1  O   LIG    1        1.459   2.731   1.993  0.00  0.00    -0.480 OA
ATOM      2  C   LIG    1        1.421   1.736   1.293  0.00  0.00    +0.570 C 
ATOM      3  C   LIG    1        0.153   1.012   1.136  0.00  0.00    -0.160 A 
ATOM      4  C   LIG    1       -1.010   1.436   1.779  0.00  0.00    +0.110 A 
ATOM      5  C   LIG    1       -2.182   0.731   1.603  0.00  0.00    +0.000 A 
ATOM      6  C   LIG    1       -2.214  -0.401   0.802  0.00  0.00    +0.060 A 
ATOM      7  C   LIG    1       -1.073  -0.840   0.161  0.00  0.00    -0.010 A 
ATOM      8  C   LIG    1        0.116  -0.140   0.322  0.00  0.00    +0.040 A 
ATOM      9  C   LIG    1        1.366  -0.567  -0.340  0.00  0.00    -0.280 C 
ATOM     10  C   LIG    1        2.575   0.233  -0.113  0.00  0.00    +0.580 C 
ATOM     11  O   LIG    1        3.621  -0.091  -0.644  0.00  0.00    -0.520 OA
ATOM     12  C   LIG    1        1.395  -1.682  -1.148  0.00  0.00    +0.420 C 
ATOM     13  N   LIG    1        2.539   1.320   0.676  0.00  0.00    -0.510 N 
ENDROOT
BRANCH  13  14
ATOM     14  C   LIG    1        3.719   2.051   0.863  0.00  0.00    +0.130 A 
ATOM     15  C   LIG    1        3.988   3.154   0.064  0.00  0.00    +0.040 A 
ATOM     16  C   LIG    1        5.152   3.874   0.251  0.00  0.00    +0.040 A 
ATOM     17  C   LIG    1        6.050   3.497   1.232  0.00  0.00    +0.050 A 
ATOM     18  C   LIG    1        5.785   2.398   2.030  0.00  0.00    -0.030 A 
ATOM     19 CL   LIG    1        6.916   1.928   3.261  0.00  0.00    -0.060 Cl
ATOM     20  C   LIG    1        4.620   1.677   1.851  0.00  0.00    +0.040 A 
ENDBRANCH  13  14
BRANCH  12  21
ATOM     21  N   LIG    1        2.527  -1.997  -1.832  0.00  0.00    -0.620 N 
ATOM     22  H   LIG    1        3.284  -1.390  -1.822  0.00  0.00    +0.440 HD
BRANCH  21  23
ATOM     23  C   LIG    1        2.601  -3.194  -2.549  0.00  0.00    +0.160 A 
ATOM     24  C   LIG    1        1.518  -4.064  -2.564  0.00  0.00    +0.050 A 
ATOM     25  C   LIG    1        1.594  -5.247  -3.273  0.00  0.00    +0.100 A 
ATOM     26  C   LIG    1        2.746  -5.565  -3.969  0.00  0.00    -0.020 A 
ATOM     27  C   LIG    1        3.827  -4.700  -3.957  0.00  0.00    -0.000 A 
ATOM     28 CL   LIG    1        2.837  -7.052  -4.860  0.00  0.00    +0.000 Cl
ATOM     29  C   LIG    1        3.755  -3.514  -3.253  0.00  0.00    +0.090 A 
BRANCH  27  30
ATOM     30  N   LIG    1        5.058  -5.044  -4.703  0.00  0.00    +0.020 N 
ATOM     31  O   LIG    1        5.120  -6.088  -5.327  0.00  0.00    -0.120 OA
ATOM     32  O   LIG    1        6.009  -4.283  -4.692  0.00  0.00    -0.150 OA
ENDBRANCH  27  30
ENDBRANCH  21  23
ENDBRANCH  12  21
TORSDOF 4
