REMARK  Name = ZINCqH0000002DkH.0
REMARK                            x       y       z     vdW  Elec       q    Type
REMARK                         _______ _______ _______ _____ _____    ______ ____
ROOT
ATOM      1  C   LIG    1        6.380   6.761  -0.334  0.00  0.00    -0.000 A 
ATOM      2  N   LIG    1        5.093   6.630  -0.241  0.00  0.00    -0.260 NA
ATOM      3  N   LIG    1        4.633   5.337  -0.131  0.00  0.00    -0.330 NA
ATOM      4  C   LIG    1        5.544   4.415  -0.134  0.00  0.00    +0.300 A 
ATOM      5  S   LIG    1        7.128   5.169  -0.277  0.00  0.00    +0.100 S 
ENDROOT
BRANCH   4   6
ATOM      6  N   LIG    1        5.308   3.049  -0.033  0.00  0.00    -0.620 N 
ATOM      7  H   LIG    1        6.053   2.432   0.042  0.00  0.00    +0.430 HD
BRANCH   6   8
ATOM      8  C   LIG    1        3.998   2.564  -0.041  0.00  0.00    +0.150 A 
ATOM      9  C   LIG    1        3.005   3.251  -0.728  0.00  0.00    +0.020 A 
ATOM     10  C   LIG    1        1.711   2.769  -0.734  0.00  0.00    +0.040 A 
ATOM     11  C   LIG    1        1.403   1.603  -0.058  0.00  0.00    -0.090 A 
ATOM     12  C   LIG    1        2.387   0.919   0.632  0.00  0.00    +0.040 A 
ATOM     13  C   LIG    1        3.684   1.393   0.638  0.00  0.00    -0.010 A 
BRANCH  11  14
ATOM     14  C   LIG    1       -0.011   1.080  -0.066  0.00  0.00    +0.020 C 
ATOM     15  C   LIG    1       -0.033  -0.318  -0.687  0.00  0.00    +0.040 C 
ATOM     16  C   LIG    1       -0.537   1.009   1.369  0.00  0.00    +0.030 C 
ENDBRANCH  11  14
ENDBRANCH   6   8
ENDBRANCH   4   6
BRANCH   1  17
ATOM     17  S   LIG    1        7.243   8.290  -0.486  0.00  0.00    +0.110 S 
BRANCH  17  18
ATOM     18  C   LIG    1        5.906   9.516  -0.474  0.00  0.00    +0.100 C 
BRANCH  18  24
ATOM     19  N   LIG    1        5.393  14.289  -0.737  0.00  0.00    -0.740 N 
ATOM     20  H   LIG    1        4.433  14.173  -0.666  0.00  0.00    +0.400 HD
ATOM     21  C   LIG    1        6.204  13.212  -0.724  0.00  0.00    +0.690 C 
ATOM     22  N   LIG    1        5.681  11.975  -0.612  0.00  0.00    -0.690 N 
ATOM     23  H   LIG    1        4.720  11.860  -0.541  0.00  0.00    +0.410 HD
ATOM     24  C   LIG    1        6.491  10.899  -0.599  0.00  0.00    +0.540 C 
ATOM     25  O   LIG    1        7.692  11.043  -0.687  0.00  0.00    -0.450 OA
ATOM     26  O   LIG    1        7.408  13.357  -0.812  0.00  0.00    -0.520 OA
BRANCH  19  27
ATOM     27  C   LIG    1        5.962  15.633  -0.859  0.00  0.00    +0.270 C 
BRANCH  27  29
ATOM     28  C   LIG    1        5.429  18.071  -0.975  0.00  0.00    +0.030 C 
ATOM     29  C   LIG    1        4.835  16.667  -0.848  0.00  0.00    +0.000 C 
ENDBRANCH  27  29
ENDBRANCH  19  27
ENDBRANCH  18  24
ENDBRANCH  17  18
ENDBRANCH   1  17
TORSDOF 8
