REMARK  Name = ZINCqH0000036zmX.0
REMARK                            x       y       z     vdW  Elec       q    Type
REMARK                         _______ _______ _______ _____ _____    ______ ____
ROOT
ATOM      1  C   LIG    1        5.199  -1.897   1.117  0.00  0.00    +0.500 C 
ATOM      2  N   LIG    1        5.705  -3.119   1.375  0.00  0.00    -0.710 N 
ATOM      3  H   LIG    1        5.518  -3.858   0.775  0.00  0.00    +0.410 HD
ATOM      4  O   LIG    1        5.433  -0.973   1.867  0.00  0.00    -0.520 OA
ENDROOT
BRANCH   2   5
ATOM      5  C   LIG    1        6.537  -3.332   2.562  0.00  0.00    +0.300 C 
ATOM      6  C   LIG    1        5.644  -3.618   3.769  0.00  0.00    +0.030 C 
ATOM      7  C   LIG    1        4.431  -4.441   3.363  0.00  0.00    +0.000 C 
ATOM      8  C   LIG    1        4.776  -5.851   2.933  0.00  0.00    +0.220 C 
ATOM      9  O   LIG    1        5.561  -5.842   1.736  0.00  0.00    -0.320 OA
ATOM     10  C   LIG    1        6.904  -5.718   1.915  0.00  0.00    +0.070 A 
ATOM     11  C   LIG    1        7.736  -6.807   1.675  0.00  0.00    +0.090 A 
ATOM     12  C   LIG    1        9.098  -6.688   1.881  0.00  0.00    +0.000 A 
ATOM     13  C   LIG    1        9.633  -5.492   2.324  0.00  0.00    +0.050 A 
ATOM     14  C   LIG    1        8.806  -4.405   2.552  0.00  0.00    +0.040 A 
ATOM     15  F   LIG    1        7.215  -7.977   1.243  0.00  0.00    -0.130 F 
ATOM     16  C   LIG    1        7.449  -4.523   2.338  0.00  0.00    -0.100 A 
ENDBRANCH   2   5
BRANCH   1  18
ATOM     17  C   LIG    1        5.150  -2.018  -1.360  0.00  0.00    +0.070 C 
ATOM     18  C   LIG    1        4.344  -1.678  -0.105  0.00  0.00    +0.240 C 
BRANCH  18  19
ATOM     19  N   LIG    1        3.921  -0.277  -0.160  0.00  0.00    -0.480 N 
ATOM     20  C   LIG    1        4.737   0.809  -0.232  0.00  0.00    +0.500 A 
ATOM     21  N   LIG    1        4.029   1.900  -0.265  0.00  0.00    -0.500 NA
ATOM     22  C   LIG    1        2.708   1.588  -0.218  0.00  0.00    +0.050 A 
ATOM     23  C   LIG    1        1.537   2.350  -0.224  0.00  0.00    +0.070 A 
ATOM     24  C   LIG    1        0.321   1.730  -0.165  0.00  0.00    +0.000 A 
ATOM     25  C   LIG    1        0.234   0.347  -0.098  0.00  0.00    +0.030 A 
ATOM     26  C   LIG    1        1.377  -0.425  -0.090  0.00  0.00    +0.010 A 
ATOM     27  C   LIG    1        2.621   0.187  -0.150  0.00  0.00    +0.050 A 
ENDBRANCH  18  19
ENDBRANCH   1  18
TORSDOF 3
