REMARK  Name = ZINCrH000004snNQ.0
REMARK                            x       y       z     vdW  Elec       q    Type
REMARK                         _______ _______ _______ _____ _____    ______ ____
ROOT
ATOM      1  C   LIG    1       -2.001  -0.700  -1.198  0.00  0.00    +0.620 C 
ATOM      2  N   LIG    1       -0.666  -0.515  -1.197  0.00  0.00    -0.710 N 
ATOM      3  H   LIG    1       -0.148  -0.721  -1.991  0.00  0.00    +0.410 HD
ATOM      4  O   LIG    1       -2.652  -0.442  -0.202  0.00  0.00    -0.510 OA
ENDROOT
BRANCH   1   7
ATOM      5  C   LIG    1       -5.068  -1.242  -1.496  0.00  0.00    +0.190 C 
ATOM      6  C   LIG    1       -4.006  -1.453  -2.544  0.00  0.00    +0.100 A 
ATOM      7  C   LIG    1       -2.670  -1.212  -2.397  0.00  0.00    -0.130 A 
ATOM      8  O   LIG    1       -2.080  -1.541  -3.571  0.00  0.00    -0.180 OA
ATOM      9  C   LIG    1       -3.043  -1.965  -4.404  0.00  0.00    +0.270 A 
ATOM     10  N   LIG    1       -4.202  -1.907  -3.782  0.00  0.00    -0.480 NA
BRANCH   9  11
ATOM     11  C   LIG    1       -2.837  -2.422  -5.793  0.00  0.00    -0.030 A 
ATOM     12  C   LIG    1       -1.554  -2.431  -6.345  0.00  0.00    +0.050 A 
ATOM     13  C   LIG    1       -1.368  -2.864  -7.642  0.00  0.00    +0.010 A 
ATOM     14  C   LIG    1       -2.450  -3.277  -8.399  0.00  0.00    +0.040 A 
ATOM     15  C   LIG    1       -3.724  -3.265  -7.860  0.00  0.00    +0.020 A 
ATOM     16  C   LIG    1       -3.924  -2.840  -6.563  0.00  0.00    +0.080 A 
ENDBRANCH   9  11
ENDBRANCH   1   7
BRANCH   2  17
ATOM     17  C   LIG    1        0.002  -0.004   0.002  0.00  0.00    +0.250 C 
ATOM     18  C   LIG    1       -0.019   1.538   0.011  0.00  0.00    +0.040 C 
ATOM     19  C   LIG    1        1.466   1.960  -0.001  0.00  0.00    +0.190 C 
ATOM     20  N   LIG    1        2.191   0.794   0.567  0.00  0.00    -0.450 N 
ATOM     21  C   LIG    1        1.498  -0.385  -0.014  0.00  0.00    +0.220 C 
BRANCH  20  22
ATOM     22  C   LIG    1        3.532   0.814   0.201  0.00  0.00    +0.310 A 
ATOM     23  N   LIG    1        4.017  -0.147  -0.570  0.00  0.00    -0.500 NA
ATOM     24  C   LIG    1        5.283  -0.165  -0.940  0.00  0.00    +0.300 A 
ATOM     25  C   LIG    1        6.154   0.825  -0.533  0.00  0.00    -0.030 A 
ATOM     26  C   LIG    1        5.687   1.852   0.276  0.00  0.00    +0.100 A 
ATOM     27  C   LIG    1        4.353   1.848   0.643  0.00  0.00    -0.100 A 
ATOM     28 CL   LIG    1        3.713   3.111   1.648  0.00  0.00    -0.040 Cl
ENDBRANCH  20  22
ENDBRANCH   2  17
TORSDOF 4
