REMARK  Name = ZINCqH0000008RVG.0
REMARK                            x       y       z     vdW  Elec       q    Type
REMARK                         _______ _______ _______ _____ _____    ______ ____
ROOT
ATOM      1  C   LIG    1       -2.216   1.239  -1.671  0.00  0.00    +0.060 C 
ATOM      2  C   LIG    1       -2.050   2.506  -0.831  0.00  0.00    +0.150 C 
ATOM      3  C   LIG    1       -2.853   2.375   0.481  0.00  0.00    +0.080 C 
ATOM      4  C   LIG    1       -1.923   3.050   1.528  0.00  0.00    +0.040 C 
ATOM      5  C   LIG    1       -0.523   2.638   1.007  0.00  0.00    +0.260 C 
ATOM      6  N   LIG    1       -0.637   2.681  -0.462  0.00  0.00    -0.600 N 
ATOM      7  C   LIG    1        0.384   2.851  -1.325  0.00  0.00    +0.580 C 
ATOM      8  O   LIG    1        0.191   2.762  -2.521  0.00  0.00    -0.520 OA
ENDROOT
BRANCH   7   9
ATOM      9  C   LIG    1        1.740   3.148  -0.815  0.00  0.00    -0.130 A 
ATOM     10  C   LIG    1        2.076   2.840   0.504  0.00  0.00    +0.040 A 
ATOM     11  C   LIG    1        3.345   3.115   0.972  0.00  0.00    +0.000 A 
ATOM     12  C   LIG    1        4.280   3.704   0.139  0.00  0.00    +0.040 A 
ATOM     13  C   LIG    1        3.952   4.016  -1.168  0.00  0.00    +0.000 A 
ATOM     14  C   LIG    1        2.688   3.741  -1.650  0.00  0.00    +0.070 A 
ENDBRANCH   7   9
BRANCH   2  15
ATOM     15  C   LIG    1       -2.527   3.704  -1.610  0.00  0.00    +0.520 C 
ATOM     16  N   LIG    1       -2.240   3.813  -2.923  0.00  0.00    -0.710 N 
ATOM     17  H   LIG    1       -1.802   3.082  -3.385  0.00  0.00    +0.410 HD
ATOM     18  O   LIG    1       -3.171   4.571  -1.057  0.00  0.00    -0.530 OA
BRANCH  16  19
ATOM     19  C   LIG    1       -2.591   5.035  -3.651  0.00  0.00    +0.330 C 
BRANCH  19  20
ATOM     20  C   LIG    1       -2.165   4.901  -5.090  0.00  0.00    -0.140 A 
ATOM     21  C   LIG    1       -3.110   4.672  -6.072  0.00  0.00    +0.070 A 
ATOM     22  C   LIG    1       -2.721   4.550  -7.393  0.00  0.00    +0.020 A 
ATOM     23  C   LIG    1       -1.386   4.658  -7.734  0.00  0.00    +0.080 A 
ATOM     24  C   LIG    1       -0.437   4.887  -6.753  0.00  0.00    -0.080 A 
ATOM     25 CL   LIG    1        1.240   5.022  -7.181  0.00  0.00    -0.040 Cl
ATOM     26  C   LIG    1       -0.828   5.014  -5.430  0.00  0.00    +0.140 A 
ATOM     27  F   LIG    1        0.097   5.244  -4.472  0.00  0.00    -0.110 F 
ENDBRANCH  19  20
ENDBRANCH  16  19
ENDBRANCH   2  15
TORSDOF 4
