REMARK  Name = ZINCqH0000008yPP.0
REMARK                            x       y       z     vdW  Elec       q    Type
REMARK                         _______ _______ _______ _____ _____    ______ ____
ROOT
ATOM      1  N   LIG    1       -1.873  -1.670   3.857  0.00  0.00    -0.510 NA
ATOM      2  C   LIG    1       -1.050  -2.430   2.908  0.00  0.00    +0.260 C 
ATOM      3  C   LIG    1       -1.768  -2.575   1.597  0.00  0.00    -0.060 C 
ATOM      4  C   LIG    1       -3.061  -2.376   1.462  0.00  0.00    -0.080 C 
ATOM      5  C   LIG    1       -3.945  -1.976   2.610  0.00  0.00    +0.050 C 
ATOM      6  C   LIG    1       -3.226  -2.246   3.934  0.00  0.00    +0.230 C 
ENDROOT
BRANCH   4   7
ATOM      7  C   LIG    1       -3.670  -2.554   0.127  0.00  0.00    -0.060 A 
ATOM      8  C   LIG    1       -4.235  -1.462  -0.535  0.00  0.00    +0.030 A 
ATOM      9  C   LIG    1       -4.796  -1.631  -1.783  0.00  0.00    -0.010 A 
ATOM     10  C   LIG    1       -4.811  -2.887  -2.376  0.00  0.00    +0.110 A 
ATOM     11  C   LIG    1       -4.255  -3.976  -1.718  0.00  0.00    -0.010 A 
ATOM     12  C   LIG    1       -3.686  -3.814  -0.472  0.00  0.00    +0.040 A 
BRANCH  10  13
ATOM     13  O   LIG    1       -5.371  -3.050  -3.603  0.00  0.00    -0.500 OA
ATOM     14  H   LIG    1       -6.313  -3.267  -3.579  0.00  0.00    +0.390 HD
ENDBRANCH  10  13
ENDBRANCH   4   7
BRANCH   1  16
ATOM     15  C   LIG    1       -2.728   0.521   4.539  0.00  0.00    +0.070 C 
ATOM     16  C   LIG    1       -1.926  -0.249   3.488  0.00  0.00    +0.230 C 
BRANCH  16  17
ATOM     17  C   LIG    1       -0.526   0.305   3.420  0.00  0.00    +0.180 A 
ATOM     18  N   LIG    1        0.436   0.111   4.289  0.00  0.00    -0.280 NA
ATOM     19  N   LIG    1        1.478   0.748   3.878  0.00  0.00    -0.080 NA
ATOM     20  N   LIG    1        1.207   1.338   2.767  0.00  0.00    -0.090 NA
ATOM     21  N   LIG    1       -0.020   1.094   2.454  0.00  0.00    -0.300 N 
BRANCH  21  22
ATOM     22  C   LIG    1       -0.729   1.579   1.267  0.00  0.00    +0.260 C 
ATOM     23  C   LIG    1       -0.013   1.086   0.008  0.00  0.00    +0.020 C 
ATOM     24  C   LIG    1       -0.753   1.593  -1.232  0.00  0.00    +0.040 C 
ATOM     25  C   LIG    1       -0.773   3.123  -1.223  0.00  0.00    +0.010 C 
ATOM     26  C   LIG    1       -1.490   3.616   0.036  0.00  0.00    +0.040 C 
ATOM     27  C   LIG    1       -0.750   3.109   1.275  0.00  0.00    +0.020 C 
ENDBRANCH  21  22
ENDBRANCH  16  17
ENDBRANCH   1  16
TORSDOF 5
