REMARK  Name = ZINCpe000000Ywoz.0
REMARK                            x       y       z     vdW  Elec       q    Type
REMARK                         _______ _______ _______ _____ _____    ______ ____
ROOT
ATOM      1  N   LIG    1       -2.426  -0.127  -0.740  0.00  0.00    -1.090 NA
ATOM      2  H   LIG    1       -2.360  -0.423   0.181  0.00  0.00    +0.430 HD
ENDROOT
BRANCH   1   3
ATOM      3  C   LIG    1       -2.244   1.289  -1.069  0.00  0.00    +0.260 C 
ATOM      4  C   LIG    1       -0.750   1.591  -1.235  0.00  0.00    +0.020 C 
ATOM      5  C   LIG    1       -0.013   1.086   0.008  0.00  0.00    +0.070 C 
ATOM      6  C   LIG    1       -0.712   1.568   1.246  0.00  0.00    +0.520 C 
ATOM      7  N   LIG    1       -1.964   2.024   1.256  0.00  0.00    -0.710 N 
ATOM      8  H   LIG    1       -2.346   2.285   2.109  0.00  0.00    +0.400 HD
ATOM      9  O   LIG    1       -0.105   1.543   2.296  0.00  0.00    -0.550 OA
ATOM     10  C   LIG    1       -2.795   2.154   0.066  0.00  0.00    +0.230 C 
BRANCH  10  11
ATOM     11  C   LIG    1       -4.221   1.709   0.394  0.00  0.00    +0.170 C 
ATOM     12  C   LIG    1       -4.788   2.572   1.542  0.00  0.00    +0.010 C 
ATOM     13  C   LIG    1       -5.577   1.526   2.379  0.00  0.00    +0.000 C 
ATOM     14  C   LIG    1       -4.694   0.268   2.188  0.00  0.00    +0.190 C 
ATOM     15  O   LIG    1       -4.216   0.347   0.836  0.00  0.00    -0.370 OA
ENDBRANCH  10  11
ENDBRANCH   1   3
BRANCH   1  16
ATOM     16  S   LIG    1       -2.744  -1.221  -1.941  0.00  0.00    +2.700 S 
ATOM     17  O   LIG    1       -3.794  -0.666  -2.721  0.00  0.00    -0.940 OA
ATOM     18  O   LIG    1       -2.831  -2.493  -1.313  0.00  0.00    -0.940 OA
BRANCH  16  22
ATOM     19  C   LIG    1        0.907  -1.370  -4.624  0.00  0.00    -0.000 A 
ATOM     20  C   LIG    1        0.805  -2.229  -3.528  0.00  0.00    +0.100 A 
ATOM     21  C   LIG    1       -0.309  -2.177  -2.716  0.00  0.00    +0.130 A 
ATOM     22  C   LIG    1       -1.326  -1.278  -2.985  0.00  0.00    -0.630 A 
ATOM     23  C   LIG    1       -1.237  -0.427  -4.071  0.00  0.00    +0.110 A 
ATOM     24  C   LIG    1       -0.124  -0.463  -4.891  0.00  0.00    +0.130 A 
ATOM     25  F   LIG    1       -0.035   0.373  -5.949  0.00  0.00    -0.120 F 
BRANCH  19  27
ATOM     26  N   LIG    1        2.975  -1.457  -6.144  0.00  0.00    -0.370 NA
ATOM     27  C   LIG    1        2.060  -1.419  -5.471  0.00  0.00    +0.240 C 
ENDBRANCH  19  27
ENDBRANCH  16  22
ENDBRANCH   1  16
TORSDOF 5
