REMARK  Name = ZINCrD00000hQ4tG.0
REMARK                            x       y       z     vdW  Elec       q    Type
REMARK                         _______ _______ _______ _____ _____    ______ ____
ROOT
ATOM      1  N   LIG    1       -7.009   4.486   2.758  0.00  0.00    -0.650 N 
ATOM      2  H   LIG    1       -7.977   4.474   2.814  0.00  0.00    +0.420 HD
ATOM      3  C   LIG    1       -6.348   3.414   2.278  0.00  0.00    +0.520 C 
ATOM      4  O   LIG    1       -5.138   3.429   2.208  0.00  0.00    -0.430 OA
ENDROOT
BRANCH   1   9
ATOM      5  C   LIG    1       -9.571   9.126   4.818  0.00  0.00    +0.180 C 
ATOM      6  C   LIG    1       -8.351   8.336   4.419  0.00  0.00    +0.030 A 
ATOM      7  C   LIG    1       -8.371   7.095   3.912  0.00  0.00    -0.150 A 
ATOM      8  C   LIG    1       -6.973   6.733   3.671  0.00  0.00    -0.260 A 
ATOM      9  C   LIG    1       -6.304   5.608   3.174  0.00  0.00    +0.460 A 
ATOM     10  N   LIG    1       -4.976   5.643   3.105  0.00  0.00    -0.520 NA
ATOM     11  C   LIG    1       -4.304   6.708   3.499  0.00  0.00    +0.570 A 
ATOM     12  N   LIG    1       -4.892   7.785   3.976  0.00  0.00    -0.530 NA
ATOM     13  C   LIG    1       -6.216   7.845   4.084  0.00  0.00    +0.320 A 
ATOM     14  C   LIG    1       -9.586   6.246   3.642  0.00  0.00    +0.130 C 
ATOM     15  O   LIG    1       -7.082   8.775   4.519  0.00  0.00    -0.170 OA
ENDBRANCH   1   9
BRANCH   3  16
ATOM     16  C   LIG    1       -7.114   2.197   1.827  0.00  0.00    -0.060 C 
ATOM     17  C   LIG    1       -6.974   0.924   2.665  0.00  0.00    +0.090 C 
ATOM     18  C   LIG    1       -6.306   1.013   1.291  0.00  0.00    +0.060 C 
BRANCH  18  19
ATOM     19  C   LIG    1       -4.806   1.154   1.255  0.00  0.00    -0.050 A 
ATOM     20  C   LIG    1       -4.106   1.377   2.425  0.00  0.00    +0.070 A 
ATOM     21  C   LIG    1       -2.730   1.507   2.396  0.00  0.00    +0.020 A 
ATOM     22  C   LIG    1       -2.049   1.415   1.191  0.00  0.00    +0.060 A 
ATOM     23  O   LIG    1       -0.694   1.553   1.177  0.00  0.00    -0.310 OA
ATOM     24  C   LIG    1       -0.013   1.086   0.008  0.00  0.00    +0.220 C 
ATOM     25  C   LIG    1       -0.767   1.600  -1.226  0.00  0.00    +0.220 C 
ATOM     26  O   LIG    1       -2.104   1.091  -1.178  0.00  0.00    -0.310 OA
ATOM     27  C   LIG    1       -2.753   1.189   0.014  0.00  0.00    +0.040 A 
ATOM     28  C   LIG    1       -4.133   1.059   0.051  0.00  0.00    +0.030 A 
ENDBRANCH  18  19
ENDBRANCH   3  16
TORSDOF 3
