REMARK  Name = ZINCpe00000RduQr.0
REMARK                            x       y       z     vdW  Elec       q    Type
REMARK                         _______ _______ _______ _____ _____    ______ ____
ROOT
ATOM      1  C   LIG    1       -1.327   1.937   0.017  0.00  0.00    +0.370 C 
ATOM      2  C   LIG    1       -1.453   2.785  -1.224  0.00  0.00    -0.260 A 
ATOM      3  C   LIG    1       -2.535   2.390  -1.927  0.00  0.00    +0.060 A 
ATOM      4  N   LIG    1       -2.619   3.168  -3.029  0.00  0.00    -0.340 N 
ATOM      5  N   LIG    1       -1.549   4.071  -3.000  0.00  0.00    -0.270 NA
ATOM      6  C   LIG    1       -3.646   3.082  -4.070  0.00  0.00    +0.360 C 
ATOM      7  C   LIG    1       -3.211   1.250  -1.207  0.00  0.00    +0.380 C 
ATOM      8  C   LIG    1       -0.850   3.842  -1.919  0.00  0.00    +0.300 A 
ATOM      9  N   LIG    1       -2.439   0.979   0.014  0.00  0.00    -0.600 N 
ATOM     10  C   LIG    1       -2.698   0.040   0.945  0.00  0.00    +0.560 C 
ATOM     11  O   LIG    1       -1.926  -0.133   1.864  0.00  0.00    -0.470 OA
ENDROOT
BRANCH  10  12
ATOM     12  C   LIG    1       -3.947  -0.797   0.844  0.00  0.00    +0.150 C 
ATOM     13  C   LIG    1       -3.816  -1.784  -0.324  0.00  0.00    +0.250 C 
ATOM     14  O   LIG    1       -5.011  -2.570  -0.383  0.00  0.00    -0.300 OA
ATOM     15  C   LIG    1       -5.467  -3.079   0.794  0.00  0.00    +0.040 A 
ATOM     16  C   LIG    1       -6.384  -4.119   0.776  0.00  0.00    +0.030 A 
ATOM     17  C   LIG    1       -6.862  -4.642   1.963  0.00  0.00    +0.030 A 
ATOM     18  C   LIG    1       -6.426  -4.130   3.171  0.00  0.00    +0.030 A 
ATOM     19  C   LIG    1       -5.511  -3.094   3.196  0.00  0.00    +0.030 A 
ATOM     20  C   LIG    1       -5.028  -2.566   2.009  0.00  0.00    +0.050 A 
ATOM     21  O   LIG    1       -4.124  -1.549   2.049  0.00  0.00    -0.280 OA
ENDBRANCH  10  12
BRANCH   1  22
ATOM     22  C   LIG    1       -0.014   1.197   0.001  0.00  0.00    +0.460 C 
ATOM     23  O   LIG    1       -0.002  -0.011  -0.008  0.00  0.00    -0.490 OA
BRANCH  22  25
ATOM     24  C   LIG    1        2.367   1.103  -0.032  0.00  0.00    +0.260 C 
ATOM     25  O   LIG    1        1.141   1.881  -0.010  0.00  0.00    -0.350 OA
ENDBRANCH  22  25
ENDBRANCH   1  22
TORSDOF 3
