REMARK  Name = ZINCpe000000TP5b.0
REMARK                            x       y       z     vdW  Elec       q    Type
REMARK                         _______ _______ _______ _____ _____    ______ ____
ROOT
ATOM      1  C   LIG    1        7.838  -2.900  -3.218  0.00  0.00    -0.280 A 
ATOM      2  C   LIG    1        7.241  -1.936  -2.381  0.00  0.00    +0.330 A 
ATOM      3  N   LIG    1        6.596  -2.029  -1.218  0.00  0.00    -0.440 NA
ATOM      4  C   LIG    1        6.125  -0.956  -0.620  0.00  0.00    +0.390 A 
ATOM      5  C   LIG    1        6.288   0.303  -1.208  0.00  0.00    -0.230 A 
ATOM      6  C   LIG    1        6.944   0.405  -2.392  0.00  0.00    +0.370 A 
ATOM      7  N   LIG    1        7.425  -0.724  -2.984  0.00  0.00    -0.300 N 
ATOM      8  N   LIG    1        8.125  -0.934  -4.177  0.00  0.00    -0.310 NA
ATOM      9  C   LIG    1        8.372  -2.209  -4.322  0.00  0.00    +0.380 A 
ENDROOT
BRANCH   1  10
ATOM     10  C   LIG    1        7.893  -4.344  -2.984  0.00  0.00    +0.540 C 
ATOM     11  O   LIG    1        7.389  -4.817  -1.982  0.00  0.00    -0.500 OA
BRANCH  10  12
ATOM     12  O   LIG    1        8.502  -5.149  -3.878  0.00  0.00    -0.360 OA
BRANCH  12  14
ATOM     13  C   LIG    1        9.246  -7.317  -4.700  0.00  0.00    +0.070 C 
ATOM     14  C   LIG    1        8.518  -6.571  -3.580  0.00  0.00    +0.210 C 
ENDBRANCH  12  14
ENDBRANCH  10  12
ENDBRANCH   1  10
BRANCH   5  15
ATOM     15  C   LIG    1        5.746   1.535  -0.530  0.00  0.00    +0.320 C 
BRANCH  15  16
ATOM     16  N   LIG    1        4.334   1.713  -0.894  0.00  0.00    -0.520 NA
ATOM     17  C   LIG    1        4.193   2.012  -2.326  0.00  0.00    +0.140 C 
ATOM     18  C   LIG    1        2.717   2.262  -2.651  0.00  0.00    +0.230 C 
ATOM     19  O   LIG    1        1.951   1.114  -2.272  0.00  0.00    -0.360 OA
ATOM     20  C   LIG    1        2.084   0.761  -0.902  0.00  0.00    +0.090 C 
ATOM     21  C   LIG    1        1.473   1.860  -0.002  0.00  0.00    +0.010 C 
ATOM     22  C   LIG    1       -0.017   1.433   0.010  0.00  0.00    +0.200 C 
ATOM     23  O   LIG    1        0.002  -0.004   0.002  0.00  0.00    -0.380 OA
ATOM     24  C   LIG    1        1.232  -0.473  -0.567  0.00  0.00    +0.240 C 
ATOM     25  C   LIG    1        3.542   0.527  -0.530  0.00  0.00    +0.180 C 
ENDBRANCH  15  16
ENDBRANCH   5  15
TORSDOF 5
