REMARK  Name = ZINCrD00000hQ4e8.0
REMARK                            x       y       z     vdW  Elec       q    Type
REMARK                         _______ _______ _______ _____ _____    ______ ____
ROOT
ATOM      1  C   LIG    1       -0.731   1.580   1.266  0.00  0.00    +0.220 C 
ATOM      2  C   LIG    1       -0.013   1.086   0.008  0.00  0.00    +0.200 C 
ATOM      3  N   LIG    1       -0.725   1.574  -1.182  0.00  0.00    -0.460 N 
ATOM      4  C   LIG    1       -0.792   3.042  -1.183  0.00  0.00    +0.170 C 
ATOM      5  C   LIG    1       -1.503   3.517   0.086  0.00  0.00    +0.240 C 
ATOM      6  C   LIG    1        0.626   3.618  -1.221  0.00  0.00    +0.020 C 
ATOM      7  O   LIG    1       -0.815   3.008   1.231  0.00  0.00    -0.370 OA
ENDROOT
BRANCH   1  14
ATOM      8  C   LIG    1       -1.166  -1.042   2.399  0.00  0.00    +0.090 C 
ATOM      9  C   LIG    1       -0.168  -0.105   3.030  0.00  0.00    -0.070 A 
ATOM     10  C   LIG    1        0.542  -0.501   4.147  0.00  0.00    +0.000 A 
ATOM     11  C   LIG    1        1.453   0.361   4.729  0.00  0.00    +0.010 A 
ATOM     12  C   LIG    1        1.657   1.617   4.190  0.00  0.00    -0.010 A 
ATOM     13  C   LIG    1        0.950   2.012   3.069  0.00  0.00    +0.040 A 
ATOM     14  C   LIG    1        0.040   1.150   2.488  0.00  0.00    -0.090 A 
ENDBRANCH   1  14
BRANCH   3  15
ATOM     15  C   LIG    1       -0.135   1.102  -2.341  0.00  0.00    +0.540 A 
ATOM     16  N   LIG    1        0.263   1.968  -3.261  0.00  0.00    -0.580 NA
ATOM     17  C   LIG    1        0.836   1.556  -4.383  0.00  0.00    +0.370 A 
ATOM     18  C   LIG    1        1.009   0.202  -4.594  0.00  0.00    -0.180 A 
ATOM     19  C   LIG    1        0.575  -0.688  -3.609  0.00  0.00    +0.460 A 
ATOM     20  N   LIG    1        0.012  -0.204  -2.506  0.00  0.00    -0.590 NA
BRANCH  19  21
ATOM     21  N   LIG    1        0.728  -2.054  -3.778  0.00  0.00    -0.700 N 
ATOM     22  H   LIG    1        0.424  -2.665  -3.089  0.00  0.00    +0.410 HD
BRANCH  21  23
ATOM     23  C   LIG    1        1.350  -2.575  -4.998  0.00  0.00    +0.220 C 
ATOM     24  C   LIG    1        0.872  -4.010  -5.243  0.00  0.00    +0.020 C 
ATOM     25  C   LIG    1        1.587  -4.571  -6.475  0.00  0.00    +0.010 C 
ATOM     26  C   LIG    1        3.101  -4.492  -6.258  0.00  0.00    +0.200 C 
ATOM     27  O   LIG    1        3.474  -3.136  -6.005  0.00  0.00    -0.370 OA
ATOM     28  C   LIG    1        2.872  -2.573  -4.838  0.00  0.00    +0.210 C 
ENDBRANCH  21  23
ENDBRANCH  19  21
ENDBRANCH   3  15
TORSDOF 4
