REMARK  Name = ZINCrH000004pQuJ.0
REMARK                            x       y       z     vdW  Elec       q    Type
REMARK                         _______ _______ _______ _____ _____    ______ ____
ROOT
ATOM      1  C   LIG    1        2.417   3.632  -2.417  0.00  0.00    -0.070 A 
ATOM      2  C   LIG    1        1.704   4.119  -1.320  0.00  0.00    +0.030 A 
ATOM      3  C   LIG    1        1.669   5.476  -1.071  0.00  0.00    +0.130 A 
ATOM      4  C   LIG    1        2.329   6.354  -1.913  0.00  0.00    -0.660 A 
ATOM      5  C   LIG    1        3.032   5.878  -3.005  0.00  0.00    +0.130 A 
ATOM      6  C   LIG    1        3.080   4.524  -3.262  0.00  0.00    +0.060 A 
ENDROOT
BRANCH   1  13
ATOM      7  C   LIG    1        3.932   1.480   1.849  0.00  0.00    +0.030 C 
ATOM      8  C   LIG    1        3.863   1.100   0.369  0.00  0.00    -0.030 C 
ATOM      9  C   LIG    1        3.717  -0.418   0.238  0.00  0.00    +0.030 C 
ATOM     10  C   LIG    1        3.681  -0.803  -1.243  0.00  0.00    -0.030 C 
ATOM     11  C   LIG    1        2.470  -0.142  -1.909  0.00  0.00    +0.280 C 
ATOM     12  N   LIG    1        2.527   1.306  -1.663  0.00  0.00    -0.600 N 
ATOM     13  C   LIG    1        2.463   2.179  -2.687  0.00  0.00    +0.550 C 
ATOM     14  O   LIG    1        2.445   1.773  -3.832  0.00  0.00    -0.520 OA
ATOM     15  C   LIG    1        3.568  -2.323  -1.373  0.00  0.00    +0.030 C 
ATOM     16  C   LIG    1        2.654   1.782  -0.279  0.00  0.00    +0.270 C 
ENDBRANCH   1  13
BRANCH   4  17
ATOM     17  S   LIG    1        2.273   8.085  -1.591  0.00  0.00    +2.690 S 
ATOM     18  O   LIG    1        3.348   8.663  -2.319  0.00  0.00    -0.940 OA
ATOM     19  O   LIG    1        2.122   8.228  -0.185  0.00  0.00    -0.940 OA
BRANCH  17  20
ATOM     20  N   LIG    1        0.881   8.666  -2.273  0.00  0.00    -1.050 N 
ATOM     21  H   LIG    1        0.203   9.080  -1.715  0.00  0.00    +0.430 HD
BRANCH  20  22
ATOM     22  C   LIG    1        0.681   8.561  -3.653  0.00  0.00    +0.130 A 
ATOM     23  C   LIG    1        1.696   8.916  -4.531  0.00  0.00    +0.050 A 
ATOM     24  C   LIG    1        1.499   8.806  -5.894  0.00  0.00    +0.020 A 
ATOM     25  C   LIG    1        0.286   8.352  -6.385  0.00  0.00    +0.100 A 
ATOM     26  C   LIG    1       -0.730   8.003  -5.510  0.00  0.00    +0.000 A 
ATOM     27  F   LIG    1        0.093   8.251  -7.718  0.00  0.00    -0.140 F 
ATOM     28  C   LIG    1       -0.535   8.106  -4.147  0.00  0.00    +0.040 A 
ENDBRANCH  20  22
ENDBRANCH  17  20
ENDBRANCH   4  17
TORSDOF 4
