REMARK  Name = ZINCpe00000MJLfF.0
REMARK                            x       y       z     vdW  Elec       q    Type
REMARK                         _______ _______ _______ _____ _____    ______ ____
ROOT
ATOM      1  C   LIG    1       -0.602   4.468  -0.117  0.00  0.00    +0.130 C 
ATOM      2  C   LIG    1        0.083   4.016  -1.410  0.00  0.00    +0.010 C 
ATOM      3  C   LIG    1       -0.221   2.534  -1.648  0.00  0.00    +0.040 C 
ATOM      4  C   LIG    1        0.258   1.721  -0.443  0.00  0.00    +0.160 C 
ATOM      5  N   LIG    1       -0.426   2.191   0.768  0.00  0.00    -0.500 NA
ATOM      6  C   LIG    1       -0.112   3.599   1.044  0.00  0.00    +0.220 C 
ENDROOT
BRANCH   1   7
ATOM      7  O   LIG    1       -2.017   4.330  -0.253  0.00  0.00    -0.530 OA
ATOM      8  H   LIG    1       -2.396   4.853  -0.973  0.00  0.00    +0.370 HD
ENDBRANCH   1   7
BRANCH   5   9
ATOM      9  C   LIG    1       -0.096   1.343   1.922  0.00  0.00    +0.350 C 
BRANCH   9  10
ATOM     10  C   LIG    1        1.346   1.555   2.304  0.00  0.00    +0.250 A 
ATOM     11  N   LIG    1        1.808   2.517   3.062  0.00  0.00    -0.530 NA
ATOM     12  C   LIG    1        3.128   2.396   3.192  0.00  0.00    +0.420 A 
ATOM     13  N   LIG    1        3.530   1.356   2.510  0.00  0.00    -0.310 NA
ATOM     14  N   LIG    1        2.387   0.790   1.921  0.00  0.00    -0.330 N 
BRANCH  14  15
ATOM     15  C   LIG    1        2.339  -0.345   1.099  0.00  0.00    +0.140 A 
ATOM     16  C   LIG    1        1.357  -1.306   1.297  0.00  0.00    +0.010 A 
ATOM     17  C   LIG    1        1.309  -2.420   0.482  0.00  0.00    +0.040 A 
ATOM     18  C   LIG    1        2.245  -2.584  -0.522  0.00  0.00    +0.020 A 
ATOM     19  C   LIG    1        3.227  -1.631  -0.719  0.00  0.00    +0.040 A 
ATOM     20  C   LIG    1        3.277  -0.512   0.089  0.00  0.00    +0.030 A 
ENDBRANCH  14  15
ENDBRANCH   9  10
ENDBRANCH   5   9
BRANCH   1  21
ATOM     21  C   LIG    1       -0.255   5.932   0.160  0.00  0.00    +0.320 C 
BRANCH  21  22
ATOM     22  N   LIG    1       -0.720   6.763  -0.954  0.00  0.00    -0.290 N 
ATOM     23  C   LIG    1       -1.540   7.834  -0.855  0.00  0.00    +0.150 A 
ATOM     24  C   LIG    1       -1.708   8.298  -2.115  0.00  0.00    +0.140 A 
ATOM     25  N   LIG    1       -0.991   7.499  -2.913  0.00  0.00    -0.270 NA
ATOM     26  N   LIG    1       -0.413   6.603  -2.194  0.00  0.00    -0.090 NA
ENDBRANCH  21  22
ENDBRANCH   1  21
TORSDOF 6
