REMARK  Name = ZINCtV000002HTtz.0
REMARK                            x       y       z     vdW  Elec       q    Type
REMARK                         _______ _______ _______ _____ _____    ______ ____
ROOT
ATOM      1  N   LIG    1       -3.595   6.182   0.467  0.00  0.00    -0.680 N 
ATOM      2  H   LIG    1       -4.109   6.289  -0.349  0.00  0.00    +0.410 HD
ATOM      3  C   LIG    1       -2.260   6.362   0.450  0.00  0.00    +0.730 C 
ATOM      4  N   LIG    1       -1.626   6.599  -0.715  0.00  0.00    -0.620 N 
ATOM      5  C   LIG    1       -2.267   6.686  -2.040  0.00  0.00    +0.260 C 
ATOM      6  C   LIG    1       -1.142   6.345  -3.049  0.00  0.00    +0.050 C 
ATOM      7  C   LIG    1        0.087   7.018  -2.383  0.00  0.00    +0.070 C 
ATOM      8  C   LIG    1       -0.180   6.814  -0.877  0.00  0.00    +0.370 C 
ATOM      9  O   LIG    1       -1.626   6.311   1.487  0.00  0.00    -0.560 OA
ENDROOT
BRANCH   1  14
ATOM     10  C   LIG    1       -6.211   4.796   5.306  0.00  0.00    +0.100 C 
ATOM     11  C   LIG    1       -5.516   5.164   4.021  0.00  0.00    -0.100 A 
ATOM     12  C   LIG    1       -4.426   6.014   4.045  0.00  0.00    +0.020 A 
ATOM     13  C   LIG    1       -3.786   6.353   2.869  0.00  0.00    +0.030 A 
ATOM     14  C   LIG    1       -4.240   5.840   1.661  0.00  0.00    +0.160 A 
ATOM     15  C   LIG    1       -5.339   4.991   1.639  0.00  0.00    -0.020 A 
ATOM     16  C   LIG    1       -5.971   4.652   2.820  0.00  0.00    +0.030 A 
ENDBRANCH   1  14
BRANCH   8  17
ATOM     17  C   LIG    1        0.575   5.607  -0.381  0.00  0.00    +0.190 A 
ATOM     18  N   LIG    1        0.262   4.368  -0.624  0.00  0.00    -0.450 NA
ATOM     19  C   LIG    1        1.164   3.567  -0.014  0.00  0.00    +0.020 A 
ATOM     20  C   LIG    1        2.059   4.369   0.612  0.00  0.00    -0.010 A 
ATOM     21  O   LIG    1        1.680   5.639   0.376  0.00  0.00    -0.190 OA
BRANCH  19  22
ATOM     22  C   LIG    1        1.176   2.083  -0.033  0.00  0.00    -0.010 A 
ATOM     23  C   LIG    1       -0.024   1.374  -0.029  0.00  0.00    +0.030 A 
ATOM     24  C   LIG    1       -0.007  -0.006  -0.046  0.00  0.00    +0.010 A 
ATOM     25  C   LIG    1        1.197  -0.685  -0.068  0.00  0.00    +0.000 A 
ATOM     26  C   LIG    1        2.391   0.013  -0.072  0.00  0.00    +0.010 A 
ATOM     27  C   LIG    1        2.386   1.393  -0.054  0.00  0.00    +0.020 A 
ENDBRANCH  19  22
BRANCH  20  28
ATOM     28  C   LIG    1        3.250   3.924   1.421  0.00  0.00    +0.090 C 
ATOM     29  C   LIG    1        3.118   4.444   2.853  0.00  0.00    +0.040 C 
ATOM     30  C   LIG    1        4.529   4.480   0.792  0.00  0.00    +0.040 C 
ENDBRANCH  20  28
ENDBRANCH   8  17
TORSDOF 4
