REMARK  Name = ZINCrg00001JduWU.0
REMARK                            x       y       z     vdW  Elec       q    Type
REMARK                         _______ _______ _______ _____ _____    ______ ____
ROOT
ATOM      1  N   LIG    1        4.864   7.755   0.576  0.00  0.00    -0.610 N 
ATOM      2  C   LIG    1        5.190   6.835   1.501  0.00  0.00    +0.520 C 
ATOM      3  C   LIG    1        4.283   5.631   1.380  0.00  0.00    +0.050 C 
ATOM      4  C   LIG    1        3.637   5.781  -0.017  0.00  0.00    +0.000 C 
ATOM      5  O   LIG    1        6.082   6.955   2.314  0.00  0.00    -0.510 OA
ATOM      6  C   LIG    1        3.734   7.306  -0.246  0.00  0.00    +0.320 C 
ENDROOT
BRANCH   6   7
ATOM      7  C   LIG    1        3.998   7.599  -1.700  0.00  0.00    -0.260 A 
ATOM      8  C   LIG    1        5.165   7.395  -2.354  0.00  0.00    +0.110 A 
ATOM      9  N   LIG    1        4.992   7.783  -3.635  0.00  0.00    -0.370 N 
ATOM     10  N   LIG    1        3.675   8.241  -3.772  0.00  0.00    -0.290 NA
ATOM     11  C   LIG    1        6.002   7.733  -4.695  0.00  0.00    +0.360 C 
ATOM     12  C   LIG    1        6.431   6.834  -1.759  0.00  0.00    +0.140 C 
ATOM     13  C   LIG    1        3.079   8.125  -2.614  0.00  0.00    +0.260 A 
ENDBRANCH   6   7
BRANCH   1  14
ATOM     14  C   LIG    1        5.549   9.039   0.410  0.00  0.00    +0.310 C 
BRANCH  14  15
ATOM     15  C   LIG    1        4.869  10.096   1.282  0.00  0.00    +0.150 C 
BRANCH  15  17
ATOM     16  C   LIG    1        4.433  10.683   3.565  0.00  0.00    +0.200 C 
ATOM     17  O   LIG    1        5.035   9.755   2.660  0.00  0.00    -0.380 OA
ENDBRANCH  15  17
ENDBRANCH  14  15
ENDBRANCH   1  14
BRANCH   4  18
ATOM     18  C   LIG    1        2.178   5.322   0.003  0.00  0.00    +0.290 C 
BRANCH  18  19
ATOM     19  N   LIG    1        2.126   3.864   0.135  0.00  0.00    -0.700 N 
ATOM     20  H   LIG    1        2.949   3.353   0.194  0.00  0.00    +0.410 HD
BRANCH  19  21
ATOM     21  C   LIG    1        0.903   3.215   0.175  0.00  0.00    +0.380 A 
ATOM     22  C   LIG    1       -0.281   3.951   0.090  0.00  0.00    +0.190 A 
ATOM     23  N   LIG    1       -1.444   3.336   0.129  0.00  0.00    -0.370 NA
ATOM     24  C   LIG    1       -1.492   2.009   0.244  0.00  0.00    +0.060 A 
ATOM     25  C   LIG    1       -0.309   1.274   0.334  0.00  0.00    +0.350 A 
ATOM     26  N   LIG    1        0.857   1.893   0.295  0.00  0.00    -0.500 NA
BRANCH  24  27
ATOM     27  C   LIG    1       -2.756   1.338   0.280  0.00  0.00    +0.270 C 
ATOM     28  N   LIG    1       -3.759   0.806   0.309  0.00  0.00    -0.390 NA
ENDBRANCH  24  27
ENDBRANCH  19  21
ENDBRANCH  18  19
ENDBRANCH   4  18
TORSDOF 8
