REMARK  Name = ZINCvU0000000CEa.0
REMARK                            x       y       z     vdW  Elec       q    Type
REMARK                         _______ _______ _______ _____ _____    ______ ____
ROOT
ATOM      1  C   LIG    1       -4.494  -0.317   2.828  0.00  0.00    +0.140 A 
ATOM      2  C   LIG    1       -5.606  -1.132   2.996  0.00  0.00    -0.040 A 
ATOM      3  C   LIG    1       -6.352  -1.518   1.905  0.00  0.00    +0.050 A 
ATOM      4  C   LIG    1       -5.989  -1.088   0.621  0.00  0.00    -0.110 A 
ATOM      5  C   LIG    1       -4.869  -0.261   0.454  0.00  0.00    +0.020 A 
ATOM      6  C   LIG    1       -4.125   0.116   1.553  0.00  0.00    +0.100 A 
ENDROOT
BRANCH   1   8
ATOM      7  C   LIG    1       -4.195  -0.418   5.183  0.00  0.00    +0.250 C 
ATOM      8  O   LIG    1       -3.763   0.060   3.908  0.00  0.00    -0.300 OA
ENDBRANCH   1   8
BRANCH   4   9
ATOM      9  C   LIG    1       -6.781  -1.495  -0.542  0.00  0.00    +0.260 C 
ATOM     10  C   LIG    1       -8.129  -1.745  -0.404  0.00  0.00    -0.140 C 
BRANCH  10  11
ATOM     11  C   LIG    1       -8.893  -2.301  -1.532  0.00  0.00    +0.580 C 
ATOM     12  N   LIG    1      -10.212  -2.545  -1.397  0.00  0.00    -0.660 N 
ATOM     13  H   LIG    1      -10.672  -2.287  -0.583  0.00  0.00    +0.410 HD
ATOM     14  O   LIG    1       -8.335  -2.539  -2.586  0.00  0.00    -0.510 OA
BRANCH  12  15
ATOM     15  C   LIG    1      -10.916  -3.172  -2.430  0.00  0.00    +0.140 A 
ATOM     16  C   LIG    1      -10.561  -2.942  -3.753  0.00  0.00    +0.020 A 
ATOM     17  C   LIG    1      -11.255  -3.567  -4.771  0.00  0.00    +0.020 A 
ATOM     18  C   LIG    1      -12.310  -4.411  -4.474  0.00  0.00    -0.010 A 
ATOM     19  C   LIG    1      -12.669  -4.637  -3.158  0.00  0.00    +0.030 A 
ATOM     20  C   LIG    1      -11.975  -4.021  -2.135  0.00  0.00    -0.110 A 
ATOM     21  C   LIG    1      -12.368  -4.268  -0.701  0.00  0.00    +0.080 C 
ENDBRANCH  12  15
ENDBRANCH  10  11
BRANCH  10  22
ATOM     22  C   LIG    1       -8.786  -1.465   0.837  0.00  0.00    +0.240 C 
ATOM     23  N   LIG    1       -9.308  -1.242   1.822  0.00  0.00    -0.400 NA
ENDBRANCH  10  22
ENDBRANCH   4   9
BRANCH   6  24
ATOM     24  O   LIG    1       -3.035   0.913   1.395  0.00  0.00    -0.290 OA
BRANCH  24  25
ATOM     25  C   LIG    1       -2.715   1.319   0.063  0.00  0.00    +0.260 C 
BRANCH  25  26
ATOM     26  C   LIG    1       -1.487   2.191   0.084  0.00  0.00    -0.090 A 
ATOM     27  C   LIG    1       -0.233   1.622  -0.035  0.00  0.00    +0.060 A 
ATOM     28  C   LIG    1        0.894   2.422  -0.021  0.00  0.00    +0.030 A 
ATOM     29  C   LIG    1        0.767   3.793   0.117  0.00  0.00    -0.020 A 
ATOM     30  C   LIG    1       -0.488   4.362   0.242  0.00  0.00    +0.030 A 
ATOM     31 CL   LIG    1        2.182   4.799   0.134  0.00  0.00    -0.060 Cl
ATOM     32  C   LIG    1       -1.614   3.560   0.229  0.00  0.00    +0.060 A 
ENDBRANCH  25  26
ENDBRANCH  24  25
ENDBRANCH   6  24
TORSDOF 8
