REMARK  Name = ZINCvU0000000CEA.1
REMARK                            x       y       z     vdW  Elec       q    Type
REMARK                         _______ _______ _______ _____ _____    ______ ____
ROOT
ATOM      1  N   LIG    1       -2.925   3.280   1.463  0.00  0.00    -0.710 N 
ATOM      2  H   LIG    1       -3.355   3.512   0.625  0.00  0.00    +0.410 HD
ATOM      3  C   LIG    1       -3.446   3.709   2.629  0.00  0.00    +0.550 C 
ATOM      4  O   LIG    1       -2.908   3.419   3.680  0.00  0.00    -0.510 OA
ENDROOT
BRANCH   3   5
ATOM      5  C   LIG    1       -4.670   4.531   2.631  0.00  0.00    -0.130 A 
ATOM      6  C   LIG    1       -5.290   4.873   1.427  0.00  0.00    +0.070 A 
ATOM      7  C   LIG    1       -6.436   5.638   1.436  0.00  0.00    -0.010 A 
ATOM      8  C   LIG    1       -6.973   6.080   2.634  0.00  0.00    +0.060 A 
ATOM      9  C   LIG    1       -6.371   5.756   3.832  0.00  0.00    -0.020 A 
ATOM     10  C   LIG    1       -5.217   4.981   3.844  0.00  0.00    -0.050 A 
BRANCH  10  11
ATOM     11  S   LIG    1       -4.446   4.565   5.373  0.00  0.00    +0.020 S 
BRANCH  11  12
ATOM     12  C   LIG    1       -5.514   5.366   6.601  0.00  0.00    +0.080 C 
BRANCH  12  13
ATOM     13  C   LIG    1       -4.978   5.099   7.983  0.00  0.00    -0.090 A 
ATOM     14  C   LIG    1       -4.096   5.904   8.579  0.00  0.00    -0.030 A 
ATOM     15  S   LIG    1       -3.706   5.273  10.174  0.00  0.00    +0.110 S 
ATOM     16  C   LIG    1       -4.794   3.912   9.935  0.00  0.00    -0.040 A 
ATOM     17  C   LIG    1       -5.367   4.003   8.734  0.00  0.00    +0.010 A 
ENDBRANCH  12  13
ENDBRANCH  11  12
ENDBRANCH  10  11
ENDBRANCH   3   5
BRANCH   1  18
ATOM     18  C   LIG    1       -1.709   2.463   1.461  0.00  0.00    +0.280 C 
BRANCH  18  19
ATOM     19  C   LIG    1       -1.333   2.113   0.020  0.00  0.00    +0.210 C 
BRANCH  19  23
ATOM     20  C   LIG    1        2.394   0.021  -0.003  0.00  0.00    +0.130 A 
ATOM     21  C   LIG    1        2.187   1.063   0.889  0.00  0.00    -0.020 A 
ATOM     22  C   LIG    1        0.983   1.739   0.893  0.00  0.00    +0.060 A 
ATOM     23  C   LIG    1       -0.017   1.378   0.009  0.00  0.00    -0.160 A 
ATOM     24  C   LIG    1        0.186   0.340  -0.882  0.00  0.00    +0.070 A 
ATOM     25  C   LIG    1        1.390  -0.339  -0.890  0.00  0.00    -0.080 A 
BRANCH  20  27
ATOM     26  C   LIG    1        3.720  -1.707  -0.955  0.00  0.00    +0.250 C 
ATOM     27  O   LIG    1        3.578  -0.646  -0.009  0.00  0.00    -0.320 OA
ENDBRANCH  20  27
ENDBRANCH  19  23
BRANCH  19  28
ATOM     28  N   LIG    1       -1.211   3.346  -0.768  0.00  0.00    -0.500 NA
ATOM     29  C   LIG    1       -0.047   4.153  -0.319  0.00  0.00    +0.160 C 
ATOM     30  C   LIG    1        0.236   5.073  -1.533  0.00  0.00    +0.020 C 
ATOM     31  C   LIG    1       -0.044   4.150  -2.740  0.00  0.00    +0.000 C 
ATOM     32  C   LIG    1       -0.964   3.042  -2.195  0.00  0.00    +0.160 C 
ENDBRANCH  19  28
ENDBRANCH  18  19
ENDBRANCH   1  18
TORSDOF 9
