REMARK  Name = ZINCrg00000J3yov.0
REMARK                            x       y       z     vdW  Elec       q    Type
REMARK                         _______ _______ _______ _____ _____    ______ ____
ROOT
ATOM      1  N   LIG    1       -6.062   3.470   1.695  0.00  0.00    -1.110 NA
ATOM      2  H   LIG    1       -6.730   4.109   1.988  0.00  0.00    +0.420 HD
ENDROOT
BRANCH   1   7
ATOM      3  N   LIG    1       -8.239   0.514   1.054  0.00  0.00    -0.570 N 
ATOM      4  C   LIG    1       -8.426   0.576  -0.402  0.00  0.00    +0.290 C 
ATOM      5  C   LIG    1       -7.129   1.076  -1.045  0.00  0.00    +0.030 C 
ATOM      6  C   LIG    1       -6.726   2.407  -0.406  0.00  0.00    +0.000 C 
ATOM      7  C   LIG    1       -6.477   2.202   1.090  0.00  0.00    +0.230 C 
ATOM      8  C   LIG    1       -7.767   1.715   1.757  0.00  0.00    +0.310 C 
BRANCH   3  16
ATOM      9  O   LIG    1       -9.409  -1.748  -0.109  0.00  0.00    -0.530 OA
ATOM     10  C   LIG    1       -9.119  -1.804   1.075  0.00  0.00    +0.490 A 
ATOM     11  N   LIG    1       -9.357  -2.923   1.793  0.00  0.00    -0.590 N 
ATOM     12  H   LIG    1       -9.763  -3.699   1.375  0.00  0.00    +0.420 HD
ATOM     13  C   LIG    1       -9.020  -2.948   3.114  0.00  0.00    +0.170 A 
ATOM     14  C   LIG    1       -8.454  -1.874   3.705  0.00  0.00    +0.190 A 
ATOM     15  N   LIG    1       -8.200  -0.755   3.028  0.00  0.00    -0.500 NA
ATOM     16  C   LIG    1       -8.503  -0.657   1.752  0.00  0.00    +0.350 A 
ENDBRANCH   3  16
ENDBRANCH   1   7
BRANCH   1  17
ATOM     17  S   LIG    1       -4.452   3.812   1.878  0.00  0.00    +2.620 S 
ATOM     18  O   LIG    1       -4.434   5.085   2.509  0.00  0.00    -0.930 OA
ATOM     19  O   LIG    1       -3.922   2.665   2.528  0.00  0.00    -0.930 OA
BRANCH  17  20
ATOM     20  C   LIG    1       -3.819   3.933   0.183  0.00  0.00    -0.250 C 
BRANCH  20  21
ATOM     21  C   LIG    1       -2.345   4.245   0.218  0.00  0.00    +0.130 A 
ATOM     22  N   LIG    1       -1.810   5.427   0.228  0.00  0.00    -0.260 NA
ATOM     23  O   LIG    1       -0.402   5.314   0.263  0.00  0.00    -0.080 OA
ATOM     24  C   LIG    1       -0.059   4.010   0.275  0.00  0.00    +0.090 A 
ATOM     25  C   LIG    1        1.159   3.343   0.306  0.00  0.00    +0.020 A 
ATOM     26  C   LIG    1        1.186   1.965   0.311  0.00  0.00    +0.100 A 
ATOM     27  C   LIG    1        0.005   1.236   0.283  0.00  0.00    +0.000 A 
ATOM     28  C   LIG    1       -1.203   1.873   0.247  0.00  0.00    +0.110 A 
ATOM     29  C   LIG    1       -1.252   3.269   0.247  0.00  0.00    -0.200 A 
ENDBRANCH  20  21
ENDBRANCH  17  20
ENDBRANCH   1  17
TORSDOF 5
