REMARK  Name = ZINC650000002yA9.0
REMARK                            x       y       z     vdW  Elec       q    Type
REMARK                         _______ _______ _______ _____ _____    ______ ____
ROOT
ATOM      1  C   LIG    1       -1.330   1.951   0.019  0.00  0.00    +0.080 C 
ENDROOT
BRANCH   1   2
ATOM      2  C   LIG    1       -0.015   1.215   0.009  0.00  0.00    +0.500 C 
ATOM      3  O   LIG    1        1.033   1.839   0.002  0.00  0.00    -0.700 OA
ATOM      4  O   LIG    1        0.002  -0.004   0.002  0.00  0.00    -0.680 OA
ENDBRANCH   1   2
BRANCH   1   6
ATOM      5  C   LIG    1       -3.701   1.604   0.028  0.00  0.00    +0.170 C 
ATOM      6  O   LIG    1       -2.403   1.007   0.019  0.00  0.00    -0.370 OA
ENDBRANCH   1   6
TORSDOF 2
