REMARK  Name = ZINCrD0000073nJT.0
REMARK                            x       y       z     vdW  Elec       q    Type
REMARK                         _______ _______ _______ _____ _____    ______ ____
ROOT
ATOM      1  N   LIG    1        4.181   2.119  -1.494  0.00  0.00    -0.530 NA
ATOM      2  C   LIG    1        4.356   0.775  -2.061  0.00  0.00    +0.190 C 
ENDROOT
BRANCH   1   3
ATOM      3  C   LIG    1        5.432   2.886  -1.561  0.00  0.00    +0.250 C 
BRANCH   3   9
ATOM      4  C   LIG    1        5.155   4.179  -3.693  0.00  0.00    +0.190 A 
ATOM      5  C   LIG    1        5.475   4.428  -5.023  0.00  0.00    -0.090 A 
ATOM      6  C   LIG    1        6.417   3.652  -5.661  0.00  0.00    +0.110 A 
ATOM      7  C   LIG    1        7.050   2.615  -4.965  0.00  0.00    -0.220 A 
ATOM      8  C   LIG    1        6.724   2.377  -3.624  0.00  0.00    +0.120 A 
ATOM      9  C   LIG    1        5.784   3.148  -3.002  0.00  0.00    -0.130 A 
BRANCH   7  10
ATOM     10  C   LIG    1        8.056   1.783  -5.638  0.00  0.00    +0.400 C 
ATOM     11  O   LIG    1        8.603   0.885  -5.034  0.00  0.00    -0.460 OA
ATOM     12  C   LIG    1        8.408   2.045  -7.080  0.00  0.00    +0.080 C 
ENDBRANCH   7  10
BRANCH   4  14
ATOM     13  C   LIG    1        3.619   5.986  -3.833  0.00  0.00    +0.240 C 
ATOM     14  O   LIG    1        4.227   4.944  -3.066  0.00  0.00    -0.300 OA
ENDBRANCH   4  14
ENDBRANCH   3   9
ENDBRANCH   1   3
BRANCH   1  15
ATOM     15  C   LIG    1        3.680   2.047  -0.115  0.00  0.00    +0.250 C 
BRANCH  15  16
ATOM     16  C   LIG    1        2.228   1.645  -0.128  0.00  0.00    -0.050 A 
ATOM     17  C   LIG    1        1.550   1.540  -1.327  0.00  0.00    +0.050 A 
ATOM     18  C   LIG    1        0.217   1.171  -1.339  0.00  0.00    +0.000 A 
ATOM     19  C   LIG    1       -0.442   0.907  -0.153  0.00  0.00    +0.010 A 
ATOM     20  C   LIG    1        0.230   1.010   1.050  0.00  0.00    -0.030 A 
ATOM     21  C   LIG    1        1.569   1.380   1.066  0.00  0.00    +0.080 A 
BRANCH  21  22
ATOM     22  N   LIG    1        2.251   1.484   2.280  0.00  0.00    -0.500 N 
ATOM     23  C   LIG    1        2.305   0.186   2.968  0.00  0.00    +0.160 C 
ATOM     24  C   LIG    1        3.111   0.333   4.262  0.00  0.00    +0.220 C 
ATOM     25  O   LIG    1        2.519   1.351   5.073  0.00  0.00    -0.380 OA
ATOM     26  C   LIG    1        2.451   2.629   4.434  0.00  0.00    +0.220 C 
ATOM     27  C   LIG    1        1.639   2.506   3.143  0.00  0.00    +0.160 C 
ENDBRANCH  21  22
ENDBRANCH  15  16
ENDBRANCH   1  15
TORSDOF 7
