REMARK  Name = ZINCvU00000008Kw.0
REMARK                            x       y       z     vdW  Elec       q    Type
REMARK                         _______ _______ _______ _____ _____    ______ ____
ROOT
ATOM      1  N   LIG    1        2.317   3.980   0.117  0.00  0.00    -0.310 N 
ATOM      2  N   LIG    1        3.506   3.633   0.778  0.00  0.00    -0.270 NA
ATOM      3  C   LIG    1        4.436   4.445   0.345  0.00  0.00    +0.230 A 
ATOM      4  N   LIG    1        3.911   5.287  -0.539  0.00  0.00    -0.510 NA
ATOM      5  C   LIG    1        2.627   5.027  -0.696  0.00  0.00    +0.310 A 
ENDROOT
BRANCH   5   6
ATOM      6  C   LIG    1        1.695   5.742  -1.592  0.00  0.00    +0.010 A 
ATOM      7  C   LIG    1        1.657   7.147  -1.593  0.00  0.00    -0.150 A 
ATOM      8  S   LIG    1        2.562   8.344  -0.672  0.00  0.00    +0.210 S 
ATOM      9  C   LIG    1        1.730   9.612  -1.455  0.00  0.00    -0.010 A 
ATOM     10  N   LIG    1        0.881   9.163  -2.300  0.00  0.00    -0.430 NA
ATOM     11  C   LIG    1        0.776   7.827  -2.439  0.00  0.00    +0.080 A 
ATOM     12  C   LIG    1       -0.064   7.075  -3.284  0.00  0.00    +0.120 A 
ATOM     13  C   LIG    1       -0.018   5.702  -3.275  0.00  0.00    +0.040 A 
ATOM     14  C   LIG    1        0.857   5.028  -2.441  0.00  0.00    +0.090 A 
BRANCH   9  15
ATOM     15  C   LIG    1        1.966  11.075  -1.184  0.00  0.00    +0.500 C 
ATOM     16  F   LIG    1        3.298  11.394  -1.468  0.00  0.00    -0.180 F 
ATOM     17  F   LIG    1        1.697  11.350   0.161  0.00  0.00    -0.180 F 
ENDBRANCH   9  15
ENDBRANCH   5   6
BRANCH   1  21
ATOM     18  C   LIG    1       -1.418   2.178   0.558  0.00  0.00    +0.150 A 
ATOM     19  C   LIG    1       -0.275   1.395   0.481  0.00  0.00    +0.010 A 
ATOM     20  C   LIG    1        0.962   1.991   0.333  0.00  0.00    +0.090 A 
ATOM     21  C   LIG    1        1.062   3.374   0.267  0.00  0.00    +0.090 A 
ATOM     22  C   LIG    1       -0.082   4.157   0.351  0.00  0.00    +0.060 A 
ATOM     23  C   LIG    1       -1.318   3.560   0.499  0.00  0.00    -0.050 A 
BRANCH  18  24
ATOM     24  O   LIG    1       -2.636   1.590   0.698  0.00  0.00    -0.310 OA
BRANCH  24  26
ATOM     25  C   LIG    1       -5.041   1.620   0.927  0.00  0.00    +0.070 C 
ATOM     26  C   LIG    1       -3.770   2.456   0.772  0.00  0.00    +0.190 C 
ENDBRANCH  24  26
ENDBRANCH  18  24
ENDBRANCH   1  21
BRANCH   3  27
ATOM     27  C   LIG    1        5.878   4.431   0.785  0.00  0.00    +0.270 C 
ATOM     28  C   LIG    1        6.599   3.250   0.133  0.00  0.00    +0.040 C 
BRANCH  27  29
ATOM     29  O   LIG    1        5.940   4.301   2.207  0.00  0.00    -0.370 OA
BRANCH  29  30
ATOM     30  C   LIG    1        7.083   4.924   2.798  0.00  0.00    +0.160 C 
ATOM     31  C   LIG    1        7.046   4.723   4.314  0.00  0.00    +0.040 C 
ENDBRANCH  29  30
ENDBRANCH  27  29
ENDBRANCH   3  27
TORSDOF 8
