REMARK  Name = ZINCvU00000005le.0
REMARK                            x       y       z     vdW  Elec       q    Type
REMARK                         _______ _______ _______ _____ _____    ______ ____
ROOT
ATOM      1  C   LIG    1       -1.112  -0.559   0.864  0.00  0.00    +0.290 A 
ATOM      2  N   LIG    1       -1.253  -0.341   2.139  0.00  0.00    -0.480 NA
ATOM      3  C   LIG    1       -2.354  -0.993   2.595  0.00  0.00    +0.050 A 
ATOM      4  C   LIG    1       -2.958  -1.102   3.850  0.00  0.00    +0.070 A 
ATOM      5  C   LIG    1       -4.091  -1.852   3.997  0.00  0.00    +0.000 A 
ATOM      6  C   LIG    1       -4.650  -2.510   2.911  0.00  0.00    +0.030 A 
ATOM      7  C   LIG    1       -4.071  -2.416   1.663  0.00  0.00    +0.010 A 
ATOM      8  C   LIG    1       -2.920  -1.658   1.494  0.00  0.00    +0.060 A 
ATOM      9  N   LIG    1       -2.115  -1.360   0.413  0.00  0.00    -0.480 N 
ENDROOT
BRANCH   1  12
ATOM     10  N   LIG    1        1.390   1.951  -0.001  0.00  0.00    -0.550 N 
ATOM     11  C   LIG    1       -0.020   1.545   0.025  0.00  0.00    +0.300 C 
ATOM     12  C   LIG    1       -0.004   0.000   0.010  0.00  0.00    +0.090 C 
ATOM     13  C   LIG    1        1.380  -0.307   0.628  0.00  0.00    +0.100 C 
ATOM     14  C   LIG    1        2.198   0.932   0.339  0.00  0.00    +0.520 C 
ATOM     15  O   LIG    1        3.408   0.997   0.404  0.00  0.00    -0.500 OA
BRANCH  10  19
ATOM     16  C   LIG    1        2.718   5.776  -0.999  0.00  0.00    +0.110 A 
ATOM     17  C   LIG    1        1.373   5.455  -1.119  0.00  0.00    +0.020 A 
ATOM     18  C   LIG    1        0.933   4.189  -0.789  0.00  0.00    +0.010 A 
ATOM     19  C   LIG    1        1.836   3.236  -0.337  0.00  0.00    +0.130 A 
ATOM     20  C   LIG    1        3.181   3.559  -0.212  0.00  0.00    +0.050 A 
ATOM     21  C   LIG    1        3.621   4.824  -0.547  0.00  0.00    -0.050 A 
BRANCH  16  23
ATOM     22  C   LIG    1        4.548   7.284  -1.176  0.00  0.00    +0.250 C 
ATOM     23  O   LIG    1        3.151   7.023  -1.324  0.00  0.00    -0.320 OA
ENDBRANCH  16  23
ENDBRANCH  10  19
ENDBRANCH   1  12
BRANCH   9  24
ATOM     24  C   LIG    1       -2.304  -1.823  -0.964  0.00  0.00    +0.370 C 
BRANCH  24  25
ATOM     25  C   LIG    1       -1.576  -3.129  -1.159  0.00  0.00    -0.120 A 
ATOM     26  C   LIG    1       -0.263  -3.131  -1.589  0.00  0.00    +0.040 A 
ATOM     27  C   LIG    1        0.406  -4.328  -1.763  0.00  0.00    +0.030 A 
ATOM     28  C   LIG    1       -0.243  -5.524  -1.516  0.00  0.00    -0.020 A 
ATOM     29  C   LIG    1       -1.559  -5.522  -1.091  0.00  0.00    +0.030 A 
ATOM     30 CL   LIG    1        0.595  -7.029  -1.742  0.00  0.00    -0.060 Cl
ATOM     31  C   LIG    1       -2.225  -4.325  -0.913  0.00  0.00    +0.050 A 
ENDBRANCH  24  25
ENDBRANCH   9  24
TORSDOF 5
