REMARK  Name = ZINCvU0000000JEU.0
REMARK                            x       y       z     vdW  Elec       q    Type
REMARK                         _______ _______ _______ _____ _____    ______ ____
ROOT
ATOM      1  C   LIG    1       -5.520   3.682  -0.123  0.00  0.00    +0.420 A 
ATOM      2  C   LIG    1       -4.215   3.469  -0.597  0.00  0.00    -0.280 A 
ATOM      3  S   LIG    1       -3.426   2.034  -1.234  0.00  0.00    +0.180 S 
ATOM      4  C   LIG    1       -1.925   2.910  -1.479  0.00  0.00    -0.090 A 
ATOM      5  C   LIG    1       -2.054   4.184  -1.089  0.00  0.00    +0.040 A 
ATOM      6  C   LIG    1       -3.316   4.540  -0.597  0.00  0.00    +0.190 A 
ATOM      7  N   LIG    1       -3.756   5.734  -0.135  0.00  0.00    -0.510 NA
ATOM      8  C   LIG    1       -4.983   5.882   0.297  0.00  0.00    +0.530 A 
ATOM      9  N   LIG    1       -5.857   4.891   0.310  0.00  0.00    -0.550 NA
ENDROOT
BRANCH   4  10
ATOM     10  C   LIG    1       -0.686   2.321  -2.032  0.00  0.00    -0.040 A 
ATOM     11  C   LIG    1        0.454   3.110  -2.190  0.00  0.00    +0.080 A 
ATOM     12  C   LIG    1        1.605   2.556  -2.712  0.00  0.00    -0.010 A 
ATOM     13  C   LIG    1        1.629   1.220  -3.079  0.00  0.00    +0.110 A 
ATOM     14  C   LIG    1        0.499   0.433  -2.924  0.00  0.00    -0.010 A 
ATOM     15  F   LIG    1        2.759   0.683  -3.590  0.00  0.00    -0.130 F 
ATOM     16  C   LIG    1       -0.656   0.976  -2.403  0.00  0.00    +0.060 A 
ENDBRANCH   4  10
BRANCH   1  20
ATOM     17  C   LIG    1       -8.272   0.746   1.065  0.00  0.00    -0.010 C 
ATOM     18  C   LIG    1       -8.762   1.974   0.294  0.00  0.00    +0.070 C 
ATOM     19  C   LIG    1       -7.732   3.098   0.426  0.00  0.00    +0.230 C 
ATOM     20  N   LIG    1       -6.441   2.646  -0.108  0.00  0.00    -0.470 N 
ATOM     21  C   LIG    1       -5.927   1.496   0.647  0.00  0.00    +0.210 C 
ATOM     22  C   LIG    1       -6.903   0.325   0.521  0.00  0.00    +0.060 C 
BRANCH  17  24
ATOM     23  O   LIG    1      -10.061  -0.350  -0.015  0.00  0.00    -0.530 OA
ATOM     24  C   LIG    1       -9.253  -0.384   0.888  0.00  0.00    +0.520 C 
ATOM     25  N   LIG    1       -9.233  -1.433   1.735  0.00  0.00    -0.600 N 
ATOM     26  C   LIG    1      -10.120  -2.546   1.481  0.00  0.00    +0.280 C 
ATOM     27  C   LIG    1      -11.475  -2.307   2.180  0.00  0.00    +0.010 C 
ATOM     28  C   LIG    1      -11.328  -2.440   3.638  0.00  0.00    +0.000 C 
ATOM     29  C   LIG    1      -10.389  -1.418   4.271  0.00  0.00    +0.000 C 
ATOM     30  C   LIG    1       -8.968  -1.917   4.175  0.00  0.00    +0.020 C 
ATOM     31  C   LIG    1       -8.309  -1.395   2.886  0.00  0.00    +0.250 C 
ENDBRANCH  17  24
ENDBRANCH   1  20
TORSDOF 3
