REMARK  Name = ZINCpe00000gMnUh.0
REMARK                            x       y       z     vdW  Elec       q    Type
REMARK                         _______ _______ _______ _____ _____    ______ ____
ROOT
ATOM      1  N   LIG    1       -1.777  -0.990   1.443  0.00  0.00    -0.530 N 
ATOM      2  C   LIG    1       -2.598  -0.094   2.026  0.00  0.00    +0.620 A 
ATOM      3  N   LIG    1       -3.031  -0.253   3.246  0.00  0.00    -0.560 NA
ATOM      4  C   LIG    1       -2.677  -1.321   3.978  0.00  0.00    +0.450 A 
ATOM      5  C   LIG    1       -1.836  -2.275   3.430  0.00  0.00    -0.230 A 
ATOM      6  C   LIG    1       -1.384  -2.092   2.116  0.00  0.00    +0.530 A 
ATOM      7  O   LIG    1       -0.645  -2.910   1.593  0.00  0.00    -0.540 OA
ENDROOT
BRANCH   4   8
ATOM      8  N   LIG    1       -3.148  -1.467   5.266  0.00  0.00    -0.600 N 
ATOM      9  C   LIG    1       -4.470  -0.947   5.644  0.00  0.00    +0.280 C 
ATOM     10  C   LIG    1       -4.318  -0.041   6.864  0.00  0.00    +0.020 C 
ATOM     11  C   LIG    1       -3.601  -0.805   7.979  0.00  0.00    -0.010 C 
ATOM     12  C   LIG    1       -2.206  -1.215   7.503  0.00  0.00    +0.020 C 
ATOM     13  C   LIG    1       -2.336  -2.140   6.289  0.00  0.00    +0.290 C 
BRANCH  11  14
ATOM     14  C   LIG    1       -3.477   0.091   9.212  0.00  0.00    +0.180 C 
BRANCH  14  15
ATOM     15  O   LIG    1       -4.779   0.379   9.726  0.00  0.00    -0.570 OA
ATOM     16  H   LIG    1       -4.776   0.944  10.511  0.00  0.00    +0.380 HD
ENDBRANCH  14  15
ENDBRANCH  11  14
ENDBRANCH   4   8
BRANCH   1  17
ATOM     17  C   LIG    1       -1.315  -0.771   0.070  0.00  0.00    +0.430 C 
BRANCH  17  19
ATOM     18  C   LIG    1        0.269   1.235  -0.019  0.00  0.00    -0.210 A 
ATOM     19  C   LIG    1        0.037  -0.105   0.096  0.00  0.00    +0.070 A 
ATOM     20  O   LIG    1        1.212  -0.726   0.233  0.00  0.00    -0.150 OA
ATOM     21  C   LIG    1        2.225   0.154   0.215  0.00  0.00    +0.200 A 
ATOM     22  C   LIG    1        1.729   1.392   0.062  0.00  0.00    +0.000 A 
BRANCH  18  23
ATOM     23  C   LIG    1       -0.733   2.301  -0.189  0.00  0.00    +0.550 C 
ATOM     24  O   LIG    1       -1.917   2.029  -0.172  0.00  0.00    -0.520 OA
BRANCH  23  26
ATOM     25  C   LIG    1       -1.378   4.575  -0.522  0.00  0.00    +0.290 C 
ATOM     26  O   LIG    1       -0.336   3.577  -0.362  0.00  0.00    -0.350 OA
ENDBRANCH  23  26
ENDBRANCH  18  23
ENDBRANCH  17  19
ENDBRANCH   1  17
TORSDOF 7
