REMARK  Name = ZINCpe000015bHe4.0
REMARK                            x       y       z     vdW  Elec       q    Type
REMARK                         _______ _______ _______ _____ _____    ______ ____
ROOT
ATOM      1  N   LIG    1       -3.562   1.670   3.307  0.00  0.00    -0.680 N 
ATOM      2  H   LIG    1       -4.238   1.623   2.613  0.00  0.00    +0.400 HD
ATOM      3  C   LIG    1       -2.297   2.013   2.992  0.00  0.00    +0.710 C 
ATOM      4  N   LIG    1       -1.992   2.382   1.732  0.00  0.00    -0.640 N 
ATOM      5  C   LIG    1       -3.010   2.294   0.684  0.00  0.00    +0.320 C 
ATOM      6  C   LIG    1       -2.577   1.265  -0.365  0.00  0.00    -0.340 C 
ATOM      7  S   LIG    1       -0.971   1.765  -1.052  0.00  0.00    +2.420 S 
ATOM      8  C   LIG    1        0.037   1.899   0.453  0.00  0.00    -0.330 C 
ATOM      9  O   LIG    1       -0.465   0.700  -1.845  0.00  0.00    -0.930 OA
ATOM     10  O   LIG    1       -1.105   3.058  -1.627  0.00  0.00    -0.930 OA
ATOM     11  C   LIG    1       -0.643   2.868   1.425  0.00  0.00    +0.370 C 
ATOM     12  O   LIG    1       -1.431   1.990   3.845  0.00  0.00    -0.530 OA
ENDROOT
BRANCH   1  16
ATOM     13  C   LIG    1       -4.482   0.784   7.229  0.00  0.00    +0.310 A 
ATOM     14  C   LIG    1       -5.434   1.442   6.462  0.00  0.00    -0.020 A 
ATOM     15  C   LIG    1       -5.142   1.752   5.145  0.00  0.00    +0.070 A 
ATOM     16  C   LIG    1       -3.900   1.380   4.636  0.00  0.00    +0.070 A 
ATOM     17  C   LIG    1       -2.999   0.725   5.463  0.00  0.00    +0.320 A 
ATOM     18  N   LIG    1       -3.311   0.450   6.715  0.00  0.00    -0.520 NA
BRANCH  13  20
ATOM     19  C   LIG    1       -3.739  -0.196   9.262  0.00  0.00    +0.260 C 
ATOM     20  O   LIG    1       -4.758   0.480   8.524  0.00  0.00    -0.310 OA
ENDBRANCH  13  20
ENDBRANCH   1  16
BRANCH  11  21
ATOM     21  C   LIG    1        0.164   2.955   2.695  0.00  0.00    -0.210 A 
ATOM     22  C   LIG    1        0.424   4.082   3.397  0.00  0.00    +0.230 A 
ATOM     23  N   LIG    1        1.175   3.737   4.464  0.00  0.00    -0.380 N 
ATOM     24  N   LIG    1        1.384   2.353   4.416  0.00  0.00    -0.300 NA
ATOM     25  C   LIG    1        1.682   4.650   5.492  0.00  0.00    +0.350 C 
ATOM     26  C   LIG    1        0.772   1.884   3.358  0.00  0.00    +0.280 A 
ENDBRANCH  11  21
TORSDOF 3
