REMARK  Name = ZINCrH000004stYP.0
REMARK                            x       y       z     vdW  Elec       q    Type
REMARK                         _______ _______ _______ _____ _____    ______ ____
ROOT
ATOM      1  N   LIG    1        0.702   0.650  -2.746  0.00  0.00    -0.670 N 
ATOM      2  H   LIG    1        1.288   0.350  -2.035  0.00  0.00    +0.410 HD
ATOM      3  C   LIG    1       -0.403   1.364  -2.452  0.00  0.00    +0.720 C 
ATOM      4  N   LIG    1       -0.755   1.563  -1.167  0.00  0.00    -0.630 N 
ATOM      5  C   LIG    1       -0.028   1.060   0.008  0.00  0.00    +0.240 C 
ATOM      6  C   LIG    1       -0.779   1.554   1.262  0.00  0.00    +0.050 C 
ATOM      7  C   LIG    1       -1.571   2.780   0.729  0.00  0.00    +0.240 C 
ATOM      8  C   LIG    1       -1.933   2.320  -0.705  0.00  0.00    +0.260 C 
ATOM      9  O   LIG    1       -1.083   1.829  -3.347  0.00  0.00    -0.570 OA
ENDROOT
BRANCH   1  16
ATOM     10  C   LIG    1        3.409   0.120  -3.433  0.00  0.00    +0.130 C 
ATOM     11  C   LIG    1        2.309   0.076  -4.462  0.00  0.00    +0.120 A 
ATOM     12  N   LIG    1        2.600  -0.214  -5.716  0.00  0.00    -0.500 NA
ATOM     13  C   LIG    1        1.667  -0.264  -6.653  0.00  0.00    +0.290 A 
ATOM     14  C   LIG    1        0.335  -0.009  -6.344  0.00  0.00    -0.020 A 
ATOM     15  C   LIG    1       -0.008   0.293  -5.039  0.00  0.00    +0.100 A 
ATOM     16  C   LIG    1        1.003   0.342  -4.081  0.00  0.00    +0.090 A 
BRANCH  13  17
ATOM     17  N   LIG    1        2.022  -0.575  -7.963  0.00  0.00    -0.460 N 
ATOM     18  C   LIG    1        1.722   0.556  -8.878  0.00  0.00    +0.180 C 
ATOM     19  C   LIG    1        2.624   0.269 -10.104  0.00  0.00    +0.040 C 
ATOM     20  C   LIG    1        3.913  -0.294  -9.461  0.00  0.00    +0.010 C 
ATOM     21  C   LIG    1        3.478  -0.808  -8.076  0.00  0.00    +0.200 C 
ENDBRANCH  13  17
ENDBRANCH   1  16
BRANCH   7  22
ATOM     22  N   LIG    1       -2.779   3.012   1.526  0.00  0.00    -0.740 N 
ATOM     23  H   LIG    1       -3.136   2.304   2.083  0.00  0.00    +0.400 HD
BRANCH  22  24
ATOM     24  C   LIG    1       -3.415   4.255   1.482  0.00  0.00    +0.210 A 
ATOM     25  C   LIG    1       -2.902   5.273   0.689  0.00  0.00    -0.080 A 
ATOM     26  C   LIG    1       -3.537   6.499   0.645  0.00  0.00    +0.050 A 
ATOM     27  C   LIG    1       -4.676   6.716   1.397  0.00  0.00    -0.060 A 
ATOM     28  C   LIG    1       -5.187   5.707   2.192  0.00  0.00    +0.050 A 
ATOM     29  C   LIG    1       -4.560   4.477   2.237  0.00  0.00    -0.070 A 
ENDBRANCH  22  24
ENDBRANCH   7  22
TORSDOF 4
