REMARK  Name = ZINCqH0000004KjF.0
REMARK                            x       y       z     vdW  Elec       q    Type
REMARK                         _______ _______ _______ _____ _____    ______ ____
ROOT
ATOM      1  N   LIG    1       -3.351   6.395  -1.526  0.00  0.00    -0.740 N 
ATOM      2  H   LIG    1       -3.489   7.158  -0.944  0.00  0.00    +0.400 HD
ATOM      3  C   LIG    1       -2.253   5.627  -1.382  0.00  0.00    +0.740 C 
ATOM      4  N   LIG    1       -1.347   5.919  -0.428  0.00  0.00    -0.660 N 
ATOM      5  C   LIG    1       -1.201   6.949   0.613  0.00  0.00    +0.270 C 
ATOM      6  C   LIG    1       -0.362   5.946   1.405  0.00  0.00    -0.080 C 
ATOM      7  C   LIG    1        0.855   6.555   2.095  0.00  0.00    +0.020 C 
ATOM      8  C   LIG    1        0.402   7.239   3.390  0.00  0.00    +0.210 C 
ATOM      9  O   LIG    1       -0.310   6.298   4.196  0.00  0.00    -0.380 OA
ATOM     10  C   LIG    1       -1.516   5.807   3.606  0.00  0.00    +0.210 C 
ATOM     11  C   LIG    1       -1.176   5.038   2.324  0.00  0.00    +0.040 C 
ATOM     12  C   LIG    1       -0.070   5.347   0.030  0.00  0.00    +0.310 C 
ATOM     13  O   LIG    1       -2.081   4.670  -2.112  0.00  0.00    -0.570 OA
ENDROOT
BRANCH  12  14
ATOM     14  C   LIG    1       -0.050   3.840   0.022  0.00  0.00    -0.090 A 
ATOM     15  C   LIG    1        1.156   3.165   0.008  0.00  0.00    +0.010 A 
ATOM     16  C   LIG    1        1.175   1.783   0.000  0.00  0.00    +0.000 A 
ATOM     17  C   LIG    1       -0.013   1.076   0.008  0.00  0.00    +0.010 A 
ATOM     18  C   LIG    1       -1.219   1.751   0.017  0.00  0.00    +0.000 A 
ATOM     19  C   LIG    1       -1.238   3.133   0.030  0.00  0.00    +0.040 A 
ENDBRANCH  12  14
BRANCH   1  20
ATOM     20  C   LIG    1       -4.337   6.078  -2.563  0.00  0.00    +0.410 C 
BRANCH  20  24
ATOM     21  C   LIG    1       -7.466   8.466  -2.176  0.00  0.00    -0.210 A 
ATOM     22  C   LIG    1       -6.549   8.956  -3.016  0.00  0.00    +0.210 A 
ATOM     23  N   LIG    1       -5.488   8.190  -3.174  0.00  0.00    -0.450 NA
ATOM     24  C   LIG    1       -5.459   7.082  -2.514  0.00  0.00    +0.010 A 
ATOM     25  S   LIG    1       -6.882   6.914  -1.580  0.00  0.00    +0.150 S 
BRANCH  21  27
ATOM     26  C   LIG    1       -9.862   8.673  -2.782  0.00  0.00    +0.040 C 
ATOM     27  C   LIG    1       -8.771   9.122  -1.807  0.00  0.00    +0.120 C 
ENDBRANCH  21  27
ENDBRANCH  20  24
ENDBRANCH   1  20
TORSDOF 4
