REMARK  Name = ZINCpe000000WQID.0
REMARK                            x       y       z     vdW  Elec       q    Type
REMARK                         _______ _______ _______ _____ _____    ______ ____
ROOT
ATOM      1  C   LIG    1        0.998   6.063  -2.132  0.00  0.00    +0.210 C 
ATOM      2  C   LIG    1        0.201   5.785  -3.410  0.00  0.00    +0.250 C 
ATOM      3  O   LIG    1       -0.875   6.728  -3.490  0.00  0.00    -0.360 OA
ATOM      4  C   LIG    1       -1.873   6.522  -2.488  0.00  0.00    +0.290 C 
ATOM      5  C   LIG    1       -1.222   6.399  -1.138  0.00  0.00    +0.490 C 
ATOM      6  O   LIG    1       -1.909   6.513  -0.145  0.00  0.00    -0.530 OA
ATOM      7  N   LIG    1        0.088   6.168  -0.994  0.00  0.00    -0.580 N 
ENDROOT
BRANCH   1  10
ATOM      8  N   LIG    1        3.199   4.977  -2.444  0.00  0.00    -0.700 N 
ATOM      9  H   LIG    1        3.459   5.734  -2.991  0.00  0.00    +0.410 HD
ATOM     10  C   LIG    1        1.968   4.934  -1.895  0.00  0.00    +0.510 C 
ATOM     11  O   LIG    1        1.642   3.988  -1.211  0.00  0.00    -0.520 OA
BRANCH   8  13
ATOM     12  C   LIG    1        3.887   2.766  -3.231  0.00  0.00    +0.040 C 
ATOM     13  C   LIG    1        4.142   3.880  -2.213  0.00  0.00    +0.230 C 
BRANCH  13  14
ATOM     14  C   LIG    1        5.573   4.397  -2.371  0.00  0.00    +0.320 C 
BRANCH  14  15
ATOM     15  N   LIG    1        5.856   5.378  -1.321  0.00  0.00    -0.380 N 
ATOM     16  C   LIG    1        6.880   5.329  -0.443  0.00  0.00    +0.220 A 
ATOM     17  C   LIG    1        6.792   6.418   0.355  0.00  0.00    -0.120 A 
ATOM     18  C   LIG    1        5.670   7.153  -0.043  0.00  0.00    +0.230 A 
ATOM     19  N   LIG    1        5.109   6.531  -1.047  0.00  0.00    -0.290 NA
ENDBRANCH  14  15
ENDBRANCH  13  14
ENDBRANCH   8  13
ENDBRANCH   1  10
BRANCH   7  20
ATOM     20  C   LIG    1        0.632   6.020   0.358  0.00  0.00    +0.330 C 
BRANCH  20  21
ATOM     21  C   LIG    1        0.970   7.379   0.915  0.00  0.00    -0.110 A 
ATOM     22  C   LIG    1        0.064   8.038   1.726  0.00  0.00    +0.040 A 
ATOM     23  C   LIG    1        0.374   9.284   2.238  0.00  0.00    +0.000 A 
ATOM     24  C   LIG    1        1.589   9.871   1.939  0.00  0.00    +0.010 A 
ATOM     25  C   LIG    1        2.492   9.215   1.124  0.00  0.00    +0.000 A 
ATOM     26  C   LIG    1        2.184   7.967   0.616  0.00  0.00    +0.010 A 
ENDBRANCH  20  21
ENDBRANCH   7  20
TORSDOF 6
