REMARK  Name = ZINCrD000000AewO.0
REMARK                            x       y       z     vdW  Elec       q    Type
REMARK                         _______ _______ _______ _____ _____    ______ ____
ROOT
ATOM      1  O   LIG    1       -1.058   3.534  -0.071  0.00  0.00    -0.510 OA
ATOM      2  C   LIG    1       -0.013   4.149  -0.077  0.00  0.00    +0.520 C 
ATOM      3  N   LIG    1        1.159   3.489   0.010  0.00  0.00    -0.670 N 
ATOM      4  H   LIG    1        1.990   3.983   0.086  0.00  0.00    +0.420 HD
ENDROOT
BRANCH   3   5
ATOM      5  C   LIG    1        1.176   2.088  -0.009  0.00  0.00    +0.150 A 
ATOM      6  C   LIG    1        0.140   1.388  -0.610  0.00  0.00    +0.060 A 
ATOM      7  C   LIG    1        0.160   0.005  -0.627  0.00  0.00    +0.030 A 
ATOM      8  C   LIG    1        1.209  -0.682  -0.047  0.00  0.00    +0.040 A 
ATOM      9  C   LIG    1        2.245   0.009   0.554  0.00  0.00    -0.030 A 
ATOM     10  C   LIG    1        2.234   1.394   0.575  0.00  0.00    +0.070 A 
BRANCH  10  11
ATOM     11  O   LIG    1        3.252   2.075   1.165  0.00  0.00    -0.320 OA
BRANCH  11  12
ATOM     12  C   LIG    1        4.303   1.298   1.744  0.00  0.00    +0.610 C 
ATOM     13  F   LIG    1        3.776   0.471   2.742  0.00  0.00    -0.160 F 
ATOM     14  F   LIG    1        5.260   2.152   2.303  0.00  0.00    -0.130 F 
ATOM     15  F   LIG    1        4.901   0.511   0.754  0.00  0.00    -0.160 F 
ENDBRANCH  11  12
ENDBRANCH  10  11
ENDBRANCH   3   5
BRANCH   2  16
ATOM     16  C   LIG    1       -0.024   5.653  -0.183  0.00  0.00    +0.060 C 
BRANCH  16  17
ATOM     17  C   LIG    1       -1.470   6.147  -0.268  0.00  0.00    +0.320 C 
BRANCH  17  18
ATOM     18  N   LIG    1       -1.481   7.608  -0.370  0.00  0.00    -0.550 N 
ATOM     19  C   LIG    1       -1.532   8.373   0.742  0.00  0.00    +0.490 C 
ATOM     20  C   LIG    1       -1.575   9.875   0.616  0.00  0.00    +0.300 C 
ATOM     21  O   LIG    1       -0.868  10.282  -0.558  0.00  0.00    -0.300 OA
ATOM     22  C   LIG    1       -1.131   9.591  -1.700  0.00  0.00    +0.080 A 
ATOM     23  C   LIG    1       -1.090  10.221  -2.931  0.00  0.00    +0.030 A 
ATOM     24  C   LIG    1       -1.362   9.503  -4.082  0.00  0.00    +0.030 A 
ATOM     25  C   LIG    1       -1.672   8.158  -4.007  0.00  0.00    +0.020 A 
ATOM     26  C   LIG    1       -1.714   7.521  -2.780  0.00  0.00    +0.000 A 
ATOM     27  O   LIG    1       -1.538   7.854   1.839  0.00  0.00    -0.500 OA
ATOM     28  C   LIG    1       -1.444   8.234  -1.624  0.00  0.00    +0.090 A 
ENDBRANCH  17  18
ENDBRANCH  16  17
ENDBRANCH   2  16
TORSDOF 6
