REMARK  Name = ZINCrD0000075e3h.0
REMARK                            x       y       z     vdW  Elec       q    Type
REMARK                         _______ _______ _______ _____ _____    ______ ____
ROOT
ATOM      1  C   LIG    1       -0.043   3.368  -1.919  0.00  0.00    +0.560 C 
ATOM      2  N   LIG    1       -0.487   3.881  -3.083  0.00  0.00    -0.620 N 
ATOM      3  C   LIG    1        0.116   5.010  -3.808  0.00  0.00    +0.230 C 
ATOM      4  C   LIG    1       -0.742   5.257  -5.067  0.00  0.00    +0.050 C 
ATOM      5  C   LIG    1       -2.105   4.621  -4.688  0.00  0.00    +0.040 C 
ATOM      6  C   LIG    1       -1.653   3.399  -3.845  0.00  0.00    +0.270 C 
ATOM      7  O   LIG    1       -0.621   2.432  -1.409  0.00  0.00    -0.510 OA
ENDROOT
BRANCH   5   8
ATOM      8  C   LIG    1       -2.855   4.178  -5.919  0.00  0.00    -0.070 A 
ATOM      9  C   LIG    1       -2.283   3.266  -6.786  0.00  0.00    +0.050 A 
ATOM     10  C   LIG    1       -2.972   2.857  -7.912  0.00  0.00    +0.030 A 
ATOM     11  C   LIG    1       -4.229   3.368  -8.176  0.00  0.00    +0.070 A 
ATOM     12  C   LIG    1       -4.799   4.284  -7.312  0.00  0.00    -0.180 A 
ATOM     13  C   LIG    1       -4.112   4.689  -6.183  0.00  0.00    +0.080 A 
BRANCH  12  14
ATOM     14  C   LIG    1       -6.170   4.840  -7.600  0.00  0.00    +0.510 C 
ATOM     15  F   LIG    1       -6.810   5.150  -6.395  0.00  0.00    -0.180 F 
ATOM     16  F   LIG    1       -6.923   3.889  -8.296  0.00  0.00    -0.180 F 
ATOM     17  F   LIG    1       -6.049   5.998  -8.375  0.00  0.00    -0.180 F 
ENDBRANCH  12  14
ENDBRANCH   5   8
BRANCH   1  21
ATOM     18  C   LIG    1        2.479   3.221  -1.584  0.00  0.00    +0.100 C 
ATOM     19  C   LIG    1        2.190   2.317  -0.374  0.00  0.00    +0.070 C 
ATOM     20  C   LIG    1        1.369   3.486   0.201  0.00  0.00    +0.060 C 
ATOM     21  C   LIG    1        1.171   3.958  -1.250  0.00  0.00    -0.020 C 
BRANCH  18  27
ATOM     22  C   LIG    1        4.152   3.868  -4.149  0.00  0.00    +0.330 C 
ATOM     23  N   LIG    1        3.173   2.788  -4.005  0.00  0.00    -0.480 N 
ATOM     24  C   LIG    1        2.816   1.880  -4.946  0.00  0.00    +0.370 A 
ATOM     25  N   LIG    1        1.918   1.099  -4.410  0.00  0.00    -0.290 NA
ATOM     26  N   LIG    1        1.695   1.462  -3.197  0.00  0.00    -0.270 NA
ATOM     27  C   LIG    1        2.440   2.493  -2.904  0.00  0.00    +0.170 A 
ENDBRANCH  18  27
ENDBRANCH   1  21
TORSDOF 4
