REMARK  Name = ZINCpe00000gNhOh.0
REMARK                            x       y       z     vdW  Elec       q    Type
REMARK                         _______ _______ _______ _____ _____    ______ ____
ROOT
ATOM      1  C   LIG    1        1.102   1.968  -0.284  0.00  0.00    +0.030 A 
ATOM      2  N   LIG    1       -0.002   1.253  -0.260  0.00  0.00    -0.180 NA
ATOM      3  N   LIG    1        0.002  -0.004   0.002  0.00  0.00    -0.290 N 
ATOM      4  C   LIG    1        1.141  -0.670   0.269  0.00  0.00    +0.480 A 
ATOM      5  C   LIG    1        2.371   0.024   0.264  0.00  0.00    +0.000 A 
ATOM      6  O   LIG    1        1.111  -1.864   0.514  0.00  0.00    -0.500 OA
ATOM      7  C   LIG    1        2.351   1.359  -0.016  0.00  0.00    +0.140 A 
ENDROOT
BRANCH   3   8
ATOM      8  C   LIG    1       -1.211  -0.701   0.010  0.00  0.00    +0.100 A 
ATOM      9  C   LIG    1       -2.296  -0.200   0.718  0.00  0.00    +0.080 A 
ATOM     10  C   LIG    1       -3.494  -0.887   0.722  0.00  0.00    +0.010 A 
ATOM     11  C   LIG    1       -3.610  -2.080   0.028  0.00  0.00    +0.120 A 
ATOM     12  C   LIG    1       -2.528  -2.584  -0.675  0.00  0.00    +0.010 A 
ATOM     13  F   LIG    1       -4.782  -2.754   0.036  0.00  0.00    -0.130 F 
ATOM     14  C   LIG    1       -1.330  -1.898  -0.685  0.00  0.00    +0.090 A 
ENDBRANCH   3   8
BRANCH   1  16
ATOM     15  O   LIG    1        2.056   4.075  -0.614  0.00  0.00    -0.510 OA
ATOM     16  C   LIG    1        1.037   3.413  -0.591  0.00  0.00    +0.590 C 
ATOM     17  N   LIG    1       -0.151   3.995  -0.846  0.00  0.00    -0.620 N 
ATOM     18  H   LIG    1       -0.964   3.466  -0.828  0.00  0.00    +0.420 HD
BRANCH  17  19
ATOM     19  C   LIG    1       -0.213   5.370  -1.139  0.00  0.00    -0.000 A 
ATOM     20  C   LIG    1       -1.337   6.078  -1.418  0.00  0.00    +0.210 A 
ATOM     21  N   LIG    1       -0.965   7.366  -1.638  0.00  0.00    -0.370 N 
ATOM     22  N   LIG    1        0.426   7.442  -1.497  0.00  0.00    -0.280 NA
ATOM     23  C   LIG    1        0.877   6.251  -1.199  0.00  0.00    +0.270 A 
BRANCH  21  24
ATOM     24  C   LIG    1       -1.861   8.477  -1.969  0.00  0.00    +0.350 C 
BRANCH  24  25
ATOM     25  C   LIG    1       -1.653   9.615  -0.968  0.00  0.00    +0.180 C 
BRANCH  25  26
ATOM     26  O   LIG    1       -2.526  10.699  -1.290  0.00  0.00    -0.570 OA
ATOM     27  H   LIG    1       -2.448  11.458  -0.695  0.00  0.00    +0.390 HD
ENDBRANCH  25  26
ENDBRANCH  24  25
ENDBRANCH  21  24
ENDBRANCH  17  19
ENDBRANCH   1  16
TORSDOF 6
