REMARK  Name = ZINCqH0000003iBS.0
REMARK                            x       y       z     vdW  Elec       q    Type
REMARK                         _______ _______ _______ _____ _____    ______ ____
ROOT
ATOM      1  N   LIG    1       -0.301  -2.633   1.183  0.00  0.00    -0.720 N 
ATOM      2  H   LIG    1       -1.091  -2.135   0.919  0.00  0.00    +0.410 HD
ATOM      3  C   LIG    1       -0.423  -3.895   1.641  0.00  0.00    +0.600 C 
ATOM      4  O   LIG    1        0.567  -4.519   1.972  0.00  0.00    -0.510 OA
ENDROOT
BRANCH   3   5
ATOM      5  C   LIG    1       -1.751  -4.516   1.739  0.00  0.00    -0.030 A 
ATOM      6  C   LIG    1       -1.993  -5.778   2.178  0.00  0.00    +0.060 A 
ATOM      7  C   LIG    1       -3.442  -5.962   2.106  0.00  0.00    -0.140 A 
ATOM      8  C   LIG    1       -4.306  -7.015   2.412  0.00  0.00    +0.070 A 
ATOM      9  C   LIG    1       -5.651  -6.865   2.221  0.00  0.00    -0.100 A 
ATOM     10  C   LIG    1       -6.163  -5.674   1.726  0.00  0.00    +0.060 A 
ATOM     11  C   LIG    1       -5.327  -4.622   1.419  0.00  0.00    +0.030 A 
ATOM     12  C   LIG    1       -6.585  -8.002   2.550  0.00  0.00    +0.100 C 
ATOM     13  C   LIG    1       -3.955  -4.751   1.604  0.00  0.00    +0.070 A 
ATOM     14  O   LIG    1       -2.914  -3.921   1.400  0.00  0.00    -0.180 OA
ENDBRANCH   3   5
BRANCH   1  15
ATOM     15  C   LIG    1        1.023  -2.013   1.086  0.00  0.00    +0.250 C 
ATOM     16  C   LIG    1        1.670  -2.402  -0.245  0.00  0.00    +0.040 C 
BRANCH  15  22
ATOM     17  C   LIG    1       -1.187   2.136   0.019  0.00  0.00    +0.650 C 
ATOM     18  N   LIG    1       -0.018   1.465   0.010  0.00  0.00    -0.590 N 
ATOM     19  C   LIG    1        1.261   2.189   0.002  0.00  0.00    +0.270 C 
ATOM     20  C   LIG    1        2.125   1.677   1.158  0.00  0.00    +0.010 C 
ATOM     21  C   LIG    1        2.263   0.156   1.052  0.00  0.00    +0.030 C 
ATOM     22  C   LIG    1        0.880  -0.492   1.159  0.00  0.00    -0.020 C 
ATOM     23  C   LIG    1        0.002  -0.004   0.002  0.00  0.00    +0.300 C 
ATOM     24  O   LIG    1       -2.237   1.526   0.021  0.00  0.00    -0.570 OA
BRANCH  17  25
ATOM     25  O   LIG    1       -1.190   3.482   0.027  0.00  0.00    -0.370 OA
BRANCH  25  27
ATOM     26  C   LIG    1       -2.289   5.655   0.044  0.00  0.00    +0.070 C 
ATOM     27  C   LIG    1       -2.486   4.138   0.036  0.00  0.00    +0.220 C 
ENDBRANCH  25  27
ENDBRANCH  17  25
ENDBRANCH  15  22
ENDBRANCH   1  15
TORSDOF 5
