REMARK  Name = ZINCrD000000Bv6I.0
REMARK                            x       y       z     vdW  Elec       q    Type
REMARK                         _______ _______ _______ _____ _____    ______ ____
ROOT
ATOM      1  C   LIG    1       -1.017   6.147  -0.616  0.00  0.00    -0.250 A 
ATOM      2  C   LIG    1       -0.690   7.434  -0.367  0.00  0.00    +0.260 A 
ATOM      3  N   LIG    1        0.424   7.440   0.397  0.00  0.00    -0.360 N 
ATOM      4  N   LIG    1        0.797   6.111   0.635  0.00  0.00    -0.270 NA
ATOM      5  C   LIG    1       -0.070   5.328   0.029  0.00  0.00    +0.130 A 
ENDROOT
BRANCH   5   6
ATOM      6  C   LIG    1       -0.050   3.844   0.022  0.00  0.00    -0.020 A 
ATOM      7  C   LIG    1        1.164   3.161   0.007  0.00  0.00    +0.030 A 
ATOM      8  C   LIG    1        1.177   1.781   0.000  0.00  0.00    +0.010 A 
ATOM      9  C   LIG    1       -0.013   1.076   0.008  0.00  0.00    +0.010 A 
ATOM     10  C   LIG    1       -1.221   1.748   0.017  0.00  0.00    +0.010 A 
ATOM     11  C   LIG    1       -1.246   3.128   0.030  0.00  0.00    +0.030 A 
ENDBRANCH   5   6
BRANCH   1  12
ATOM     12  C   LIG    1       -2.190   5.672  -1.435  0.00  0.00    +0.360 C 
BRANCH  12  15
ATOM     13  O   LIG    1       -4.577   4.728  -2.257  0.00  0.00    -0.510 OA
ATOM     14  C   LIG    1       -4.439   4.814  -1.055  0.00  0.00    +0.510 C 
ATOM     15  N   LIG    1       -3.281   5.275  -0.541  0.00  0.00    -0.730 N 
ATOM     16  H   LIG    1       -3.170   5.344   0.420  0.00  0.00    +0.400 HD
BRANCH  14  17
ATOM     17  C   LIG    1       -5.561   4.406  -0.136  0.00  0.00    +0.160 C 
ATOM     18  C   LIG    1       -6.138   5.646   0.592  0.00  0.00    +0.020 C 
ATOM     19  C   LIG    1       -7.574   5.154   0.918  0.00  0.00    +0.020 C 
ATOM     20  C   LIG    1       -7.901   4.263  -0.300  0.00  0.00    +0.190 C 
ATOM     21  O   LIG    1       -6.658   3.873  -0.895  0.00  0.00    -0.350 OA
ENDBRANCH  14  17
ENDBRANCH  12  15
ENDBRANCH   1  12
BRANCH   3  22
ATOM     22  C   LIG    1        1.120   8.630   0.891  0.00  0.00    +0.390 C 
BRANCH  22  23
ATOM     23  C   LIG    1        1.251   8.550   2.390  0.00  0.00    -0.110 A 
ATOM     24  C   LIG    1        0.264   9.082   3.200  0.00  0.00    +0.020 A 
ATOM     25  C   LIG    1        0.382   9.005   4.575  0.00  0.00    +0.000 A 
ATOM     26  C   LIG    1        1.490   8.403   5.141  0.00  0.00    +0.010 A 
ATOM     27  C   LIG    1        2.479   7.876   4.332  0.00  0.00    +0.010 A 
ATOM     28  C   LIG    1        2.360   7.950   2.957  0.00  0.00    +0.040 A 
ENDBRANCH  22  23
ENDBRANCH   3  22
TORSDOF 6
