REMARK  Name = ZINCrH00000No58c.0
REMARK                            x       y       z     vdW  Elec       q    Type
REMARK                         _______ _______ _______ _____ _____    ______ ____
ROOT
ATOM      1  O   LIG    1        0.801  -4.115   2.949  0.00  0.00    -0.550 OA
ATOM      2  C   LIG    1        0.259  -4.678   2.018  0.00  0.00    +0.710 C 
ATOM      3  N   LIG    1       -0.180  -3.964   0.962  0.00  0.00    -0.620 N 
ATOM      4  N   LIG    1        0.095  -6.016   2.042  0.00  0.00    -0.670 N 
ATOM      5  H   LIG    1       -0.400  -6.456   1.334  0.00  0.00    +0.400 HD
ENDROOT
BRANCH   4   6
ATOM      6  C   LIG    1        0.644  -6.773   3.095  0.00  0.00    +0.070 A 
ATOM      7  C   LIG    1        0.782  -6.287   4.352  0.00  0.00    -0.010 A 
ATOM      8  S   LIG    1        1.488  -7.564   5.264  0.00  0.00    +0.280 S 
ATOM      9  N   LIG    1        1.573  -8.666   3.979  0.00  0.00    -0.450 NA
ATOM     10  C   LIG    1        1.081  -8.074   2.930  0.00  0.00    +0.260 A 
ENDBRANCH   4   6
BRANCH   3  11
ATOM     11  C   LIG    1       -0.003  -2.510   0.936  0.00  0.00    +0.330 C 
BRANCH  11  12
ATOM     12  C   LIG    1        1.273  -2.166   0.165  0.00  0.00    +0.190 C 
ATOM     13  O   LIG    1        2.402  -2.700   0.857  0.00  0.00    -0.350 OA
ATOM     14  C   LIG    1        3.653  -2.272   0.306  0.00  0.00    +0.210 C 
ATOM     15  C   LIG    1        3.842  -0.789   0.626  0.00  0.00    +0.050 C 
ATOM     16  C   LIG    1        2.597  -0.024   0.256  0.00  0.00    -0.070 A 
ATOM     17  C   LIG    1        2.672   1.353   0.130  0.00  0.00    +0.000 A 
ATOM     18  C   LIG    1        1.549   2.085  -0.202  0.00  0.00    +0.010 A 
ATOM     19  C   LIG    1        0.344   1.440  -0.410  0.00  0.00    +0.000 A 
ATOM     20  C   LIG    1        0.269   0.066  -0.287  0.00  0.00    +0.010 A 
ATOM     21  C   LIG    1        1.395  -0.669   0.046  0.00  0.00    -0.110 A 
ENDBRANCH  11  12
ENDBRANCH   3  11
BRANCH   3  22
ATOM     22  C   LIG    1       -0.834  -4.643  -0.160  0.00  0.00    +0.280 C 
BRANCH  22  23
ATOM     23  C   LIG    1       -2.351  -4.595   0.030  0.00  0.00    -0.060 C 
ATOM     24  C   LIG    1       -3.040  -5.196  -1.199  0.00  0.00    +0.020 C 
ATOM     25  C   LIG    1       -4.553  -5.214  -0.965  0.00  0.00    -0.010 C 
ATOM     26  C   LIG    1       -4.855  -6.002   0.313  0.00  0.00    +0.210 C 
ATOM     27  O   LIG    1       -4.160  -5.408   1.411  0.00  0.00    -0.380 OA
ATOM     28  C   LIG    1       -2.738  -5.406   1.269  0.00  0.00    +0.210 C 
ENDBRANCH  22  23
ENDBRANCH   3  22
TORSDOF 5
