REMARK  Name = ZINCvU0000000I57.0
REMARK                            x       y       z     vdW  Elec       q    Type
REMARK                         _______ _______ _______ _____ _____    ______ ____
ROOT
ATOM      1  C   LIG    1       -0.793   7.318   0.051  0.00  0.00    -0.170 A 
ATOM      2  C   LIG    1       -1.181   6.007   0.046  0.00  0.00    +0.290 A 
ATOM      3  N   LIG    1       -0.069   5.243   0.031  0.00  0.00    -0.310 N 
ATOM      4  N   LIG    1        1.062   6.066   0.032  0.00  0.00    -0.270 NA
ATOM      5  C   LIG    1        0.672   7.322   0.037  0.00  0.00    +0.170 A 
ENDROOT
BRANCH   1   9
ATOM      6  C   LIG    1       -2.164  11.996   0.094  0.00  0.00    +0.550 C 
ATOM      7  N   LIG    1       -2.315  10.657   0.086  0.00  0.00    -0.470 N 
ATOM      8  N   LIG    1       -1.280   9.724   0.075  0.00  0.00    -0.230 NA
ATOM      9  C   LIG    1       -1.677   8.498   0.066  0.00  0.00    +0.180 C 
ATOM     10  C   LIG    1       -3.188   8.456   0.079  0.00  0.00    +0.090 C 
ATOM     11  C   LIG    1       -3.601   9.941   0.092  0.00  0.00    +0.290 C 
ATOM     12  O   LIG    1       -3.139  12.717   0.108  0.00  0.00    -0.510 OA
BRANCH  11  13
ATOM     13  C   LIG    1       -4.403  10.279  -1.138  0.00  0.00    -0.190 A 
ATOM     14  C   LIG    1       -5.733  10.370  -1.188  0.00  0.00    +0.020 A 
ATOM     15  C   LIG    1       -6.248  10.698  -2.430  0.00  0.00    +0.010 A 
ATOM     16  C   LIG    1       -5.338  10.865  -3.391  0.00  0.00    -0.040 A 
ATOM     17  S   LIG    1       -3.729  10.609  -2.729  0.00  0.00    +0.120 S 
ENDBRANCH  11  13
BRANCH   6  19
ATOM     18  C   LIG    1       -0.890  14.124   0.098  0.00  0.00    +0.050 C 
ATOM     19  C   LIG    1       -0.782  12.598   0.086  0.00  0.00    +0.070 C 
ENDBRANCH   6  19
ENDBRANCH   1   9
BRANCH   3  20
ATOM     20  C   LIG    1       -0.050   3.842   0.023  0.00  0.00    +0.150 A 
ATOM     21  C   LIG    1        1.161   3.163   0.008  0.00  0.00    +0.020 A 
ATOM     22  C   LIG    1        1.176   1.782   0.000  0.00  0.00    +0.040 A 
ATOM     23  C   LIG    1       -0.013   1.076   0.008  0.00  0.00    +0.010 A 
ATOM     24  C   LIG    1       -1.220   1.749   0.017  0.00  0.00    +0.050 A 
ATOM     25  C   LIG    1       -1.242   3.130   0.031  0.00  0.00    -0.010 A 
ENDBRANCH   3  20
BRANCH   5  26
ATOM     26  C   LIG    1        1.550   8.517   0.037  0.00  0.00    -0.030 A 
ATOM     27  C   LIG    1        1.165   9.668  -0.649  0.00  0.00    +0.080 A 
ATOM     28  C   LIG    1        1.985  10.778  -0.642  0.00  0.00    -0.010 A 
ATOM     29  C   LIG    1        3.191  10.747   0.035  0.00  0.00    +0.020 A 
ATOM     30  C   LIG    1        3.580   9.606   0.713  0.00  0.00    -0.010 A 
ATOM     31  C   LIG    1        2.767   8.491   0.717  0.00  0.00    +0.040 A 
ENDBRANCH   5  26
TORSDOF 5
