REMARK  Name = ZINCrH000004nIeL.0
REMARK                            x       y       z     vdW  Elec       q    Type
REMARK                         _______ _______ _______ _____ _____    ______ ____
ROOT
ATOM      1  C   LIG    1       -3.824  -0.262   1.461  0.00  0.00    -0.250 A 
ATOM      2  C   LIG    1       -2.478  -0.196   1.552  0.00  0.00    +0.260 A 
ATOM      3  N   LIG    1       -2.103   1.072   1.277  0.00  0.00    -0.350 N 
ATOM      4  N   LIG    1       -3.256   1.817   0.998  0.00  0.00    -0.270 NA
ATOM      5  C   LIG    1       -4.296   1.017   1.107  0.00  0.00    +0.130 A 
ENDROOT
BRANCH   5   6
ATOM      6  C   LIG    1       -5.715   1.397   0.896  0.00  0.00    +0.020 A 
ATOM      7  C   LIG    1       -6.606   0.486   0.332  0.00  0.00    +0.000 A 
ATOM      8  C   LIG    1       -7.925   0.841   0.136  0.00  0.00    +0.050 A 
ATOM      9  C   LIG    1       -8.367   2.099   0.499  0.00  0.00    -0.070 A 
ATOM     10  C   LIG    1       -7.487   3.013   1.063  0.00  0.00    +0.120 A 
ATOM     11  C   LIG    1       -6.162   2.663   1.267  0.00  0.00    +0.010 A 
BRANCH  10  12
ATOM     12  O   LIG    1       -7.926   4.248   1.420  0.00  0.00    -0.320 OA
ATOM     13  C   LIG    1       -9.305   4.539   1.186  0.00  0.00    +0.250 C 
ENDBRANCH  10  12
ENDBRANCH   5   6
BRANCH   3  14
ATOM     14  C   LIG    1       -0.729   1.579   1.267  0.00  0.00    +0.180 C 
ATOM     15  C   LIG    1       -0.750   3.109   1.275  0.00  0.00    +0.060 C 
ATOM     16  C   LIG    1        0.011   1.072   2.506  0.00  0.00    +0.060 C 
ATOM     17  C   LIG    1       -0.013   1.086   0.008  0.00  0.00    +0.050 C 
ENDBRANCH   3  14
BRANCH   1  18
ATOM     18  C   LIG    1       -4.670  -1.487   1.691  0.00  0.00    +0.370 C 
BRANCH  18  19
ATOM     19  N   LIG    1       -5.032  -2.080   0.401  0.00  0.00    -0.700 N 
ATOM     20  H   LIG    1       -4.725  -1.672  -0.424  0.00  0.00    +0.410 HD
BRANCH  19  24
ATOM     21  C   LIG    1       -7.323  -5.436   0.277  0.00  0.00    -0.040 A 
ATOM     22  C   LIG    1       -6.874  -4.838  -0.895  0.00  0.00    +0.350 A 
ATOM     23  N   LIG    1       -6.130  -3.747  -0.817  0.00  0.00    -0.530 NA
ATOM     24  C   LIG    1       -5.813  -3.225   0.359  0.00  0.00    +0.530 A 
ATOM     25  N   LIG    1       -6.219  -3.771   1.495  0.00  0.00    -0.530 NA
ATOM     26  C   LIG    1       -6.970  -4.860   1.492  0.00  0.00    +0.290 A 
BRANCH  21  28
ATOM     27  C   LIG    1       -8.506  -7.107   1.488  0.00  0.00    +0.240 C 
ATOM     28  O   LIG    1       -8.089  -6.559   0.236  0.00  0.00    -0.310 OA
ENDBRANCH  21  28
ENDBRANCH  19  24
ENDBRANCH  18  19
ENDBRANCH   1  18
TORSDOF 7
