REMARK  Name = ZINCkj000005llZ6.0
REMARK                            x       y       z     vdW  Elec       q    Type
REMARK                         _______ _______ _______ _____ _____    ______ ____
ROOT
ATOM      1  C   LIG    1       -0.777   1.651   1.218  0.00  0.00    -0.030 C 
ATOM      2  C   LIG    1       -2.250   1.601   0.723  0.00  0.00    +0.280 C 
ATOM      3  N   LIG    1       -2.177   1.913  -0.718  0.00  0.00    -0.990 NA
ATOM      4  C   LIG    1       -0.836   1.574  -1.197  0.00  0.00    +0.160 C 
ATOM      5  C   LIG    1       -0.790   0.683  -2.442  0.00  0.00    +0.010 C 
ATOM      6  C   LIG    1       -0.742   1.981  -3.267  0.00  0.00    +0.030 C 
ATOM      7  C   LIG    1       -0.141   2.660  -2.023  0.00  0.00    +0.030 C 
ATOM      8  C   LIG    1       -0.022   1.054  -0.001  0.00  0.00    +0.090 C 
ENDROOT
BRANCH   3   9
ATOM      9  S   LIG    1       -3.404   2.540  -1.636  0.00  0.00    +2.780 S 
ATOM     10  O   LIG    1       -2.788   3.332  -2.642  0.00  0.00    -0.950 OA
ATOM     11  O   LIG    1       -4.366   3.052  -0.724  0.00  0.00    -0.970 OA
BRANCH   9  12
ATOM     12  N   LIG    1       -4.129   1.272  -2.417  0.00  0.00    -0.990 NA
ATOM     13  C   LIG    1       -3.635   0.888  -3.720  0.00  0.00    +0.280 C 
ATOM     14  C   LIG    1       -4.373   1.682  -4.818  0.00  0.00    +0.010 C 
ATOM     15  C   LIG    1       -5.763   1.216  -4.937  0.00  0.00    +0.000 C 
ATOM     16  C   LIG    1       -6.607   1.427  -3.684  0.00  0.00    +0.010 C 
ATOM     17  C   LIG    1       -6.398   0.268  -2.740  0.00  0.00    +0.020 C 
ATOM     18  C   LIG    1       -5.256   0.586  -1.757  0.00  0.00    +0.260 C 
ENDBRANCH   9  12
ENDBRANCH   3   9
BRANCH   1  19
ATOM     19  C   LIG    1       -0.582   0.782   2.462  0.00  0.00    +0.280 C 
BRANCH  19  20
ATOM     20  N   LIG    1       -1.207   1.437   3.619  0.00  0.00    -0.640 N 
ATOM     21  H   LIG    1       -1.078   0.864   4.440  0.00  0.00    +0.440 HD
ATOM     22  H   LIG    1       -2.193   1.558   3.445  0.00  0.00    +0.440 HD
ATOM     23  H   LIG    1       -0.778   2.338   3.768  0.00  0.00    +0.440 HD
ENDBRANCH  19  20
ENDBRANCH   1  19
TORSDOF 4
