REMARK  Name = ZINCvU0000000GTg.0
REMARK                            x       y       z     vdW  Elec       q    Type
REMARK                         _______ _______ _______ _____ _____    ______ ____
ROOT
ATOM      1  O   LIG    1       -5.432  -3.113   0.551  0.00  0.00    -0.480 OA
ATOM      2  C   LIG    1       -5.775  -1.946   0.506  0.00  0.00    +0.610 C 
ATOM      3  N   LIG    1       -4.864  -0.969   0.682  0.00  0.00    -0.610 N 
ATOM      4  H   LIG    1       -5.138  -0.039   0.646  0.00  0.00    +0.430 HD
ENDROOT
BRANCH   3   5
ATOM      5  C   LIG    1       -3.538  -1.292   0.912  0.00  0.00    +0.300 A 
ATOM      6  N   LIG    1       -2.589  -0.436   1.093  0.00  0.00    -0.500 NA
ATOM      7  C   LIG    1       -1.355  -0.902   1.306  0.00  0.00    +0.130 A 
ATOM      8  C   LIG    1       -1.282  -2.292   1.299  0.00  0.00    -0.230 A 
ATOM      9  C   LIG    1       -0.060  -2.949   1.507  0.00  0.00    +0.070 A 
ATOM     10  C   LIG    1        1.092  -2.271   1.721  0.00  0.00    +0.040 A 
ATOM     11  C   LIG    1        1.099  -0.862   1.741  0.00  0.00    -0.040 A 
ATOM     12  C   LIG    1        2.287  -0.145   1.961  0.00  0.00    +0.020 A 
ATOM     13  C   LIG    1        2.258   1.217   1.974  0.00  0.00    +0.020 A 
ATOM     14  C   LIG    1        1.068   1.911   1.772  0.00  0.00    +0.010 A 
ATOM     15  C   LIG    1       -0.102   1.244   1.556  0.00  0.00    +0.040 A 
ATOM     16  C   LIG    1       -0.105  -0.155   1.538  0.00  0.00    -0.010 A 
ATOM     17  S   LIG    1       -2.900  -2.928   1.003  0.00  0.00    +0.210 S 
ENDBRANCH   3   5
BRANCH   2  18
ATOM     18  C   LIG    1       -7.183  -1.603   0.261  0.00  0.00    -0.070 A 
ATOM     19  C   LIG    1       -8.210  -2.486  -0.037  0.00  0.00    +0.120 A 
ATOM     20  O   LIG    1       -9.324  -1.742  -0.180  0.00  0.00    -0.180 OA
ATOM     21  C   LIG    1       -8.999  -0.457   0.021  0.00  0.00    +0.450 A 
ATOM     22  N   LIG    1       -7.732  -0.360   0.289  0.00  0.00    -0.460 NA
BRANCH  19  23
ATOM     23  C   LIG    1       -8.103  -3.951  -0.172  0.00  0.00    -0.040 A 
ATOM     24  C   LIG    1       -8.983  -4.785   0.523  0.00  0.00    +0.070 A 
ATOM     25  C   LIG    1       -8.880  -6.153   0.395  0.00  0.00    +0.020 A 
ATOM     26  C   LIG    1       -7.905  -6.709  -0.423  0.00  0.00    +0.080 A 
ATOM     27  O   LIG    1       -7.820  -8.062  -0.531  0.00  0.00    -0.300 OA
ATOM     28  C   LIG    1       -7.078  -8.575  -1.643  0.00  0.00    +0.230 C 
ATOM     29  C   LIG    1       -5.758  -7.798  -1.740  0.00  0.00    +0.230 C 
ATOM     30  O   LIG    1       -6.067  -6.413  -1.929  0.00  0.00    -0.300 OA
ATOM     31  C   LIG    1       -7.026  -5.883  -1.120  0.00  0.00    +0.050 A 
ATOM     32  C   LIG    1       -7.126  -4.509  -1.000  0.00  0.00    +0.100 A 
ENDBRANCH  19  23
ENDBRANCH   2  18
TORSDOF 3
