REMARK  Name = ZINCpe00000WDRUa.0
REMARK                            x       y       z     vdW  Elec       q    Type
REMARK                         _______ _______ _______ _____ _____    ______ ____
ROOT
ATOM      1  C   LIG    1       -0.013   1.086   0.008  0.00  0.00    +0.240 C 
ENDROOT
BRANCH   1   2
ATOM      2  C   LIG    1        1.423   1.615  -0.003  0.00  0.00    -0.020 C 
ATOM      3  C   LIG    1        1.545   3.053  -0.536  0.00  0.00    +0.010 C 
ATOM      4  C   LIG    1        2.824   2.594  -1.255  0.00  0.00    -0.000 C 
ATOM      5  C   LIG    1        2.233   1.174  -1.233  0.00  0.00    +0.020 C 
ENDBRANCH   1   2
BRANCH   1   6
ATOM      6  N   LIG    1       -0.721   1.571  -1.179  0.00  0.00    -0.710 N 
ATOM      7  H   LIG    1       -1.263   2.374  -1.126  0.00  0.00    +0.410 HD
ATOM      8  C   LIG    1       -0.620   0.902  -2.344  0.00  0.00    +0.610 C 
ATOM      9  O   LIG    1        0.059  -0.104  -2.411  0.00  0.00    -0.520 OA
BRANCH   8  10
ATOM     10  C   LIG    1       -1.334   1.391  -3.540  0.00  0.00    +0.000 A 
ATOM     11  C   LIG    1       -1.317   0.811  -4.776  0.00  0.00    +0.190 A 
ATOM     12  N   LIG    1       -2.102   1.574  -5.588  0.00  0.00    -0.370 N 
ATOM     13  C   LIG    1       -2.439   1.465  -6.908  0.00  0.00    +0.270 A 
ATOM     14  C   LIG    1       -3.251   2.371  -7.487  0.00  0.00    +0.010 A 
ATOM     15  C   LIG    1       -3.765   3.446  -6.738  0.00  0.00    +0.130 A 
ATOM     16  C   LIG    1       -3.438   3.568  -5.422  0.00  0.00    +0.050 A 
ATOM     17  F   LIG    1       -4.579   4.353  -7.322  0.00  0.00    -0.120 F 
ATOM     18  C   LIG    1       -2.587   2.611  -4.830  0.00  0.00    +0.250 A 
ATOM     19  N   LIG    1       -2.120   2.483  -3.599  0.00  0.00    -0.460 NA
ENDBRANCH   8  10
ENDBRANCH   1   6
BRANCH   1  20
ATOM     20  C   LIG    1       -0.729   1.579   1.267  0.00  0.00    +0.280 C 
BRANCH  20  22
ATOM     21  C   LIG    1       -2.966   1.500   2.229  0.00  0.00    +0.520 C 
ATOM     22  N   LIG    1       -2.135   1.173   1.219  0.00  0.00    -0.730 N 
ATOM     23  H   LIG    1       -2.469   0.668   0.461  0.00  0.00    +0.400 HD
ATOM     24  O   LIG    1       -2.548   2.130   3.178  0.00  0.00    -0.510 OA
BRANCH  21  26
ATOM     25  C   LIG    1       -5.109   1.788   1.016  0.00  0.00    +0.030 C 
ATOM     26  C   LIG    1       -4.413   1.081   2.181  0.00  0.00    +0.170 C 
BRANCH  26  27
ATOM     27  O   LIG    1       -5.054   1.440   3.407  0.00  0.00    -0.540 OA
ATOM     28  H   LIG    1       -5.990   1.200   3.446  0.00  0.00    +0.390 HD
ENDBRANCH  26  27
ENDBRANCH  21  26
ENDBRANCH  20  22
ENDBRANCH   1  20
TORSDOF 7
