REMARK  Name = ZINCpk000005lGiY.0
REMARK                            x       y       z     vdW  Elec       q    Type
REMARK                         _______ _______ _______ _____ _____    ______ ____
ROOT
ATOM      1  C   LIG    1       -0.806   4.358  -2.731  0.00  0.00    +0.490 C 
ATOM      2  N   LIG    1       -0.960   3.412  -1.783  0.00  0.00    -0.610 N 
ATOM      3  C   LIG    1        0.166   3.031  -0.919  0.00  0.00    +0.280 C 
ATOM      4  C   LIG    1       -0.258   3.197   0.546  0.00  0.00    +0.270 C 
ATOM      5  N   LIG    1       -1.558   2.529   0.733  0.00  0.00    -0.610 N 
ATOM      6  C   LIG    1       -2.683   2.910  -0.131  0.00  0.00    +0.280 C 
ATOM      7  C   LIG    1       -1.711   1.583   1.682  0.00  0.00    +0.600 C 
ATOM      8  O   LIG    1       -2.757   0.968   1.764  0.00  0.00    -0.540 OA
ATOM      9  C   LIG    1       -2.255   2.745  -1.595  0.00  0.00    +0.220 C 
ATOM     10  C   LIG    1       -2.119   1.257  -1.925  0.00  0.00    +0.030 C 
ATOM     11  O   LIG    1        0.241   4.962  -2.822  0.00  0.00    -0.520 OA
ENDROOT
BRANCH   7  12
ATOM     12  C   LIG    1       -0.611   1.296   2.620  0.00  0.00    -0.300 A 
ATOM     13  C   LIG    1       -0.192   0.047   3.033  0.00  0.00    +0.150 A 
ATOM     14  N   LIG    1        0.832   0.227   3.883  0.00  0.00    -0.360 N 
ATOM     15  N   LIG    1        1.064   1.601   4.012  0.00  0.00    -0.290 NA
ATOM     16  C   LIG    1        1.578  -0.835   4.561  0.00  0.00    +0.360 C 
ATOM     17  C   LIG    1       -0.775  -1.276   2.607  0.00  0.00    +0.170 C 
ATOM     18  C   LIG    1        0.215   2.246   3.261  0.00  0.00    +0.270 A 
ENDBRANCH   7  12
BRANCH   1  19
ATOM     19  C   LIG    1       -1.937   4.664  -3.679  0.00  0.00    +0.160 C 
BRANCH  19  21
ATOM     20  C   LIG    1       -2.069   7.054  -3.814  0.00  0.00    +0.200 C 
ATOM     21  O   LIG    1       -1.626   5.841  -4.427  0.00  0.00    -0.350 OA
ENDBRANCH  19  21
BRANCH  19  22
ATOM     22  C   LIG    1       -2.132   3.488  -4.638  0.00  0.00    +0.050 C 
BRANCH  22  23
ATOM     23  C   LIG    1       -3.381   3.725  -5.489  0.00  0.00    -0.020 C 
ATOM     24  C   LIG    1       -3.646   2.496  -6.361  0.00  0.00    +0.020 C 
ATOM     25  C   LIG    1       -3.164   4.948  -6.383  0.00  0.00    +0.030 C 
ENDBRANCH  22  23
ENDBRANCH  19  22
ENDBRANCH   1  19
TORSDOF 5
