REMARK  Name = ZINCqH0000036sWY.0
REMARK                            x       y       z     vdW  Elec       q    Type
REMARK                         _______ _______ _______ _____ _____    ______ ____
ROOT
ATOM      1  C   LIG    1       -0.016   1.344   0.009  0.00  0.00    +0.560 C 
ATOM      2  N   LIG    1        0.002   0.129   0.593  0.00  0.00    -0.550 N 
ATOM      3  C   LIG    1       -1.164  -0.356   1.344  0.00  0.00    +0.280 C 
ATOM      4  C   LIG    1       -0.653  -0.978   2.651  0.00  0.00    +0.030 C 
ATOM      5  C   LIG    1        0.223  -2.185   2.314  0.00  0.00    +0.100 C 
ATOM      6  C   LIG    1        1.274  -1.808   1.304  0.00  0.00    -0.110 A 
ATOM      7  C   LIG    1        2.404  -2.599   1.187  0.00  0.00    +0.090 A 
ATOM      8  C   LIG    1        3.378  -2.289   0.252  0.00  0.00    -0.200 A 
ATOM      9  C   LIG    1        3.235  -1.178  -0.558  0.00  0.00    +0.090 A 
ATOM     10  C   LIG    1        2.114  -0.381  -0.442  0.00  0.00    +0.030 A 
ATOM     11  C   LIG    1        1.130  -0.695   0.488  0.00  0.00    +0.190 A 
ATOM     12  O   LIG    1        0.994   1.788  -0.501  0.00  0.00    -0.500 OA
ENDROOT
BRANCH   1  16
ATOM     13  C   LIG    1       -3.597   3.627  -0.030  0.00  0.00    -0.640 A 
ATOM     14  C   LIG    1       -2.372   4.267  -0.094  0.00  0.00    +0.120 A 
ATOM     15  C   LIG    1       -1.205   3.531  -0.082  0.00  0.00    +0.070 A 
ATOM     16  C   LIG    1       -1.262   2.138  -0.004  0.00  0.00    -0.080 A 
ATOM     17  C   LIG    1       -2.502   1.499   0.054  0.00  0.00    +0.030 A 
ATOM     18  C   LIG    1       -3.661   2.247   0.046  0.00  0.00    +0.120 A 
BRANCH  13  20
ATOM     19  C   LIG    1       -5.506   4.723  -1.804  0.00  0.00    -0.250 C 
ATOM     20  S   LIG    1       -5.083   4.575  -0.046  0.00  0.00    +2.500 S 
ATOM     21  O   LIG    1       -4.699   5.837   0.482  0.00  0.00    -0.930 OA
ATOM     22  O   LIG    1       -6.028   3.755   0.627  0.00  0.00    -0.930 OA
ENDBRANCH  13  20
ENDBRANCH   1  16
BRANCH   8  23
ATOM     23  C   LIG    1        4.603  -3.158   0.127  0.00  0.00    +0.510 C 
ATOM     24  F   LIG    1        4.219  -4.458  -0.217  0.00  0.00    -0.180 F 
ATOM     25  F   LIG    1        5.286  -3.180   1.348  0.00  0.00    -0.180 F 
ATOM     26  F   LIG    1        5.442  -2.642  -0.867  0.00  0.00    -0.180 F 
ENDBRANCH   8  23
TORSDOF 3
