REMARK  Name = ZINCqH0000038U0q.1
REMARK                            x       y       z     vdW  Elec       q    Type
REMARK                         _______ _______ _______ _____ _____    ______ ____
ROOT
ATOM      1  N   LIG    1       -2.642   1.667   1.938  0.00  0.00    -0.670 NA
ATOM      2  H   LIG    1       -2.658   2.505   2.501  0.00  0.00    +0.340 HD
ENDROOT
BRANCH   1   3
ATOM      3  C   LIG    1       -4.004   1.184   1.675  0.00  0.00    +0.270 C 
BRANCH   3   7
ATOM      4  C   LIG    1       -6.989   1.379   5.697  0.00  0.00    +0.360 C 
ATOM      5  N   LIG    1       -5.980   0.933   4.732  0.00  0.00    -0.370 N 
ATOM      6  C   LIG    1       -5.640   1.569   3.590  0.00  0.00    +0.230 A 
ATOM      7  C   LIG    1       -4.677   0.845   2.980  0.00  0.00    -0.220 A 
ATOM      8  C   LIG    1       -4.418  -0.287   3.777  0.00  0.00    +0.140 A 
ATOM      9  N   LIG    1       -5.200  -0.226   4.834  0.00  0.00    -0.280 NA
BRANCH   8  10
ATOM     10  C   LIG    1       -3.434  -1.358   3.480  0.00  0.00    -0.000 A 
ATOM     11  C   LIG    1       -3.330  -1.873   2.190  0.00  0.00    +0.030 A 
ATOM     12  C   LIG    1       -2.410  -2.865   1.918  0.00  0.00    +0.000 A 
ATOM     13  C   LIG    1       -1.599  -3.356   2.926  0.00  0.00    +0.010 A 
ATOM     14  C   LIG    1       -1.702  -2.851   4.210  0.00  0.00    +0.000 A 
ATOM     15  C   LIG    1       -2.615  -1.855   4.492  0.00  0.00    +0.030 A 
ENDBRANCH   8  10
ENDBRANCH   3   7
ENDBRANCH   1   3
BRANCH   1  16
ATOM     16  C   LIG    1       -1.911   1.891   0.683  0.00  0.00    +0.260 C 
BRANCH  16  17
ATOM     17  C   LIG    1       -0.522   2.385   0.992  0.00  0.00    +0.090 A 
ATOM     18  C   LIG    1        0.589   1.623   1.088  0.00  0.00    -0.080 A 
ATOM     19  C   LIG    1        1.672   2.474   1.382  0.00  0.00    +0.120 A 
ATOM     20  N   LIG    1        1.211   3.704   1.463  0.00  0.00    -0.280 NA
ATOM     21  N   LIG    1       -0.169   3.668   1.224  0.00  0.00    -0.470 N 
ATOM     22  H   LIG    1       -0.766   4.432   1.222  0.00  0.00    +0.440 HD
BRANCH  19  23
ATOM     23  C   LIG    1        3.085   2.057   1.568  0.00  0.00    -0.020 A 
ATOM     24  C   LIG    1        3.437   0.714   1.460  0.00  0.00    +0.040 A 
ATOM     25  C   LIG    1        4.753   0.333   1.628  0.00  0.00    +0.010 A 
ATOM     26  C   LIG    1        5.719   1.280   1.915  0.00  0.00    +0.010 A 
ATOM     27  C   LIG    1        5.373   2.615   2.030  0.00  0.00    +0.010 A 
ATOM     28  C   LIG    1        4.062   3.007   1.858  0.00  0.00    +0.040 A 
ENDBRANCH  19  23
ENDBRANCH  16  17
ENDBRANCH   1  16
TORSDOF 6
