REMARK  Name = ZINCb70000002E4W.0
REMARK                            x       y       z     vdW  Elec       q    Type
REMARK                         _______ _______ _______ _____ _____    ______ ____
ROOT
ATOM      1  N   LIG    1       -0.706   1.942   1.219  0.00  0.00    -0.520 NA
ATOM      2  C   LIG    1        0.055   1.596   2.426  0.00  0.00    +0.170 C 
ATOM      3  C   LIG    1       -0.613   2.228   3.650  0.00  0.00    +0.040 C 
ATOM      4  C   LIG    1       -2.050   1.713   3.764  0.00  0.00    +0.010 C 
ATOM      5  C   LIG    1       -2.806   2.043   2.474  0.00  0.00    +0.000 C 
ATOM      6  C   LIG    1       -2.075   1.416   1.285  0.00  0.00    +0.190 C 
ENDROOT
BRANCH   1   7
ATOM      7  C   LIG    1       -0.018   1.468   0.010  0.00  0.00    +0.410 C 
BRANCH   7   9
ATOM      8  N   LIG    1        0.018  -1.140  -0.004  0.00  0.00    -0.410 NA
ATOM      9  C   LIG    1        0.002  -0.004   0.002  0.00  0.00    +0.160 C 
ENDBRANCH   7   9
ENDBRANCH   1   7
BRANCH   5  10
ATOM     10  C   LIG    1       -4.226   1.479   2.556  0.00  0.00    +0.260 C 
BRANCH  10  11
ATOM     11  N   LIG    1       -4.965   2.164   3.625  0.00  0.00    -0.640 N 
ATOM     12  H   LIG    1       -5.901   1.792   3.679  0.00  0.00    +0.440 HD
ATOM     13  H   LIG    1       -5.006   3.152   3.425  0.00  0.00    +0.440 HD
ATOM     14  H   LIG    1       -4.494   2.019   4.506  0.00  0.00    +0.430 HD
ENDBRANCH  10  11
ENDBRANCH   5  10
TORSDOF 4
