REMARK  Name = ZINCrg000009DEIn.0
REMARK                            x       y       z     vdW  Elec       q    Type
REMARK                         _______ _______ _______ _____ _____    ______ ____
ROOT
ATOM      1  C   LIG    1       -1.353   2.194   0.912  0.00  0.00    +0.120 A 
ATOM      2  C   LIG    1       -0.331   2.512   1.797  0.00  0.00    +0.030 A 
ATOM      3  C   LIG    1        0.771   1.687   1.903  0.00  0.00    -0.010 A 
ATOM      4  C   LIG    1        0.853   0.534   1.133  0.00  0.00    +0.170 A 
ATOM      5  C   LIG    1       -0.172   0.213   0.253  0.00  0.00    +0.000 A 
ATOM      6  C   LIG    1       -1.272   1.041   0.142  0.00  0.00    +0.050 A 
ENDROOT
BRANCH   4   7
ATOM      7  N   LIG    1        1.967  -0.304   1.245  0.00  0.00    -0.950 N 
ATOM      8  C   LIG    1        1.887  -1.736   0.909  0.00  0.00    +0.290 C 
ATOM      9  C   LIG    1        2.950  -2.068  -0.139  0.00  0.00    +0.020 C 
ATOM     10  C   LIG    1        4.353  -1.867   0.432  0.00  0.00    +0.290 C 
ATOM     11  N   LIG    1        4.551  -0.442   0.745  0.00  0.00    -1.120 NA
ATOM     12  H   LIG    1        5.294   0.059   0.375  0.00  0.00    +0.420 HD
ATOM     13  S   LIG    1        3.444   0.275   1.759  0.00  0.00    +2.780 S 
ATOM     14  O   LIG    1        3.669  -0.263   3.055  0.00  0.00    -0.960 OA
ATOM     15  O   LIG    1        3.462   1.666   1.470  0.00  0.00    -0.960 OA
ENDBRANCH   4   7
BRANCH   1  17
ATOM     16  C   LIG    1       -3.684   2.510   0.540  0.00  0.00    +0.520 C 
ATOM     17  N   LIG    1       -2.470   3.034   0.800  0.00  0.00    -0.670 N 
ATOM     18  H   LIG    1       -2.368   3.992   0.910  0.00  0.00    +0.410 HD
ATOM     19  O   LIG    1       -3.828   1.306   0.497  0.00  0.00    -0.510 OA
BRANCH  16  24
ATOM     20  C   LIG    1       -8.610   4.569   1.530  0.00  0.00    +0.550 C 
ATOM     21  N   LIG    1       -7.435   4.441   0.882  0.00  0.00    -0.610 N 
ATOM     22  C   LIG    1       -7.298   3.504  -0.241  0.00  0.00    +0.280 C 
ATOM     23  C   LIG    1       -6.110   2.576   0.033  0.00  0.00    +0.060 C 
ATOM     24  C   LIG    1       -4.862   3.419   0.304  0.00  0.00    +0.000 C 
ATOM     25  C   LIG    1       -5.091   4.289   1.542  0.00  0.00    +0.030 C 
ATOM     26  C   LIG    1       -6.268   5.236   1.286  0.00  0.00    +0.290 C 
ATOM     27  O   LIG    1       -9.541   3.838   1.251  0.00  0.00    -0.540 OA
BRANCH  20  29
ATOM     28  C   LIG    1       -9.887   5.649   3.289  0.00  0.00    +0.140 C 
ATOM     29  C   LIG    1       -8.766   5.593   2.575  0.00  0.00    -0.090 C 
ENDBRANCH  20  29
ENDBRANCH  16  24
ENDBRANCH   1  17
TORSDOF 4
