REMARK  Name = ZINCqH0000038G0z.0
REMARK                            x       y       z     vdW  Elec       q    Type
REMARK                         _______ _______ _______ _____ _____    ______ ____
ROOT
ATOM      1  N   LIG    1       -0.016   1.344   0.009  0.00  0.00    -0.670 N 
ATOM      2  H   LIG    1       -0.907   1.703   0.141  0.00  0.00    +0.420 HD
ATOM      3  C   LIG    1        0.155   0.020  -0.176  0.00  0.00    +0.520 C 
ATOM      4  O   LIG    1        1.255  -0.418  -0.440  0.00  0.00    -0.510 OA
ENDROOT
BRANCH   1  10
ATOM      5  C   LIG    1        4.121   7.287  -0.972  0.00  0.00    +0.220 C 
ATOM      6  C   LIG    1        3.510   5.944  -0.662  0.00  0.00    +0.250 A 
ATOM      7  N   LIG    1        2.272   5.622  -0.886  0.00  0.00    -0.480 NA
ATOM      8  C   LIG    1        2.072   4.338  -0.484  0.00  0.00    +0.040 A 
ATOM      9  C   LIG    1        0.966   3.487  -0.484  0.00  0.00    +0.050 A 
ATOM     10  C   LIG    1        1.092   2.201   0.007  0.00  0.00    +0.150 A 
ATOM     11  C   LIG    1        2.314   1.755   0.505  0.00  0.00    +0.060 A 
ATOM     12  C   LIG    1        3.413   2.587   0.503  0.00  0.00    +0.070 A 
ATOM     13  C   LIG    1        3.302   3.880   0.014  0.00  0.00    -0.010 A 
ATOM     14  O   LIG    1        4.168   4.910  -0.116  0.00  0.00    -0.210 OA
ENDBRANCH   1  10
BRANCH   3  15
ATOM     15  C   LIG    1       -1.019  -0.917  -0.056  0.00  0.00    -0.010 C 
ATOM     16  C   LIG    1       -0.555  -2.353  -0.307  0.00  0.00    +0.060 C 
ATOM     17  C   LIG    1       -1.753  -3.301  -0.218  0.00  0.00    +0.020 C 
ATOM     18  C   LIG    1       -2.355  -3.226   1.190  0.00  0.00    +0.280 C 
ATOM     19  N   LIG    1       -2.670  -1.824   1.495  0.00  0.00    -0.600 N 
ATOM     20  C   LIG    1       -3.907  -1.471   1.897  0.00  0.00    +0.660 C 
ATOM     21  O   LIG    1       -4.156  -0.308   2.146  0.00  0.00    -0.570 OA
ATOM     22  C   LIG    1       -1.612  -0.815   1.353  0.00  0.00    +0.320 C 
BRANCH  20  23
ATOM     23  O   LIG    1       -4.867  -2.406   2.023  0.00  0.00    -0.360 OA
BRANCH  23  24
ATOM     24  C   LIG    1       -6.175  -1.953   2.461  0.00  0.00    +0.140 C 
ATOM     25  C   LIG    1       -6.054  -1.301   3.839  0.00  0.00    +0.040 C 
ATOM     26  C   LIG    1       -7.127  -3.148   2.544  0.00  0.00    +0.080 C 
ATOM     27  C   LIG    1       -6.723  -0.934   1.460  0.00  0.00    +0.040 C 
ENDBRANCH  23  24
ENDBRANCH  20  23
ENDBRANCH   3  15
TORSDOF 4
