REMARK  Name = ZINCtj00000oMyCa.1
REMARK                            x       y       z     vdW  Elec       q    Type
REMARK                         _______ _______ _______ _____ _____    ______ ____
ROOT
ATOM      1  N   LIG    1       -1.474   3.755   2.546  0.00  0.00    -0.740 N 
ATOM      2  H   LIG    1       -1.828   3.116   3.185  0.00  0.00    +0.390 HD
ATOM      3  C   LIG    1       -0.843   3.320   1.438  0.00  0.00    +0.700 C 
ATOM      4  N   LIG    1       -0.704   1.998   1.216  0.00  0.00    -0.750 N 
ATOM      5  H   LIG    1       -1.058   1.359   1.854  0.00  0.00    +0.380 HD
ATOM      6  O   LIG    1       -0.400   4.121   0.637  0.00  0.00    -0.580 OA
ENDROOT
BRANCH   1   7
ATOM      7  C   LIG    1       -1.625   5.192   2.787  0.00  0.00    +0.340 C 
BRANCH   7  12
ATOM      8  C   LIG    1       -2.334   5.720   6.463  0.00  0.00    +0.220 A 
ATOM      9  C   LIG    1       -3.720   5.808   6.465  0.00  0.00    -0.070 A 
ATOM     10  C   LIG    1       -4.419   5.697   5.279  0.00  0.00    +0.050 A 
ATOM     11  C   LIG    1       -3.740   5.503   4.090  0.00  0.00    -0.040 A 
ATOM     12  C   LIG    1       -2.361   5.409   4.085  0.00  0.00    -0.060 A 
ATOM     13  C   LIG    1       -1.655   5.519   5.267  0.00  0.00    -0.060 A 
BRANCH   8  14
ATOM     14  N   LIG    1       -1.624   5.831   7.660  0.00  0.00    -0.740 N 
ATOM     15  H   LIG    1       -0.656   5.769   7.658  0.00  0.00    +0.400 HD
BRANCH  14  17
ATOM     16  C   LIG    1       -1.492   5.524  10.083  0.00  0.00    +0.030 C 
ATOM     17  C   LIG    1       -2.341   6.042   8.920  0.00  0.00    +0.220 C 
ATOM     18  C   LIG    1       -2.609   7.537   9.110  0.00  0.00    +0.020 C 
ENDBRANCH  14  17
ENDBRANCH   8  14
ENDBRANCH   7  12
ENDBRANCH   1   7
BRANCH   4  19
ATOM     19  C   LIG    1       -0.019   1.526   0.010  0.00  0.00    +0.320 C 
BRANCH  19  20
ATOM     20  C   LIG    1        0.002  -0.004   0.002  0.00  0.00    +0.170 C 
ATOM     21  C   LIG    1        0.891  -0.525  -1.154  0.00  0.00    +0.090 C 
ATOM     22  C   LIG    1        1.290  -1.932  -0.632  0.00  0.00    +0.170 C 
ATOM     23  C   LIG    1        1.430  -1.713   0.889  0.00  0.00    +0.210 C 
ATOM     24  N   LIG    1        0.640  -0.517   1.233  0.00  0.00    -0.440 NA
BRANCH  24  25
ATOM     25  C   LIG    1       -0.309  -0.810   2.200  0.00  0.00    +0.420 C 
ATOM     26  C   LIG    1        0.077  -1.307   3.441  0.00  0.00    -0.090 C 
ATOM     27  C   LIG    1       -0.914  -1.585   4.377  0.00  0.00    +0.490 C 
ATOM     28  N   LIG    1       -2.187  -1.366   4.054  0.00  0.00    -0.560 NA
ATOM     29  C   LIG    1       -2.513  -0.893   2.868  0.00  0.00    +0.670 C 
ATOM     30  H   LIG    1       -2.885  -1.557   4.701  0.00  0.00    +0.450 HD
ATOM     31  N   LIG    1       -1.604  -0.614   1.957  0.00  0.00    -0.540 NA
BRANCH  27  32
ATOM     32  N   LIG    1       -0.581  -2.082   5.627  0.00  0.00    -0.800 NA
ATOM     33  H   LIG    1       -1.277  -2.273   6.275  0.00  0.00    +0.430 HD
ATOM     34  H   LIG    1        0.349  -2.239   5.855  0.00  0.00    +0.440 HD
ENDBRANCH  27  32
ENDBRANCH  24  25
BRANCH  22  35
ATOM     35  O   LIG    1        2.532  -2.353  -1.199  0.00  0.00    -0.540 OA
ATOM     36  H   LIG    1        2.860  -3.193  -0.849  0.00  0.00    +0.390 HD
ENDBRANCH  22  35
ENDBRANCH  19  20
ENDBRANCH   4  19
TORSDOF 9
