REMARK  Name = ZINCkj00000Bf2X4.1
REMARK                            x       y       z     vdW  Elec       q    Type
REMARK                         _______ _______ _______ _____ _____    ______ ____
ROOT
ATOM      1  C   LIG    1       -2.211   1.431   1.631  0.00  0.00    +0.140 C 
ATOM      2  C   LIG    1       -3.144   2.073   0.603  0.00  0.00    +0.080 C 
ATOM      3  C   LIG    1       -2.681   1.692  -0.807  0.00  0.00    +0.040 C 
ATOM      4  C   LIG    1       -1.225   2.129  -0.991  0.00  0.00    +0.060 C 
ATOM      5  C   LIG    1       -0.363   1.485   0.097  0.00  0.00    +0.260 C 
ATOM      6  N   LIG    1       -0.840   1.909   1.419  0.00  0.00    -0.370 N 
ATOM      7  H   LIG    1       -0.823   2.916   1.474  0.00  0.00    +0.430 HD
ENDROOT
BRANCH   1   8
ATOM      8  C   LIG    1       -2.669   1.808   3.041  0.00  0.00    +0.350 C 
BRANCH   8  15
ATOM      9  C   LIG    1       -3.264  -0.999   4.214  0.00  0.00    +0.150 C 
ATOM     10  C   LIG    1       -4.276   0.035   3.795  0.00  0.00    +0.080 A 
ATOM     11  C   LIG    1       -5.622  -0.092   3.863  0.00  0.00    -0.090 A 
ATOM     12  C   LIG    1       -6.191   1.090   3.377  0.00  0.00    +0.100 A 
ATOM     13  N   LIG    1       -5.222   1.900   3.036  0.00  0.00    -0.290 NA
ATOM     14  C   LIG    1       -7.665   1.382   3.272  0.00  0.00    +0.160 C 
ATOM     15  N   LIG    1       -4.004   1.255   3.285  0.00  0.00    -0.390 N 
ENDBRANCH   8  15
ENDBRANCH   1   8
BRANCH   6  16
ATOM     16  C   LIG    1        0.037   1.350   2.456  0.00  0.00    +0.290 C 
BRANCH  16  17
ATOM     17  C   LIG    1        1.443   1.936   2.306  0.00  0.00    -0.360 C 
BRANCH  17  18
ATOM     18  S   LIG    1        2.483   1.373   3.682  0.00  0.00    +2.430 S 
ATOM     19  O   LIG    1        2.732  -0.017   3.521  0.00  0.00    -0.910 OA
ATOM     20  O   LIG    1        1.917   1.841   4.898  0.00  0.00    -0.920 OA
ATOM     21  C   LIG    1        4.027   2.276   3.378  0.00  0.00    -0.220 C 
ENDBRANCH  17  18
ENDBRANCH  16  17
ENDBRANCH   6  16
TORSDOF 5
