REMARK  Name = ZINCkj00000Bf2X4.2
REMARK                            x       y       z     vdW  Elec       q    Type
REMARK                         _______ _______ _______ _____ _____    ______ ____
ROOT
ATOM      1  C   LIG    1       -1.996   1.048   1.168  0.00  0.00    +0.160 C 
ATOM      2  C   LIG    1       -2.581   1.663  -0.105  0.00  0.00    +0.070 C 
ATOM      3  C   LIG    1       -1.837   1.108  -1.323  0.00  0.00    +0.060 C 
ATOM      4  C   LIG    1       -0.342   1.401  -1.172  0.00  0.00    +0.060 C 
ATOM      5  C   LIG    1        0.161   0.795   0.140  0.00  0.00    +0.250 C 
ATOM      6  N   LIG    1       -0.571   1.385   1.267  0.00  0.00    -0.370 N 
ATOM      7  H   LIG    1       -0.202   1.023   2.134  0.00  0.00    +0.430 HD
ENDROOT
BRANCH   1   8
ATOM      8  C   LIG    1       -2.736   1.600   2.388  0.00  0.00    +0.370 C 
BRANCH   8  15
ATOM      9  C   LIG    1       -3.691  -1.123   3.522  0.00  0.00    +0.160 C 
ATOM     10  C   LIG    1       -2.630  -0.225   4.106  0.00  0.00    +0.090 A 
ATOM     11  C   LIG    1       -1.914  -0.462   5.229  0.00  0.00    -0.100 A 
ATOM     12  C   LIG    1       -1.040   0.614   5.418  0.00  0.00    +0.110 A 
ATOM     13  N   LIG    1       -1.221   1.463   4.439  0.00  0.00    -0.320 NA
ATOM     14  C   LIG    1       -0.056   0.765   6.549  0.00  0.00    +0.160 C 
ATOM     15  N   LIG    1       -2.224   0.959   3.601  0.00  0.00    -0.410 N 
ENDBRANCH   8  15
ENDBRANCH   1   8
BRANCH   6  16
ATOM     16  C   LIG    1       -0.412   2.845   1.242  0.00  0.00    +0.290 C 
BRANCH  16  17
ATOM     17  C   LIG    1        1.057   3.202   1.477  0.00  0.00    -0.360 C 
BRANCH  17  18
ATOM     18  S   LIG    1        1.254   5.005   1.446  0.00  0.00    +2.430 S 
ATOM     19  O   LIG    1        0.552   5.556   2.552  0.00  0.00    -0.910 OA
ATOM     20  O   LIG    1        0.960   5.470   0.136  0.00  0.00    -0.920 OA
ATOM     21  C   LIG    1        3.034   5.193   1.740  0.00  0.00    -0.240 C 
ENDBRANCH  17  18
ENDBRANCH  16  17
ENDBRANCH   6  16
TORSDOF 5
