REMARK  Name = ZINCpk00000KfLQA.0
REMARK                            x       y       z     vdW  Elec       q    Type
REMARK                         _______ _______ _______ _____ _____    ______ ____
ROOT
ATOM      1  C   LIG    1       -1.577   3.252   2.737  0.00  0.00    +0.140 A 
ATOM      2  N   LIG    1       -0.933   3.295   1.596  0.00  0.00    -0.430 NA
ATOM      3  C   LIG    1       -0.724   2.012   1.250  0.00  0.00    +0.190 A 
ATOM      4  N   LIG    1       -1.247   1.268   2.179  0.00  0.00    -0.370 NA
ATOM      5  O   LIG    1       -1.738   1.962   3.045  0.00  0.00    +0.090 OA
ENDROOT
BRANCH   3   6
ATOM      6  C   LIG    1       -0.019   1.526   0.010  0.00  0.00    +0.040 C 
ATOM      7  C   LIG    1       -0.759   2.033  -1.229  0.00  0.00    +0.030 C 
ATOM      8  C   LIG    1       -0.043   1.539  -2.488  0.00  0.00    +0.000 C 
ATOM      9  C   LIG    1        1.393   2.069  -2.499  0.00  0.00    +0.030 C 
ATOM     10  C   LIG    1        2.133   1.562  -1.259  0.00  0.00    +0.000 C 
ATOM     11  C   LIG    1        2.154   0.032  -1.268  0.00  0.00    +0.020 C 
ATOM     12  C   LIG    1        0.718  -0.497  -1.257  0.00  0.00    +0.000 C 
ATOM     13  C   LIG    1       -0.022   0.009  -2.496  0.00  0.00    +0.020 C 
ATOM     14  C   LIG    1        1.417   2.055  -0.000  0.00  0.00    +0.030 C 
ATOM     15  C   LIG    1        0.002  -0.004   0.002  0.00  0.00    +0.040 C 
ENDBRANCH   3   6
BRANCH   1  16
ATOM     16  C   LIG    1       -2.048   4.433   3.547  0.00  0.00    +0.510 C 
BRANCH  16  19
ATOM     17  C   LIG    1       -5.534   5.272   3.168  0.00  0.00    -0.810 A 
ATOM     18  C   LIG    1       -4.481   4.907   3.935  0.00  0.00    +0.390 A 
ATOM     19  N   LIG    1       -3.403   4.803   3.130  0.00  0.00    -0.370 N 
ATOM     20  N   LIG    1       -3.809   5.105   1.823  0.00  0.00    -0.270 NA
ATOM     21  C   LIG    1       -5.087   5.386   1.848  0.00  0.00    +0.340 A 
BRANCH  17  22
ATOM     22  S   LIG    1       -7.181   5.548   3.732  0.00  0.00    +2.740 S 
ATOM     23  O   LIG    1       -7.793   6.404   2.778  0.00  0.00    -0.960 OA
ATOM     24  O   LIG    1       -7.083   5.867   5.113  0.00  0.00    -0.970 OA
BRANCH  22  25
ATOM     25  N   LIG    1       -7.979   4.100   3.641  0.00  0.00    -1.250 NA
ATOM     26  H   LIG    1       -8.909   4.041   3.911  0.00  0.00    +0.420 HD
ATOM     27  H   LIG    1       -7.516   3.311   3.319  0.00  0.00    +0.420 HD
ENDBRANCH  22  25
ENDBRANCH  17  22
ENDBRANCH  16  19
ENDBRANCH   1  16
TORSDOF 5
