REMARK  Name = ZINCpk00001AZiYM.0
REMARK                            x       y       z     vdW  Elec       q    Type
REMARK                         _______ _______ _______ _____ _____    ______ ____
ROOT
ATOM      1  C   LIG    1        2.776  -5.516  -3.624  0.00  0.00    +0.530 C 
ATOM      2  N   LIG    1        2.931  -4.865  -2.454  0.00  0.00    -0.610 N 
ATOM      3  C   LIG    1        3.753  -3.648  -2.373  0.00  0.00    +0.310 C 
ATOM      4  C   LIG    1        2.856  -2.462  -1.996  0.00  0.00    +0.110 C 
ATOM      5  C   LIG    1        1.941  -2.880  -0.875  0.00  0.00    -0.010 A 
ATOM      6  C   LIG    1        1.681  -4.158  -0.527  0.00  0.00    -0.020 A 
ATOM      7  N   LIG    1        0.831  -4.147   0.503  0.00  0.00    -0.470 NA
ATOM      8  C   LIG    1        0.555  -2.908   0.819  0.00  0.00    +0.400 A 
ATOM      9  N   LIG    1        1.236  -2.083  -0.021  0.00  0.00    -0.410 N 
ATOM     10  C   LIG    1        2.281  -5.355  -1.225  0.00  0.00    +0.390 C 
ATOM     11  O   LIG    1        3.318  -5.100  -4.626  0.00  0.00    -0.530 OA
ENDROOT
BRANCH   1  15
ATOM     12  C   LIG    1        1.665  -9.957  -4.711  0.00  0.00    +0.570 C 
ATOM     13  N   LIG    1        2.004  -8.688  -4.410  0.00  0.00    -0.640 N 
ATOM     14  C   LIG    1        1.852  -7.388  -5.091  0.00  0.00    +0.320 C 
ATOM     15  C   LIG    1        1.930  -6.761  -3.687  0.00  0.00    -0.020 C 
ATOM     16  C   LIG    1        2.677  -8.041  -3.267  0.00  0.00    +0.310 C 
ATOM     17  O   LIG    1        1.099 -10.203  -5.759  0.00  0.00    -0.540 OA
BRANCH  12  19
ATOM     18  C   LIG    1        1.644 -12.297  -4.069  0.00  0.00    +0.150 C 
ATOM     19  C   LIG    1        1.978 -11.045  -3.772  0.00  0.00    -0.080 C 
ENDBRANCH  12  19
ENDBRANCH   1  15
BRANCH   9  20
ATOM     20  C   LIG    1        1.214  -0.680  -0.013  0.00  0.00    +0.110 A 
ATOM     21  C   LIG    1        0.002  -0.004   0.002  0.00  0.00    +0.020 A 
ATOM     22  C   LIG    1       -0.017   1.377   0.010  0.00  0.00    +0.040 A 
ATOM     23  C   LIG    1        1.171   2.086   0.002  0.00  0.00    +0.020 A 
ATOM     24  C   LIG    1        2.380   1.415  -0.013  0.00  0.00    +0.040 A 
ATOM     25  C   LIG    1        2.405   0.034  -0.021  0.00  0.00    +0.020 A 
ENDBRANCH   9  20
TORSDOF 3
