REMARK  Name = ZINCrH000004v0ce.0
REMARK                            x       y       z     vdW  Elec       q    Type
REMARK                         _______ _______ _______ _____ _____    ______ ____
ROOT
ATOM      1  C   LIG    1       -2.612   4.380  -4.621  0.00  0.00    -0.010 C 
ATOM      2  C   LIG    1       -1.843   3.250  -5.310  0.00  0.00    +0.040 C 
ATOM      3  C   LIG    1       -2.021   1.952  -4.517  0.00  0.00    +0.030 C 
ATOM      4  C   LIG    1       -3.506   1.578  -4.485  0.00  0.00    +0.290 C 
ATOM      5  N   LIG    1       -4.269   2.717  -3.957  0.00  0.00    -1.000 NA
ATOM      6  C   LIG    1       -4.108   4.031  -4.593  0.00  0.00    +0.330 C 
ENDROOT
BRANCH   1   8
ATOM      7  O   LIG    1       -3.365   6.246  -5.854  0.00  0.00    -0.510 OA
ATOM      8  C   LIG    1       -2.410   5.663  -5.384  0.00  0.00    +0.530 C 
ATOM      9  N   LIG    1       -1.169   6.164  -5.545  0.00  0.00    -0.680 N 
ATOM     10  H   LIG    1       -0.414   5.740  -5.107  0.00  0.00    +0.410 HD
BRANCH   9  11
ATOM     11  C   LIG    1       -0.969   7.299  -6.343  0.00  0.00    +0.060 A 
ATOM     12  C   LIG    1       -0.724   7.158  -7.704  0.00  0.00    +0.140 A 
ATOM     13  C   LIG    1       -0.532   8.280  -8.490  0.00  0.00    -0.010 A 
ATOM     14  C   LIG    1       -0.574   9.540  -7.921  0.00  0.00    +0.100 A 
ATOM     15  C   LIG    1       -0.812   9.684  -6.567  0.00  0.00    -0.010 A 
ATOM     16  F   LIG    1       -0.678   5.928  -8.260  0.00  0.00    -0.120 F 
ATOM     17  C   LIG    1       -1.010   8.566  -5.775  0.00  0.00    +0.140 A 
ATOM     18  F   LIG    1       -1.242   8.708  -4.452  0.00  0.00    -0.120 F 
ENDBRANCH   9  11
ENDBRANCH   1   8
BRANCH   5  19
ATOM     19  S   LIG    1       -5.298   2.521  -2.674  0.00  0.00    +2.690 S 
ATOM     20  O   LIG    1       -6.249   3.574  -2.758  0.00  0.00    -0.940 OA
ATOM     21  O   LIG    1       -5.659   1.147  -2.655  0.00  0.00    -0.950 OA
BRANCH  19  22
ATOM     22  C   LIG    1       -4.364   2.811  -1.208  0.00  0.00    -0.670 A 
ATOM     23  C   LIG    1       -3.711   1.763  -0.587  0.00  0.00    +0.140 A 
ATOM     24  C   LIG    1       -2.982   1.989   0.566  0.00  0.00    +0.030 A 
ATOM     25  C   LIG    1       -2.898   3.265   1.092  0.00  0.00    -0.040 A 
ATOM     26  C   LIG    1       -3.548   4.314   0.467  0.00  0.00    +0.030 A 
ATOM     27 BR   LIG    1       -1.896   3.576   2.665  0.00  0.00    -0.030 Br
ATOM     28  C   LIG    1       -4.281   4.087  -0.683  0.00  0.00    +0.140 A 
ENDBRANCH  19  22
ENDBRANCH   5  19
TORSDOF 4
