REMARK  Name = ZINCpe000000XDx4.0
REMARK                            x       y       z     vdW  Elec       q    Type
REMARK                         _______ _______ _______ _____ _____    ______ ____
ROOT
ATOM      1  C   LIG    1        0.002  -0.004   0.002  0.00  0.00    +0.570 C 
ATOM      2  N   LIG    1       -0.016   1.344   0.009  0.00  0.00    -0.730 N 
ATOM      3  H   LIG    1       -0.863   1.817   0.016  0.00  0.00    +0.400 HD
ATOM      4  O   LIG    1        1.063  -0.598  -0.011  0.00  0.00    -0.530 OA
ENDROOT
BRANCH   1   8
ATOM      5  C   LIG    1       -2.414  -4.365  -0.000  0.00  0.00    +0.110 C 
ATOM      6  C   LIG    1       -2.432  -2.858   0.009  0.00  0.00    -0.070 A 
ATOM      7  C   LIG    1       -1.248  -2.157  -0.004  0.00  0.00    +0.090 A 
ATOM      8  C   LIG    1       -1.265  -0.759   0.010  0.00  0.00    -0.130 A 
ATOM      9  C   LIG    1       -2.486  -0.078   0.025  0.00  0.00    +0.040 A 
ATOM     10  C   LIG    1       -3.667  -0.785   0.032  0.00  0.00    -0.020 A 
ATOM     11  C   LIG    1       -3.646  -2.177   0.024  0.00  0.00    +0.110 A 
BRANCH  11  12
ATOM     12  N   LIG    1       -4.841  -2.889   0.030  0.00  0.00    -0.500 N 
ATOM     13  C   LIG    1       -5.617  -2.627  -1.191  0.00  0.00    +0.160 C 
ATOM     14  C   LIG    1       -6.892  -3.474  -1.170  0.00  0.00    +0.220 C 
ATOM     15  O   LIG    1       -7.634  -3.179   0.017  0.00  0.00    -0.380 OA
ATOM     16  C   LIG    1       -6.909  -3.423   1.225  0.00  0.00    +0.220 C 
ATOM     17  C   LIG    1       -5.634  -2.576   1.228  0.00  0.00    +0.160 C 
ENDBRANCH  11  12
ENDBRANCH   1   8
BRANCH   2  18
ATOM     18  C   LIG    1        1.242   2.093   0.001  0.00  0.00    +0.450 C 
BRANCH  18  19
ATOM     19  C   LIG    1        0.947   3.571   0.012  0.00  0.00    +0.180 A 
ATOM     20  N   LIG    1        0.810   4.303   1.077  0.00  0.00    -0.440 NA
ATOM     21  C   LIG    1        0.551   5.582   0.691  0.00  0.00    -0.080 A 
ATOM     22  C   LIG    1        0.538   5.594  -0.670  0.00  0.00    +0.280 A 
ATOM     23  O   LIG    1        0.790   4.339  -1.075  0.00  0.00    -0.190 OA
BRANCH  21  24
ATOM     24  C   LIG    1        0.328   6.737   1.579  0.00  0.00    +0.610 C 
ATOM     25  O   LIG    1        0.105   7.834   1.105  0.00  0.00    -0.540 OA
ATOM     26  N   LIG    1        0.371   6.577   2.917  0.00  0.00    -0.830 N 
ATOM     27  H   LIG    1        0.224   7.337   3.501  0.00  0.00    +0.410 HD
ATOM     28  H   LIG    1        0.549   5.701   3.295  0.00  0.00    +0.410 HD
ENDBRANCH  21  24
ENDBRANCH  18  19
ENDBRANCH   2  18
TORSDOF 5
