REMARK  Name = ZINCqH0000003SPi.0
REMARK                            x       y       z     vdW  Elec       q    Type
REMARK                         _______ _______ _______ _____ _____    ______ ____
ROOT
ATOM      1  C   LIG    1        0.081   7.095   1.885  0.00  0.00    +0.460 C 
ATOM      2  O   LIG    1        0.822   7.700   1.148  0.00  0.00    -0.490 OA
ENDROOT
BRANCH   1   3
ATOM      3  C   LIG    1       -0.178   7.606   3.279  0.00  0.00    +0.160 C 
BRANCH   3   7
ATOM      4  C   LIG    1        2.030  11.208   3.908  0.00  0.00    -0.660 A 
ATOM      5  C   LIG    1        0.746  11.264   3.400  0.00  0.00    +0.120 A 
ATOM      6  C   LIG    1        0.031  10.099   3.196  0.00  0.00    +0.010 A 
ATOM      7  C   LIG    1        0.601   8.877   3.501  0.00  0.00    -0.020 A 
ATOM      8  C   LIG    1        1.883   8.820   4.014  0.00  0.00    +0.010 A 
ATOM      9  C   LIG    1        2.599   9.986   4.214  0.00  0.00    +0.120 A 
BRANCH   4  10
ATOM     10  S   LIG    1        2.941  12.694   4.168  0.00  0.00    +2.490 S 
ATOM     11  O   LIG    1        2.385  13.613   3.237  0.00  0.00    -0.930 OA
ATOM     12  O   LIG    1        4.301  12.291   4.077  0.00  0.00    -0.930 OA
BRANCH  10  14
ATOM     13  C   LIG    1        3.273  14.477   6.215  0.00  0.00    +0.080 C 
ATOM     14  C   LIG    1        2.534  13.184   5.866  0.00  0.00    -0.330 C 
ENDBRANCH  10  14
ENDBRANCH   4  10
ENDBRANCH   3   7
ENDBRANCH   1   3
BRANCH   1  15
ATOM     15  O   LIG    1       -0.512   5.967   1.463  0.00  0.00    -0.340 OA
BRANCH  15  16
ATOM     16  C   LIG    1       -0.135   5.476   0.149  0.00  0.00    +0.240 C 
BRANCH  16  17
ATOM     17  C   LIG    1       -0.180   3.970   0.144  0.00  0.00    +0.120 A 
ATOM     18  C   LIG    1        0.988   3.252  -0.033  0.00  0.00    -0.020 A 
ATOM     19  C   LIG    1        0.936   1.866  -0.036  0.00  0.00    +0.070 A 
ATOM     20  C   LIG    1       -0.294   1.252   0.140  0.00  0.00    -0.030 A 
ATOM     21  C   LIG    1       -1.421   2.036   0.307  0.00  0.00    +0.260 A 
ATOM     22  N   LIG    1       -1.333   3.351   0.309  0.00  0.00    -0.460 NA
ENDBRANCH  16  17
BRANCH  16  23
ATOM     23  C   LIG    1       -1.110   6.019  -0.897  0.00  0.00    +0.040 C 
BRANCH  23  24
ATOM     24  C   LIG    1       -0.630   5.623  -2.295  0.00  0.00    -0.020 C 
ATOM     25  C   LIG    1        0.695   6.325  -2.598  0.00  0.00    +0.020 C 
ATOM     26  C   LIG    1       -1.676   6.040  -3.331  0.00  0.00    +0.030 C 
ENDBRANCH  23  24
ENDBRANCH  16  23
ENDBRANCH  15  16
ENDBRANCH   1  15
TORSDOF 9
