REMARK  Name = ZINCrg00000SjSLm.0
REMARK                            x       y       z     vdW  Elec       q    Type
REMARK                         _______ _______ _______ _____ _____    ______ ____
ROOT
ATOM      1  N   LIG    1        4.580  -0.534  -1.060  0.00  0.00    -0.470 NA
ATOM      2  C   LIG    1        4.805   0.331  -2.234  0.00  0.00    +0.170 C 
ATOM      3  C   LIG    1        5.353   1.679  -1.712  0.00  0.00    +0.030 C 
ATOM      4  C   LIG    1        4.897   1.690  -0.242  0.00  0.00    +0.260 C 
ATOM      5  C   LIG    1        5.810   2.528   0.596  0.00  0.00    +0.010 A 
ATOM      6  C   LIG    1        5.414   3.677   1.193  0.00  0.00    -0.030 A 
ATOM      7  N   LIG    1        6.491   4.167   1.866  0.00  0.00    -0.450 N 
ATOM      8  C   LIG    1        7.513   3.304   1.662  0.00  0.00    +0.390 A 
ATOM      9  C   LIG    1        6.535   5.397   2.661  0.00  0.00    +0.330 C 
ATOM     10  C   LIG    1        4.027   4.255   1.095  0.00  0.00    +0.110 C 
ATOM     11  C   LIG    1        3.308   3.643  -0.114  0.00  0.00    +0.290 C 
ATOM     12  N   LIG    1        7.094   2.327   0.901  0.00  0.00    -0.460 NA
ATOM     13  N   LIG    1        3.527   2.186  -0.121  0.00  0.00    -0.600 N 
ATOM     14  C   LIG    1        2.491   1.331  -0.014  0.00  0.00    +0.580 C 
ATOM     15  O   LIG    1        2.694   0.134   0.061  0.00  0.00    -0.460 OA
ATOM     16  C   LIG    1        4.984   0.207   0.157  0.00  0.00    +0.230 C 
ENDROOT
BRANCH  14  17
ATOM     17  C   LIG    1        1.120   1.843   0.012  0.00  0.00    -0.250 A 
ATOM     18  C   LIG    1        0.169   1.517   0.938  0.00  0.00    +0.110 A 
ATOM     19  C   LIG    1       -1.037   2.139   0.723  0.00  0.00    -0.020 A 
ATOM     20  C   LIG    1       -1.072   2.957  -0.340  0.00  0.00    -0.030 A 
ATOM     21  F   LIG    1       -2.156   3.665  -0.726  0.00  0.00    -0.100 F 
ATOM     22  S   LIG    1        0.433   2.977  -1.144  0.00  0.00    +0.230 S 
ENDBRANCH  14  17
BRANCH   1  24
ATOM     23  C   LIG    1        4.785  -2.595  -2.367  0.00  0.00    +0.060 C 
ATOM     24  C   LIG    1        5.328  -1.792  -1.183  0.00  0.00    +0.160 C 
BRANCH  24  25
ATOM     25  C   LIG    1        6.787  -1.490  -1.407  0.00  0.00    +0.480 C 
ATOM     26  O   LIG    1        7.167  -0.339  -1.460  0.00  0.00    -0.520 OA
ATOM     27  N   LIG    1        7.670  -2.498  -1.549  0.00  0.00    -0.860 N 
ATOM     28  H   LIG    1        8.609  -2.304  -1.694  0.00  0.00    +0.400 HD
ATOM     29  H   LIG    1        7.366  -3.418  -1.507  0.00  0.00    +0.400 HD
ENDBRANCH  24  25
ENDBRANCH   1  24
TORSDOF 3
