REMARK  Name = ZINCqH0000051bNZ.0
REMARK                            x       y       z     vdW  Elec       q    Type
REMARK                         _______ _______ _______ _____ _____    ______ ____
ROOT
ATOM      1  O   LIG    1        0.641   1.427   2.777  0.00  0.00    -0.510 OA
ATOM      2  C   LIG    1       -0.485   1.865   2.668  0.00  0.00    +0.540 C 
ATOM      3  N   LIG    1       -1.233   2.082   3.767  0.00  0.00    -0.660 N 
ATOM      4  H   LIG    1       -2.103   2.503   3.686  0.00  0.00    +0.420 HD
ENDROOT
BRANCH   3   5
ATOM      5  C   LIG    1       -0.755   1.700   5.027  0.00  0.00    +0.140 A 
ATOM      6  C   LIG    1       -1.083   2.453   6.151  0.00  0.00    +0.040 A 
ATOM      7  C   LIG    1       -0.619   2.087   7.397  0.00  0.00    +0.070 A 
ATOM      8  C   LIG    1        0.179   0.961   7.535  0.00  0.00    -0.000 A 
ATOM      9  O   LIG    1        0.773   0.358   8.589  0.00  0.00    -0.210 OA
ATOM     10  C   LIG    1        1.437  -0.717   8.136  0.00  0.00    +0.290 A 
ATOM     11  N   LIG    1        1.294  -0.826   6.849  0.00  0.00    -0.470 NA
ATOM     12  C   LIG    1        0.514   0.197   6.406  0.00  0.00    +0.050 A 
ATOM     13  C   LIG    1        0.036   0.572   5.150  0.00  0.00    +0.090 A 
BRANCH  10  14
ATOM     14  C   LIG    1        2.233  -1.663   8.997  0.00  0.00    +0.060 C 
ATOM     15  C   LIG    1        2.127  -1.497  10.514  0.00  0.00    +0.060 C 
ATOM     16  C   LIG    1        3.407  -1.081   9.787  0.00  0.00    +0.070 C 
ENDBRANCH  10  14
ENDBRANCH   3   5
BRANCH   2  17
ATOM     17  C   LIG    1       -1.046   2.167   1.302  0.00  0.00    -0.320 C 
BRANCH  17  18
ATOM     18  S   LIG    1        0.194   1.772   0.038  0.00  0.00    +2.540 S 
ATOM     19  O   LIG    1        1.288   2.675   0.114  0.00  0.00    -0.910 OA
ATOM     20  O   LIG    1        0.405   0.369  -0.032  0.00  0.00    -0.910 OA
BRANCH  18  21
ATOM     21  C   LIG    1       -0.592   2.170  -1.488  0.00  0.00    -0.670 A 
ATOM     22  C   LIG    1       -1.323   1.208  -2.160  0.00  0.00    +0.140 A 
ATOM     23  C   LIG    1       -1.944   1.521  -3.355  0.00  0.00    +0.020 A 
ATOM     24  C   LIG    1       -1.825   2.794  -3.883  0.00  0.00    +0.020 A 
ATOM     25  C   LIG    1       -1.089   3.754  -3.213  0.00  0.00    +0.020 A 
ATOM     26 CL   LIG    1       -2.598   3.185  -5.388  0.00  0.00    -0.050 Cl
ATOM     27  C   LIG    1       -0.473   3.442  -2.016  0.00  0.00    +0.140 A 
ENDBRANCH  18  21
ENDBRANCH  17  18
ENDBRANCH   2  17
TORSDOF 5
