REMARK  Name = ZINCpe000000VnV1.0
REMARK                            x       y       z     vdW  Elec       q    Type
REMARK                         _______ _______ _______ _____ _____    ______ ____
ROOT
ATOM      1  C   LIG    1       -4.516   6.890  -2.000  0.00  0.00    -0.040 C 
ATOM      2  C   LIG    1       -5.215   7.886  -1.124  0.00  0.00    +0.030 C 
ATOM      3  C   LIG    1       -5.934   7.232   0.052  0.00  0.00    +0.230 C 
ATOM      4  O   LIG    1       -6.790   6.213  -0.481  0.00  0.00    -0.370 OA
ATOM      5  C   LIG    1       -6.060   5.107  -0.994  0.00  0.00    +0.220 C 
ATOM      6  C   LIG    1       -3.029   6.722  -1.649  0.00  0.00    +0.300 C 
ATOM      7  N   LIG    1       -2.912   5.326  -1.162  0.00  0.00    -0.630 N 
ATOM      8  C   LIG    1       -2.120   4.859  -0.177  0.00  0.00    +0.540 C 
ATOM      9  O   LIG    1       -1.458   5.630   0.486  0.00  0.00    -0.520 OA
ATOM     10  C   LIG    1       -3.859   4.558  -2.008  0.00  0.00    +0.270 C 
ATOM     11  C   LIG    1       -5.101   5.494  -2.104  0.00  0.00    -0.010 C 
ENDROOT
BRANCH   8  12
ATOM     12  C   LIG    1       -2.056   3.379   0.101  0.00  0.00    +0.070 C 
ATOM     13  C   LIG    1       -3.014   3.024   1.244  0.00  0.00    +0.030 C 
ATOM     14  C   LIG    1       -2.776   1.579   1.690  0.00  0.00    +0.040 C 
ATOM     15  C   LIG    1       -1.442   1.482   2.440  0.00  0.00    +0.130 C 
ATOM     16  C   LIG    1       -0.376   2.135   1.594  0.00  0.00    +0.090 A 
ATOM     17  N   LIG    1        0.916   2.021   1.696  0.00  0.00    -0.290 NA
ATOM     18  N   LIG    1        1.504   2.808   0.694  0.00  0.00    -0.380 N 
ATOM     19  C   LIG    1        0.512   3.397  -0.011  0.00  0.00    +0.250 A 
ATOM     20  C   LIG    1        2.941   2.964   0.453  0.00  0.00    +0.350 C 
ATOM     21  C   LIG    1       -0.658   3.001   0.523  0.00  0.00    -0.230 A 
ENDBRANCH   8  12
BRANCH   1  22
ATOM     22  C   LIG    1       -4.552   7.450  -3.398  0.00  0.00    +0.460 C 
ATOM     23  O   LIG    1       -5.083   6.825  -4.286  0.00  0.00    -0.500 OA
BRANCH  22  25
ATOM     24  C   LIG    1       -4.067   9.121  -5.027  0.00  0.00    +0.270 C 
ATOM     25  O   LIG    1       -3.995   8.643  -3.658  0.00  0.00    -0.350 OA
ENDBRANCH  22  25
ENDBRANCH   1  22
TORSDOF 3
