REMARK  Name = ZINCvU0000000D7v.0
REMARK                            x       y       z     vdW  Elec       q    Type
REMARK                         _______ _______ _______ _____ _____    ______ ____
ROOT
ATOM      1  N   LIG    1        0.121   1.180  -0.579  0.00  0.00    -0.510 N 
ATOM      2  C   LIG    1        1.188   2.001  -0.650  0.00  0.00    +0.550 C 
ATOM      3  O   LIG    1        2.154   1.805   0.061  0.00  0.00    -0.450 OA
ENDROOT
BRANCH   1  10
ATOM      4  C   LIG    1        2.832  -3.898   3.954  0.00  0.00    +0.090 C 
ATOM      5  C   LIG    1        1.787  -3.260   3.075  0.00  0.00    -0.080 A 
ATOM      6  C   LIG    1        0.548  -3.866   2.930  0.00  0.00    +0.030 A 
ATOM      7  C   LIG    1       -0.411  -3.288   2.128  0.00  0.00    +0.060 A 
ATOM      8  C   LIG    1       -0.141  -2.095   1.462  0.00  0.00    -0.200 A 
ATOM      9  S   LIG    1       -1.137  -1.115   0.388  0.00  0.00    +0.090 S 
ATOM     10  C   LIG    1        0.178   0.037   0.199  0.00  0.00    +0.330 A 
ATOM     11  N   LIG    1        1.200  -0.332   0.891  0.00  0.00    -0.460 NA
ATOM     12  C   LIG    1        1.103  -1.473   1.600  0.00  0.00    +0.110 A 
ATOM     13  C   LIG    1        2.070  -2.084   2.427  0.00  0.00    -0.040 A 
ATOM     14  C   LIG    1        3.422  -1.441   2.598  0.00  0.00    +0.110 C 
ENDBRANCH   1  10
BRANCH   2  15
ATOM     15  C   LIG    1        1.183   3.140  -1.592  0.00  0.00    -0.070 A 
ATOM     16  C   LIG    1        0.038   3.927  -1.734  0.00  0.00    +0.020 A 
ATOM     17  C   LIG    1        0.042   4.992  -2.611  0.00  0.00    +0.130 A 
ATOM     18  C   LIG    1        1.173   5.273  -3.358  0.00  0.00    -0.640 A 
ATOM     19  C   LIG    1        2.308   4.493  -3.226  0.00  0.00    +0.130 A 
ATOM     20  C   LIG    1        2.320   3.429  -2.348  0.00  0.00    +0.070 A 
BRANCH  18  21
ATOM     21  S   LIG    1        1.166   6.631  -4.481  0.00  0.00    +2.500 S 
ATOM     22  O   LIG    1        2.533   7.008  -4.582  0.00  0.00    -0.930 OA
ATOM     23  O   LIG    1        0.197   7.523  -3.948  0.00  0.00    -0.930 OA
ATOM     24  C   LIG    1        0.585   5.920  -6.046  0.00  0.00    -0.250 C 
ENDBRANCH  18  21
ENDBRANCH   2  15
BRANCH   1  25
ATOM     25  C   LIG    1       -1.097   1.496  -1.330  0.00  0.00    +0.340 C 
BRANCH  25  26
ATOM     26  C   LIG    1       -2.269   1.553  -0.385  0.00  0.00    -0.130 A 
ATOM     27  C   LIG    1       -3.123   0.471  -0.276  0.00  0.00    +0.040 A 
ATOM     28  C   LIG    1       -4.195   0.522   0.595  0.00  0.00    +0.020 A 
ATOM     29  C   LIG    1       -4.420   1.658   1.349  0.00  0.00    +0.030 A 
ATOM     30  C   LIG    1       -3.570   2.742   1.236  0.00  0.00    +0.020 A 
ATOM     31  C   LIG    1       -2.494   2.689   0.369  0.00  0.00    +0.020 A 
ENDBRANCH  25  26
ENDBRANCH   1  25
TORSDOF 5
