REMARK  Name = ZINCrD000000CRjV.0
REMARK                            x       y       z     vdW  Elec       q    Type
REMARK                         _______ _______ _______ _____ _____    ______ ____
ROOT
ATOM      1  C   LIG    1        1.749  -2.836   1.375  0.00  0.00    +0.510 C 
ATOM      2  N   LIG    1        1.164  -4.023   1.634  0.00  0.00    -0.670 N 
ATOM      3  H   LIG    1        0.728  -4.514   0.920  0.00  0.00    +0.410 HD
ATOM      4  O   LIG    1        2.221  -2.183   2.281  0.00  0.00    -0.500 OA
ENDROOT
BRANCH   1   8
ATOM      5  O   LIG    1       -1.471  -1.047   0.299  0.00  0.00    -0.520 OA
ATOM      6  C   LIG    1       -0.281  -0.996   0.070  0.00  0.00    +0.520 C 
ATOM      7  C   LIG    1        0.400  -2.163  -0.592  0.00  0.00    +0.090 C 
ATOM      8  C   LIG    1        1.817  -2.322  -0.040  0.00  0.00    +0.070 C 
ATOM      9  C   LIG    1        2.516  -0.987  -0.055  0.00  0.00    -0.110 A 
ATOM     10  C   LIG    1        3.874  -0.918  -0.292  0.00  0.00    +0.060 A 
ATOM     11  C   LIG    1        4.513   0.309  -0.305  0.00  0.00    -0.010 A 
ATOM     12  C   LIG    1        3.793   1.469  -0.082  0.00  0.00    +0.050 A 
ATOM     13  C   LIG    1        2.434   1.405   0.155  0.00  0.00    -0.020 A 
ATOM     14  C   LIG    1        1.790   0.176   0.170  0.00  0.00    +0.170 A 
ATOM     15  N   LIG    1        0.415   0.104   0.410  0.00  0.00    -0.660 N 
ATOM     16  H   LIG    1       -0.041   0.853   0.825  0.00  0.00    +0.410 HD
ENDBRANCH   1   8
BRANCH   2  17
ATOM     17  C   LIG    1        1.186  -4.545   2.931  0.00  0.00    +0.180 A 
ATOM     18  C   LIG    1        1.104  -3.694   4.026  0.00  0.00    -0.020 A 
ATOM     19  C   LIG    1        1.126  -4.210   5.307  0.00  0.00    +0.070 A 
ATOM     20  C   LIG    1        1.228  -5.574   5.503  0.00  0.00    -0.090 A 
ATOM     21  C   LIG    1        1.310  -6.430   4.413  0.00  0.00    +0.150 A 
ATOM     22  C   LIG    1        1.283  -5.916   3.126  0.00  0.00    -0.050 A 
BRANCH  21  23
ATOM     23  O   LIG    1        1.412  -7.771   4.608  0.00  0.00    -0.300 OA
BRANCH  23  24
ATOM     24  C   LIG    1        1.428  -8.231   5.961  0.00  0.00    +0.190 C 
BRANCH  24  25
ATOM     25  C   LIG    1        1.546  -9.756   5.980  0.00  0.00    +0.170 C 
ATOM     26  C   LIG    1        1.449 -10.271   7.432  0.00  0.00    +0.020 C 
ATOM     27  C   LIG    1        2.502 -11.412   7.448  0.00  0.00    +0.010 C 
ATOM     28  C   LIG    1        3.569 -10.842   6.480  0.00  0.00    +0.200 C 
ATOM     29  O   LIG    1        2.823 -10.151   5.465  0.00  0.00    -0.370 OA
ENDBRANCH  24  25
ENDBRANCH  23  24
ENDBRANCH  21  23
ENDBRANCH   2  17
TORSDOF 5
