REMARK  Name = ZINCrH00000No4YJ.0
REMARK                            x       y       z     vdW  Elec       q    Type
REMARK                         _______ _______ _______ _____ _____    ______ ____
ROOT
ATOM      1  C   LIG    1        4.221   1.056   3.448  0.00  0.00    +0.290 C 
ATOM      2  C   LIG    1        5.167   2.281   3.330  0.00  0.00    +0.040 C 
ATOM      3  C   LIG    1        4.918   2.999   4.680  0.00  0.00    +0.270 C 
ATOM      4  N   LIG    1        4.742   1.911   5.660  0.00  0.00    -0.580 N 
ATOM      5  C   LIG    1        4.952   2.005   6.988  0.00  0.00    +0.580 C 
ATOM      6  O   LIG    1        4.695   1.064   7.713  0.00  0.00    -0.530 OA
ATOM      7  C   LIG    1        4.297   0.703   4.946  0.00  0.00    +0.070 C 
ATOM      8  C   LIG    1        4.742  -0.688   5.391  0.00  0.00    +0.050 C 
ATOM      9  C   LIG    1        3.284  -0.257   5.567  0.00  0.00    +0.050 C 
ENDROOT
BRANCH   5  10
ATOM     10  C   LIG    1        5.496   3.254   7.563  0.00  0.00    -0.130 A 
ATOM     11  C   LIG    1        5.399   4.453   6.855  0.00  0.00    +0.040 A 
ATOM     12  C   LIG    1        5.908   5.613   7.399  0.00  0.00    +0.010 A 
ATOM     13  C   LIG    1        6.518   5.595   8.644  0.00  0.00    -0.070 A 
ATOM     14  C   LIG    1        7.145   6.719   9.442  0.00  0.00    +0.080 C 
ATOM     15  C   LIG    1        8.022   6.021  10.503  0.00  0.00    +0.030 C 
ATOM     16  C   LIG    1        7.319   4.657  10.669  0.00  0.00    +0.080 C 
ATOM     17  C   LIG    1        6.617   4.409   9.351  0.00  0.00    -0.100 A 
ATOM     18  C   LIG    1        6.104   3.242   8.818  0.00  0.00    +0.080 A 
ENDBRANCH   5  10
BRANCH   1  20
ATOM     19  C   LIG    1        2.461   1.321   1.783  0.00  0.00    +0.550 C 
ATOM     20  N   LIG    1        2.853   1.418   3.069  0.00  0.00    -0.720 N 
ATOM     21  H   LIG    1        2.229   1.729   3.744  0.00  0.00    +0.400 HD
ATOM     22  O   LIG    1        3.244   0.932   0.937  0.00  0.00    -0.540 OA
BRANCH  19  24
ATOM     23  C   LIG    1        0.668   1.486   0.157  0.00  0.00    -0.020 C 
ATOM     24  C   LIG    1        1.088   1.685   1.403  0.00  0.00    -0.110 C 
ATOM     25  C   LIG    1        1.552   0.768  -0.831  0.00  0.00    +0.100 C 
BRANCH  23  26
ATOM     26  C   LIG    1       -0.692   1.978  -0.268  0.00  0.00    +0.060 C 
BRANCH  26  28
ATOM     27  C   LIG    1       -1.935   3.854  -1.353  0.00  0.00    +0.030 C 
ATOM     28  C   LIG    1       -0.554   3.354  -0.922  0.00  0.00    +0.010 C 
ENDBRANCH  26  28
ENDBRANCH  23  26
ENDBRANCH  19  24
ENDBRANCH   1  20
TORSDOF 5
