REMARK  Name = ZINCnE000001TzUx.0
REMARK                            x       y       z     vdW  Elec       q    Type
REMARK                         _______ _______ _______ _____ _____    ______ ____
ROOT
ATOM      1  N   LIG    1       -1.234   2.062  -0.340  0.00  0.00    -0.670 N 
ATOM      2  H   LIG    1       -1.227   3.016  -0.165  0.00  0.00    +0.410 HD
ATOM      3  C   LIG    1       -2.400   1.385  -0.341  0.00  0.00    +0.510 C 
ATOM      4  O   LIG    1       -2.401   0.179  -0.469  0.00  0.00    -0.510 OA
ENDROOT
BRANCH   1   9
ATOM      5  C   LIG    1        2.319   1.124  -0.211  0.00  0.00    -0.000 A 
ATOM      6  C   LIG    1        2.342   0.062  -1.097  0.00  0.00    -0.010 A 
ATOM      7  C   LIG    1        1.180  -0.338  -1.731  0.00  0.00    +0.020 A 
ATOM      8  C   LIG    1       -0.007   0.321  -1.480  0.00  0.00    -0.020 A 
ATOM      9  C   LIG    1       -0.034   1.388  -0.591  0.00  0.00    +0.140 A 
ATOM     10  C   LIG    1        1.135   1.788   0.044  0.00  0.00    -0.020 A 
BRANCH   5  11
ATOM     11  C   LIG    1        3.588   1.557   0.477  0.00  0.00    -0.020 C 
BRANCH  11  13
ATOM     12  O   LIG    1        3.795   2.955  -1.420  0.00  0.00    -0.690 OA
ATOM     13  C   LIG    1        4.284   2.598  -0.362  0.00  0.00    +0.500 C 
ATOM     14  O   LIG    1        5.336   3.084   0.018  0.00  0.00    -0.700 OA
ENDBRANCH  11  13
ENDBRANCH   5  11
ENDBRANCH   1   9
BRANCH   3  15
ATOM     15  C   LIG    1       -3.702   2.128  -0.184  0.00  0.00    +0.100 C 
BRANCH  15  16
ATOM     16  C   LIG    1       -4.859   1.128  -0.160  0.00  0.00    -0.080 C 
ATOM     17  C   LIG    1       -5.310   0.647  -1.530  0.00  0.00    +0.080 C 
ATOM     18  C   LIG    1       -6.240  -0.563  -1.391  0.00  0.00    +0.020 C 
ATOM     19  C   LIG    1       -5.513  -1.640  -0.579  0.00  0.00    +0.020 C 
ATOM     20  C   LIG    1       -5.499  -1.216   0.890  0.00  0.00    +0.060 C 
ATOM     21  C   LIG    1       -5.899   1.339   0.933  0.00  0.00    +0.180 C 
ATOM     22  F   LIG    1       -7.227   1.020   0.632  0.00  0.00    -0.150 F 
ATOM     23  F   LIG    1       -5.718   2.424   1.797  0.00  0.00    -0.160 F 
ATOM     24  C   LIG    1       -4.894   0.180   1.028  0.00  0.00    +0.020 C 
ENDBRANCH  15  16
ENDBRANCH   3  15
TORSDOF 5
