REMARK  Name = ZINCrH00000No4Tj.0
REMARK                            x       y       z     vdW  Elec       q    Type
REMARK                         _______ _______ _______ _____ _____    ______ ____
ROOT
ATOM      1  C   LIG    1        6.425   3.269   3.241  0.00  0.00    +0.600 C 
ATOM      2  N   LIG    1        7.236   2.223   3.494  0.00  0.00    -0.610 N 
ATOM      3  C   LIG    1        7.154   1.016   2.668  0.00  0.00    +0.300 C 
ATOM      4  O   LIG    1        6.495   4.272   3.926  0.00  0.00    -0.520 OA
ENDROOT
BRANCH   1  12
ATOM      5  C   LIG    1        0.964   2.299  -1.587  0.00  0.00    +0.550 C 
ATOM      6  N   LIG    1        2.127   2.904  -1.276  0.00  0.00    -0.610 N 
ATOM      7  C   LIG    1        2.205   4.364  -1.124  0.00  0.00    +0.290 C 
ATOM      8  C   LIG    1        2.542   4.694   0.332  0.00  0.00    +0.090 C 
ATOM      9  C   LIG    1        3.696   3.812   0.789  0.00  0.00    -0.100 A 
ATOM     10  C   LIG    1        4.051   2.667   0.162  0.00  0.00    -0.250 A 
ATOM     11  S   LIG    1        5.377   1.922   0.937  0.00  0.00    +0.240 S 
ATOM     12  C   LIG    1        5.458   3.198   2.142  0.00  0.00    -0.270 A 
ATOM     13  C   LIG    1        4.479   4.110   1.891  0.00  0.00    +0.110 A 
ATOM     14  C   LIG    1        3.357   2.124  -1.070  0.00  0.00    +0.370 C 
ATOM     15  O   LIG    1       -0.042   2.962  -1.753  0.00  0.00    -0.540 OA
BRANCH   5  17
ATOM     16  C   LIG    1       -0.236   0.238  -2.041  0.00  0.00    +0.160 C 
ATOM     17  C   LIG    1        0.912   0.836  -1.733  0.00  0.00    -0.100 C 
ENDBRANCH   5  17
ENDBRANCH   1  12
BRANCH   2  18
ATOM     18  C   LIG    1        8.200   2.292   4.595  0.00  0.00    +0.350 C 
ATOM     19  C   LIG    1        9.621   2.125   4.045  0.00  0.00    +0.030 C 
ATOM     20  C   LIG    1       10.588   1.924   5.216  0.00  0.00    +0.030 C 
ATOM     21  C   LIG    1       10.352   0.548   5.841  0.00  0.00    +0.140 C 
ATOM     22  C   LIG    1        8.868   0.394   6.140  0.00  0.00    +0.090 A 
ATOM     23  N   LIG    1        8.365  -0.509   6.968  0.00  0.00    -0.480 NA
ATOM     24  C   LIG    1        7.088  -0.531   7.131  0.00  0.00    +0.050 A 
ATOM     25  C   LIG    1        6.350  -1.487   8.031  0.00  0.00    +0.180 C 
ATOM     26  S   LIG    1        6.353   0.682   6.178  0.00  0.00    +0.130 S 
ATOM     27  C   LIG    1        7.930   1.178   5.577  0.00  0.00    -0.250 A 
ENDBRANCH   2  18
TORSDOF 3
