REMARK  Name = ZINCrD00000hQ42d.0
REMARK                            x       y       z     vdW  Elec       q    Type
REMARK                         _______ _______ _______ _____ _____    ______ ____
ROOT
ATOM      1  N   LIG    1        2.898   9.486  -3.381  0.00  0.00    -0.670 N 
ATOM      2  H   LIG    1        2.212   8.822  -3.551  0.00  0.00    +0.410 HD
ATOM      3  C   LIG    1        3.084   9.957  -2.132  0.00  0.00    +0.710 C 
ATOM      4  N   LIG    1        2.398   9.425  -1.101  0.00  0.00    -0.610 N 
ATOM      5  C   LIG    1        2.709   9.882   0.267  0.00  0.00    +0.290 C 
ATOM      6  C   LIG    1        2.753   8.716   1.272  0.00  0.00    +0.030 C 
ATOM      7  C   LIG    1        3.436   7.522   0.651  0.00  0.00    +0.030 C 
ATOM      8  C   LIG    1        2.389   6.627  -0.006  0.00  0.00    +0.230 C 
ATOM      9  C   LIG    1        2.031   7.021  -1.378  0.00  0.00    -0.010 C 
ATOM     10  C   LIG    1        1.388   8.430  -1.382  0.00  0.00    +0.280 C 
ATOM     11  O   LIG    1        3.872  10.863  -1.935  0.00  0.00    -0.560 OA
ENDROOT
BRANCH   1  17
ATOM     12  C   LIG    1        6.971  11.770  -4.935  0.00  0.00    +0.100 C 
ATOM     13  C   LIG    1        5.667  11.061  -5.196  0.00  0.00    -0.020 A 
ATOM     14  C   LIG    1        5.218  10.854  -6.493  0.00  0.00    -0.060 A 
ATOM     15  C   LIG    1        4.019  10.201  -6.698  0.00  0.00    +0.290 A 
ATOM     16  N   LIG    1        3.300   9.771  -5.679  0.00  0.00    -0.520 NA
ATOM     17  C   LIG    1        3.691   9.954  -4.427  0.00  0.00    +0.370 A 
ATOM     18  C   LIG    1        4.888  10.602  -4.147  0.00  0.00    -0.020 A 
ENDBRANCH   1  17
BRANCH   8  19
ATOM     19  N   LIG    1        2.903   5.256  -0.035  0.00  0.00    -0.750 N 
ATOM     20  H   LIG    1        3.858   5.096  -0.091  0.00  0.00    +0.400 HD
BRANCH  19  21
ATOM     21  C   LIG    1        2.015   4.174   0.018  0.00  0.00    +0.110 A 
ATOM     22  C   LIG    1        2.494   2.866  -0.009  0.00  0.00    +0.020 A 
ATOM     23  C   LIG    1        1.580   1.828   0.044  0.00  0.00    -0.060 A 
ATOM     24  C   LIG    1        0.223   2.123   0.118  0.00  0.00    +0.350 A 
ATOM     25  N   LIG    1       -0.196   3.378   0.147  0.00  0.00    -0.500 NA
ATOM     26  C   LIG    1        0.647   4.392   0.097  0.00  0.00    +0.220 A 
BRANCH  24  27
ATOM     27  N   LIG    1       -0.705   1.086   0.167  0.00  0.00    -0.630 N 
ATOM     28  C   LIG    1       -2.138   1.387   0.229  0.00  0.00    +0.280 C 
ATOM     29  C   LIG    1       -0.249  -0.306   0.156  0.00  0.00    +0.280 C 
ENDBRANCH  24  27
ENDBRANCH  19  21
ENDBRANCH   8  19
TORSDOF 4
