REMARK  Name = ZINCkj000005gCAn.0
REMARK                            x       y       z     vdW  Elec       q    Type
REMARK                         _______ _______ _______ _____ _____    ______ ____
ROOT
ATOM      1  N   LIG    1       -0.011   0.966   0.007  0.00  0.00    -0.690 NA
ATOM      2  H   LIG    1        0.002  -0.004   0.002  0.00  0.00    +0.430 HD
ENDROOT
BRANCH   1   3
ATOM      3  C   LIG    1       -1.211   1.637   0.017  0.00  0.00    +0.730 C 
BRANCH   3   4
ATOM      4  N   LIG    1       -1.229   2.940   0.024  0.00  0.00    -0.780 NA
ATOM      5  H   LIG    1       -0.395   3.437   0.023  0.00  0.00    +0.440 HD
ATOM      6  H   LIG    1       -2.075   3.414   0.030  0.00  0.00    +0.440 HD
ENDBRANCH   3   4
BRANCH   3   7
ATOM      7  N   LIG    1       -2.392   0.933   0.018  0.00  0.00    -0.690 NA
ATOM      8  H   LIG    1       -2.379  -0.036   0.013  0.00  0.00    +0.430 HD
BRANCH   7   9
ATOM      9  C   LIG    1       -3.671   1.649   0.028  0.00  0.00    +0.230 C 
ATOM     10  C   LIG    1       -4.061   2.015  -1.405  0.00  0.00    +0.050 C 
BRANCH   9  12
ATOM     11  C   LIG    1       -4.424   0.489   2.109  0.00  0.00    +0.020 C 
ATOM     12  C   LIG    1       -4.751   0.753   0.638  0.00  0.00    +0.050 C 
ENDBRANCH   9  12
ENDBRANCH   7   9
ENDBRANCH   3   7
ENDBRANCH   1   3
BRANCH   1  13
ATOM     13  C   LIG    1        1.248   1.716  -0.001  0.00  0.00    +0.360 C 
BRANCH  13  14
ATOM     14  C   LIG    1        2.406   0.752  -0.017  0.00  0.00    -0.240 A 
ATOM     15  C   LIG    1        2.934   0.310  -1.222  0.00  0.00    +0.140 A 
ATOM     16  C   LIG    1        3.998  -0.575  -1.192  0.00  0.00    -0.040 A 
ATOM     17  C   LIG    1        4.499  -0.987   0.036  0.00  0.00    +0.350 A 
ATOM     18  N   LIG    1        3.969  -0.544   1.164  0.00  0.00    -0.540 NA
ATOM     19  C   LIG    1        2.958   0.304   1.167  0.00  0.00    +0.340 A 
BRANCH  17  20
ATOM     20  O   LIG    1        5.542  -1.854   0.079  0.00  0.00    -0.290 OA
BRANCH  20  21
ATOM     21  C   LIG    1        6.011  -2.241   1.373  0.00  0.00    +0.240 C 
BRANCH  21  22
ATOM     22  C   LIG    1        7.181  -3.215   1.220  0.00  0.00    +0.200 C 
BRANCH  22  23
ATOM     23  O   LIG    1        8.282  -2.544   0.604  0.00  0.00    -0.390 OA
ATOM     24  C   LIG    1        9.433  -3.369   0.414  0.00  0.00    +0.210 C 
ENDBRANCH  22  23
ENDBRANCH  21  22
ENDBRANCH  20  21
ENDBRANCH  17  20
ENDBRANCH  13  14
ENDBRANCH   1  13
TORSDOF 11
