REMARK  Name = ZINCqH0000038Ldn.0
REMARK                            x       y       z     vdW  Elec       q    Type
REMARK                         _______ _______ _______ _____ _____    ______ ____
ROOT
ATOM      1  C   LIG    1        2.355   5.121   1.447  0.00  0.00    +0.510 C 
ATOM      2  N   LIG    1        2.564   5.760   2.616  0.00  0.00    -0.720 N 
ATOM      3  H   LIG    1        2.430   5.292   3.455  0.00  0.00    +0.400 HD
ATOM      4  O   LIG    1        2.522   5.706   0.398  0.00  0.00    -0.530 OA
ENDROOT
BRANCH   2   5
ATOM      5  C   LIG    1        2.994   7.160   2.618  0.00  0.00    +0.290 C 
ATOM      6  C   LIG    1        3.739   7.462   3.921  0.00  0.00    -0.000 C 
ATOM      7  C   LIG    1        3.916   8.982   4.033  0.00  0.00    +0.250 C 
ATOM      8  O   LIG    1        2.624   9.578   4.155  0.00  0.00    -0.320 OA
ATOM      9  C   LIG    1        1.666   9.205   3.267  0.00  0.00    +0.140 A 
ATOM     10  C   LIG    1        0.539  10.008   3.131  0.00  0.00    -0.020 A 
ATOM     11  C   LIG    1       -0.458   9.661   2.241  0.00  0.00    +0.050 A 
ATOM     12  C   LIG    1       -0.337   8.511   1.484  0.00  0.00    -0.040 A 
ATOM     13  C   LIG    1        0.782   7.712   1.616  0.00  0.00    +0.060 A 
ATOM     14  C   LIG    1        1.786   8.056   2.505  0.00  0.00    -0.180 A 
ENDBRANCH   2   5
BRANCH   1  15
ATOM     15  C   LIG    1        1.913   3.680   1.445  0.00  0.00    +0.050 C 
BRANCH  15  16
ATOM     16  C   LIG    1        1.749   3.200   0.002  0.00  0.00    +0.130 C 
BRANCH  16  23
ATOM     17  C   LIG    1       -1.248   2.171   0.020  0.00  0.00    +0.150 C 
ATOM     18  C   LIG    1       -0.016   1.304   0.009  0.00  0.00    +0.080 A 
ATOM     19  N   LIG    1        0.002  -0.004   0.002  0.00  0.00    -0.300 NA
ATOM     20  N   LIG    1        1.339  -0.424  -0.013  0.00  0.00    -0.370 N 
ATOM     21  C   LIG    1        2.119   0.677  -0.015  0.00  0.00    +0.090 A 
ATOM     22  C   LIG    1        3.626   0.698  -0.029  0.00  0.00    +0.130 C 
ATOM     23  C   LIG    1        1.307   1.759  -0.001  0.00  0.00    -0.240 A 
BRANCH  20  24
ATOM     24  C   LIG    1        1.806  -1.812  -0.025  0.00  0.00    +0.320 C 
BRANCH  24  25
ATOM     25  C   LIG    1        1.954  -2.288  -1.472  0.00  0.00    -0.030 C 
ATOM     26  C   LIG    1        2.322  -3.773  -1.485  0.00  0.00    +0.030 C 
ATOM     27  C   LIG    1        3.057  -1.483  -2.162  0.00  0.00    +0.020 C 
ENDBRANCH  24  25
ENDBRANCH  20  24
ENDBRANCH  16  23
ENDBRANCH  15  16
ENDBRANCH   1  15
TORSDOF 6
