REMARK  Name = ZINCvU00000009Vd.0
REMARK                            x       y       z     vdW  Elec       q    Type
REMARK                         _______ _______ _______ _____ _____    ______ ____
ROOT
ATOM      1  C   LIG    1        0.002  -0.004   0.002  0.00  0.00    +0.160 A 
ATOM      2  N   LIG    1       -0.016   1.310   0.009  0.00  0.00    -0.280 NA
ATOM      3  N   LIG    1        1.185   1.769   0.000  0.00  0.00    -0.250 NA
ATOM      4  C   LIG    1        2.045   0.777  -0.013  0.00  0.00    +0.240 A 
ATOM      5  N   LIG    1        1.314  -0.391  -0.013  0.00  0.00    -0.430 N 
ENDROOT
BRANCH   4   6
ATOM      6  C   LIG    1        3.518   0.892  -0.026  0.00  0.00    -0.010 A 
ATOM      7  C   LIG    1        4.123   2.111  -0.338  0.00  0.00    +0.080 A 
ATOM      8  C   LIG    1        5.499   2.212  -0.348  0.00  0.00    +0.040 A 
ATOM      9  C   LIG    1        6.280   1.110  -0.050  0.00  0.00    +0.050 A 
ATOM     10  C   LIG    1        5.686  -0.102   0.261  0.00  0.00    -0.030 A 
ATOM     11 CL   LIG    1        6.674  -1.480   0.635  0.00  0.00    -0.060 Cl
ATOM     12  C   LIG    1        4.311  -0.216   0.279  0.00  0.00    +0.030 A 
ENDBRANCH   4   6
BRANCH   5  13
ATOM     13  C   LIG    1        1.812  -1.702  -0.024  0.00  0.00    +0.150 A 
ATOM     14  C   LIG    1        2.042  -2.347  -1.231  0.00  0.00    +0.060 A 
ATOM     15  C   LIG    1        2.537  -3.636  -1.240  0.00  0.00    +0.080 A 
ATOM     16  C   LIG    1        2.793  -4.288  -0.048  0.00  0.00    +0.060 A 
ATOM     17  C   LIG    1        2.559  -3.650   1.157  0.00  0.00    +0.090 A 
ATOM     18  C   LIG    1        2.069  -2.358   1.171  0.00  0.00    -0.170 A 
BRANCH  18  19
ATOM     19  C   LIG    1        1.814  -1.663   2.484  0.00  0.00    +0.500 C 
ATOM     20  F   LIG    1        0.462  -1.318   2.574  0.00  0.00    -0.160 F 
ATOM     21  F   LIG    1        2.597  -0.507   2.559  0.00  0.00    -0.170 F 
ATOM     22  F   LIG    1        2.147  -2.521   3.538  0.00  0.00    -0.170 F 
ENDBRANCH  18  19
ENDBRANCH   5  13
BRANCH   1  23
ATOM     23  S   LIG    1       -1.402  -1.069   0.010  0.00  0.00    +0.100 S 
BRANCH  23  24
ATOM     24  C   LIG    1       -2.729   0.162   0.030  0.00  0.00    +0.110 C 
BRANCH  24  26
ATOM     25  O   LIG    1       -4.112  -1.751   0.032  0.00  0.00    -0.520 OA
ATOM     26  C   LIG    1       -4.063  -0.539   0.039  0.00  0.00    +0.550 C 
ATOM     27  N   LIG    1       -5.203   0.181   0.054  0.00  0.00    -0.610 N 
ATOM     28  C   LIG    1       -5.288   1.649   0.070  0.00  0.00    +0.230 C 
ATOM     29  C   LIG    1       -6.786   2.019   0.109  0.00  0.00    +0.040 C 
ATOM     30  C   LIG    1       -7.443   0.741   0.692  0.00  0.00    +0.040 C 
ATOM     31  C   LIG    1       -6.569  -0.373   0.064  0.00  0.00    +0.260 C 
ENDBRANCH  24  26
ENDBRANCH  23  24
ENDBRANCH   1  23
TORSDOF 6
