REMARK  Name = ZINCrg000000oGnX.0
REMARK                            x       y       z     vdW  Elec       q    Type
REMARK                         _______ _______ _______ _____ _____    ______ ____
ROOT
ATOM      1  C   LIG    1        0.940   3.500   0.012  0.00  0.00    +0.600 C 
ATOM      2  N   LIG    1       -0.275   4.072   0.128  0.00  0.00    -0.600 N 
ATOM      3  C   LIG    1       -1.489   3.249   0.241  0.00  0.00    +0.300 C 
ATOM      4  C   LIG    1       -2.288   3.733   1.461  0.00  0.00    +0.160 C 
ATOM      5  N   LIG    1       -2.526   5.178   1.341  0.00  0.00    -0.530 NA
ATOM      6  C   LIG    1       -1.264   5.930   1.358  0.00  0.00    +0.170 C 
ATOM      7  C   LIG    1       -0.422   5.535   0.140  0.00  0.00    +0.300 C 
ATOM      8  O   LIG    1        1.040   2.289  -0.035  0.00  0.00    -0.510 OA
ENDROOT
BRANCH   1  11
ATOM      9  N   LIG    1        3.074   6.364  -0.622  0.00  0.00    -0.330 N 
ATOM     10  N   LIG    1        2.075   5.569  -0.527  0.00  0.00    -0.140 NA
ATOM     11  C   LIG    1        2.148   4.343  -0.059  0.00  0.00    -0.070 A 
ATOM     12  C   LIG    1        3.450   3.818   0.393  0.00  0.00    +0.410 A 
ATOM     13  C   LIG    1        4.596   4.739   0.282  0.00  0.00    -0.190 A 
ATOM     14  C   LIG    1        5.881   4.373   0.672  0.00  0.00    +0.110 A 
ATOM     15  C   LIG    1        6.906   5.272   0.545  0.00  0.00    +0.000 A 
ATOM     16  C   LIG    1        6.671   6.539   0.030  0.00  0.00    +0.090 A 
ATOM     17  C   LIG    1        5.407   6.920  -0.363  0.00  0.00    -0.020 A 
ATOM     18  O   LIG    1        3.571   2.689   0.835  0.00  0.00    -0.430 OA
ATOM     19  C   LIG    1        4.349   6.023  -0.242  0.00  0.00    +0.150 A 
BRANCH   9  21
ATOM     20  C   LIG    1        3.029   7.682  -2.682  0.00  0.00    +0.040 C 
ATOM     21  C   LIG    1        2.844   7.706  -1.163  0.00  0.00    +0.330 C 
ENDBRANCH   9  21
ENDBRANCH   1  11
BRANCH   5  22
ATOM     22  C   LIG    1       -3.434   5.651   2.395  0.00  0.00    +0.300 C 
BRANCH  22  23
ATOM     23  C   LIG    1       -4.796   5.038   2.196  0.00  0.00    +0.210 A 
ATOM     24  N   LIG    1       -5.732   5.500   1.413  0.00  0.00    -0.470 NA
ATOM     25  C   LIG    1       -6.807   4.701   1.488  0.00  0.00    +0.140 A 
ATOM     26  C   LIG    1       -6.526   3.705   2.349  0.00  0.00    +0.130 A 
ATOM     27  N   LIG    1       -5.249   3.915   2.795  0.00  0.00    -0.570 N 
ATOM     28  H   LIG    1       -4.761   3.362   3.425  0.00  0.00    +0.420 HD
ENDBRANCH  22  23
ENDBRANCH   5  22
TORSDOF 4
