REMARK  Name = ZINCtV000002OoAz.0
REMARK                            x       y       z     vdW  Elec       q    Type
REMARK                         _______ _______ _______ _____ _____    ______ ____
ROOT
ATOM      1  C   LIG    1       -2.440   0.718   0.134  0.00  0.00    -0.150 A 
ATOM      2  C   LIG    1       -2.332  -0.673   0.225  0.00  0.00    +0.110 A 
ATOM      3  C   LIG    1       -3.467  -1.442   0.336  0.00  0.00    +0.000 A 
ATOM      4  C   LIG    1       -4.720  -0.834   0.349  0.00  0.00    -0.010 A 
ATOM      5  C   LIG    1       -4.826   0.552   0.253  0.00  0.00    -0.180 A 
ATOM      6  C   LIG    1       -3.702   1.321   0.146  0.00  0.00    +0.170 A 
ENDROOT
BRANCH   1   8
ATOM      7  O   LIG    1       -1.323   2.757  -0.065  0.00  0.00    -0.510 OA
ATOM      8  C   LIG    1       -1.227   1.548   0.019  0.00  0.00    +0.560 C 
ATOM      9  N   LIG    1       -0.011   0.966   0.007  0.00  0.00    -0.670 N 
ATOM     10  H   LIG    1        0.064  -0.001   0.007  0.00  0.00    +0.410 HD
BRANCH   9  11
ATOM     11  C   LIG    1        1.141   1.755  -0.011  0.00  0.00    +0.160 A 
ATOM     12  C   LIG    1        1.143   2.943  -0.711  0.00  0.00    +0.040 A 
ATOM     13  C   LIG    1        2.300   3.732  -0.720  0.00  0.00    -0.010 A 
ATOM     14  C   LIG    1        2.366   4.957  -1.411  0.00  0.00    -0.010 A 
ATOM     15  C   LIG    1        3.528   5.665  -1.376  0.00  0.00    +0.230 A 
ATOM     16  N   LIG    1        4.592   5.232  -0.713  0.00  0.00    -0.490 NA
ATOM     17  C   LIG    1        4.603   4.100  -0.048  0.00  0.00    +0.310 A 
ATOM     18  C   LIG    1        3.455   3.294  -0.019  0.00  0.00    -0.130 A 
ATOM     19  C   LIG    1        3.420   2.076   0.680  0.00  0.00    +0.080 A 
ATOM     20  C   LIG    1        2.283   1.329   0.679  0.00  0.00    -0.010 A 
ENDBRANCH   9  11
ENDBRANCH   1   8
BRANCH   5  21
ATOM     21  C   LIG    1       -6.184   1.205   0.267  0.00  0.00    +0.510 C 
ATOM     22  F   LIG    1       -6.837   0.897   1.465  0.00  0.00    -0.170 F 
ATOM     23  F   LIG    1       -6.940   0.731  -0.811  0.00  0.00    -0.170 F 
ATOM     24  F   LIG    1       -6.036   2.592   0.159  0.00  0.00    -0.170 F 
ENDBRANCH   5  21
BRANCH   4  25
ATOM     25  S   LIG    1       -6.175  -1.819   0.486  0.00  0.00    -0.060 S 
BRANCH  25  26
ATOM     26  C   LIG    1       -5.517  -3.507   0.579  0.00  0.00    +0.010 C 
ATOM     27  C   LIG    1       -4.877  -3.899  -0.769  0.00  0.00    +0.030 C 
ATOM     28  C   LIG    1       -5.234  -5.397  -0.937  0.00  0.00    +0.020 C 
ATOM     29  C   LIG    1       -6.676  -5.470  -0.375  0.00  0.00    +0.020 C 
ATOM     30  C   LIG    1       -6.661  -4.505   0.829  0.00  0.00    +0.060 C 
ENDBRANCH  25  26
ENDBRANCH   4  25
TORSDOF 5
