REMARK  Name = ZINCpk000005LfSX.0
REMARK                            x       y       z     vdW  Elec       q    Type
REMARK                         _______ _______ _______ _____ _____    ______ ____
ROOT
ATOM      1  N   LIG    1       -3.420  -1.687   2.873  0.00  0.00    -0.740 N 
ATOM      2  H   LIG    1       -3.194  -2.359   2.211  0.00  0.00    +0.400 HD
ATOM      3  C   LIG    1       -3.127  -0.391   2.646  0.00  0.00    +0.710 C 
ATOM      4  N   LIG    1       -2.521  -0.029   1.499  0.00  0.00    -0.620 N 
ATOM      5  C   LIG    1       -2.180  -1.043   0.498  0.00  0.00    +0.280 C 
ATOM      6  O   LIG    1       -3.411   0.450   3.477  0.00  0.00    -0.580 OA
ENDROOT
BRANCH   1  14
ATOM      7  C   LIG    1       -4.458  -3.609   8.926  0.00  0.00    +0.100 C 
ATOM      8  C   LIG    1       -5.090  -4.072   7.638  0.00  0.00    -0.110 A 
ATOM      9  C   LIG    1       -6.077  -5.035   7.665  0.00  0.00    +0.040 A 
ATOM     10  C   LIG    1       -6.659  -5.461   6.484  0.00  0.00    -0.020 A 
ATOM     11  C   LIG    1       -6.249  -4.923   5.280  0.00  0.00    +0.030 A 
ATOM     12  C   LIG    1       -5.257  -3.956   5.247  0.00  0.00    -0.160 A 
ATOM     13  C   LIG    1       -4.832  -3.398   3.913  0.00  0.00    +0.090 C 
ATOM     14  C   LIG    1       -4.079  -2.082   4.121  0.00  0.00    +0.230 C 
ATOM     15  C   LIG    1       -3.027  -2.296   5.216  0.00  0.00    +0.230 C 
ATOM     16  O   LIG    1       -3.704  -2.577   6.442  0.00  0.00    -0.300 OA
ATOM     17  C   LIG    1       -4.676  -3.526   6.427  0.00  0.00    +0.130 A 
ENDBRANCH   1  14
BRANCH   4  18
ATOM     18  C   LIG    1       -2.202   1.383   1.252  0.00  0.00    +0.230 C 
ATOM     19  C   LIG    1       -1.242   1.887   2.321  0.00  0.00    -0.010 C 
ATOM     20  C   LIG    1        0.187   1.414   2.094  0.00  0.00    +0.210 C 
ATOM     21  N   LIG    1        0.619   1.611   0.713  0.00  0.00    -0.540 NA
ATOM     22  C   LIG    1        0.767   3.017   0.344  0.00  0.00    +0.200 C 
ATOM     23  C   LIG    1       -0.577   3.712   0.167  0.00  0.00    +0.170 C 
ATOM     24  O   LIG    1       -1.529   2.914  -0.513  0.00  0.00    -0.360 OA
ATOM     25  C   LIG    1       -0.247   0.894  -0.230  0.00  0.00    +0.210 C 
ATOM     26  C   LIG    1       -1.633   1.543  -0.155  0.00  0.00    +0.160 C 
ENDBRANCH   4  18
TORSDOF 2
