REMARK  Name = ZINCpe000000VZud.0
REMARK                            x       y       z     vdW  Elec       q    Type
REMARK                         _______ _______ _______ _____ _____    ______ ____
ROOT
ATOM      1  N   LIG    1       -3.142   9.268   2.585  0.00  0.00    -0.720 N 
ATOM      2  H   LIG    1       -4.018   8.941   2.841  0.00  0.00    +0.400 HD
ATOM      3  C   LIG    1       -2.213   8.412   2.116  0.00  0.00    +0.710 C 
ATOM      4  N   LIG    1       -2.501   7.100   2.003  0.00  0.00    -0.680 N 
ATOM      5  H   LIG    1       -3.401   6.784   2.182  0.00  0.00    +0.410 HD
ATOM      6  O   LIG    1       -1.114   8.822   1.796  0.00  0.00    -0.560 OA
ENDROOT
BRANCH   4   7
ATOM      7  C   LIG    1       -1.506   6.196   1.627  0.00  0.00    +0.210 A 
ATOM      8  C   LIG    1       -1.826   5.028   0.939  0.00  0.00    -0.040 A 
ATOM      9  C   LIG    1       -0.814   4.154   0.583  0.00  0.00    +0.290 A 
ATOM     10  N   LIG    1        0.441   4.415   0.881  0.00  0.00    -0.470 NA
ATOM     11  C   LIG    1        0.791   5.513   1.540  0.00  0.00    +0.100 A 
ATOM     12  C   LIG    1       -0.168   6.440   1.932  0.00  0.00    +0.050 A 
BRANCH  11  13
ATOM     13  C   LIG    1        2.219   5.756   1.855  0.00  0.00    +0.570 C 
ATOM     14  N   LIG    1        3.167   4.936   1.361  0.00  0.00    -0.610 N 
ATOM     15  C   LIG    1        2.799   3.871   0.425  0.00  0.00    +0.300 C 
ATOM     16  C   LIG    1        4.566   5.107   1.763  0.00  0.00    +0.290 C 
ATOM     17  O   LIG    1        2.534   6.695   2.559  0.00  0.00    -0.530 OA
ENDBRANCH  11  13
ENDBRANCH   4   7
BRANCH   1  18
ATOM     18  C   LIG    1       -2.828  10.694   2.708  0.00  0.00    +0.220 C 
ATOM     19  C   LIG    1       -1.644  10.875   3.660  0.00  0.00    +0.060 C 
BRANCH  18  20
ATOM     20  C   LIG    1       -2.466  11.257   1.332  0.00  0.00    +0.190 C 
BRANCH  20  22
ATOM     21  C   LIG    1       -3.337  11.584  -0.877  0.00  0.00    +0.190 C 
ATOM     22  O   LIG    1       -3.572  11.088   0.443  0.00  0.00    -0.390 OA
ENDBRANCH  20  22
ENDBRANCH  18  20
BRANCH  18  23
ATOM     23  C   LIG    1       -4.045  11.438   3.260  0.00  0.00    +0.110 C 
BRANCH  23  24
ATOM     24  C   LIG    1       -3.722  12.905   3.387  0.00  0.00    +0.470 C 
ATOM     25  O   LIG    1       -2.630  13.313   3.068  0.00  0.00    -0.500 OA
BRANCH  24  26
ATOM     26  O   LIG    1       -4.647  13.758   3.854  0.00  0.00    -0.360 OA
ATOM     27  C   LIG    1       -4.266  15.156   3.949  0.00  0.00    +0.270 C 
ENDBRANCH  24  26
ENDBRANCH  23  24
ENDBRANCH  18  23
ENDBRANCH   1  18
TORSDOF 8
