REMARK  Name = ZINCrg00000IXB96.2
REMARK                            x       y       z     vdW  Elec       q    Type
REMARK                         _______ _______ _______ _____ _____    ______ ____
ROOT
ATOM      1  O   LIG    1       -1.461   2.816  -3.375  0.00  0.00    -0.490 OA
ATOM      2  C   LIG    1       -1.284   3.571  -2.442  0.00  0.00    +0.510 C 
ATOM      3  N   LIG    1       -1.476   4.896  -2.602  0.00  0.00    -0.690 N 
ATOM      4  H   LIG    1       -1.334   5.500  -1.856  0.00  0.00    +0.400 HD
ENDROOT
BRANCH   2   5
ATOM      5  C   LIG    1       -0.850   3.028  -1.105  0.00  0.00    +0.180 C 
ATOM      6  C   LIG    1       -1.903   3.359  -0.047  0.00  0.00    +0.150 C 
ATOM      7  C   LIG    1       -1.587   2.628   1.233  0.00  0.00    -0.100 A 
ATOM      8  C   LIG    1       -2.203   3.042   2.404  0.00  0.00    +0.060 A 
ATOM      9  C   LIG    1       -1.942   2.397   3.596  0.00  0.00    +0.020 A 
ATOM     10  C   LIG    1       -1.058   1.328   3.622  0.00  0.00    +0.120 A 
ATOM     11  C   LIG    1       -0.443   0.916   2.451  0.00  0.00    +0.020 A 
ATOM     12  C   LIG    1       -0.707   1.566   1.255  0.00  0.00    -0.110 A 
ATOM     13  C   LIG    1       -0.013   1.086   0.008  0.00  0.00    +0.350 C 
ATOM     14  N   LIG    1       -0.711   1.566  -1.188  0.00  0.00    -0.490 N 
ATOM     15  H   LIG    1       -1.625   1.142  -1.238  0.00  0.00    +0.430 HD
ATOM     16  H   LIG    1       -0.179   1.323  -2.010  0.00  0.00    +0.450 HD
BRANCH  10  17
ATOM     17  O   LIG    1       -0.797   0.688   4.791  0.00  0.00    -0.490 OA
ATOM     18  H   LIG    1       -1.390  -0.054   4.974  0.00  0.00    +0.400 HD
ENDBRANCH  10  17
ENDBRANCH   2   5
BRANCH   3  19
ATOM     19  C   LIG    1       -1.897   5.424  -3.902  0.00  0.00    +0.300 C 
BRANCH  19  20
ATOM     20  C   LIG    1       -2.614   6.734  -3.703  0.00  0.00    -0.090 A 
ATOM     21  C   LIG    1       -2.151   7.640  -2.767  0.00  0.00    +0.000 A 
ATOM     22  C   LIG    1       -2.807   8.844  -2.587  0.00  0.00    +0.000 A 
ATOM     23  C   LIG    1       -3.929   9.139  -3.338  0.00  0.00    +0.000 A 
ATOM     24  C   LIG    1       -4.394   8.231  -4.271  0.00  0.00    +0.020 A 
ATOM     25  C   LIG    1       -3.737   7.029  -4.454  0.00  0.00    +0.030 A 
ENDBRANCH  19  20
BRANCH  19  26
ATOM     26  C   LIG    1       -0.668   5.644  -4.786  0.00  0.00    +0.140 C 
BRANCH  26  27
ATOM     27  C   LIG    1       -0.021   4.316  -5.086  0.00  0.00    +0.060 A 
ATOM     28  N   LIG    1        0.929   3.722  -4.378  0.00  0.00    -0.400 NA
ATOM     29  N   LIG    1        1.209   2.607  -4.960  0.00  0.00    -0.210 NA
ATOM     30  N   LIG    1        0.475   2.486  -6.011  0.00  0.00    -0.190 NA
ATOM     31  N   LIG    1       -0.288   3.520  -6.111  0.00  0.00    -0.370 NA
ENDBRANCH  26  27
ENDBRANCH  19  26
ENDBRANCH   3  19
TORSDOF 6
