REMARK  Name = ZINCrH000004kevD.0
REMARK                            x       y       z     vdW  Elec       q    Type
REMARK                         _______ _______ _______ _____ _____    ______ ____
ROOT
ATOM      1  N   LIG    1       -2.296   6.378   2.923  0.00  0.00    -0.680 N 
ATOM      2  H   LIG    1       -2.935   6.963   2.486  0.00  0.00    +0.410 HD
ATOM      3  C   LIG    1       -1.255   5.877   2.229  0.00  0.00    +0.720 C 
ATOM      4  N   LIG    1       -1.163   6.096   0.902  0.00  0.00    -0.630 N 
ATOM      5  C   LIG    1       -2.124   6.862   0.088  0.00  0.00    +0.230 C 
ATOM      6  C   LIG    1       -1.310   7.345  -1.138  0.00  0.00    +0.040 C 
ATOM      7  C   LIG    1       -0.385   6.126  -1.397  0.00  0.00    +0.050 C 
ATOM      8  C   LIG    1       -0.086   5.611   0.027  0.00  0.00    +0.290 C 
ATOM      9  O   LIG    1       -0.400   5.228   2.799  0.00  0.00    -0.550 OA
ENDROOT
BRANCH   1  14
ATOM     10  C   LIG    1       -2.072   4.564   6.125  0.00  0.00    -0.120 A 
ATOM     11  C   LIG    1       -2.784   5.426   6.960  0.00  0.00    +0.020 A 
ATOM     12  C   LIG    1       -3.325   6.589   6.451  0.00  0.00    +0.030 A 
ATOM     13  C   LIG    1       -3.164   6.905   5.115  0.00  0.00    -0.100 A 
ATOM     14  C   LIG    1       -2.456   6.053   4.275  0.00  0.00    +0.160 A 
ATOM     15  C   LIG    1       -3.757   8.178   4.568  0.00  0.00    +0.100 C 
ATOM     16  C   LIG    1       -1.914   4.880   4.775  0.00  0.00    +0.090 A 
BRANCH  10  20
ATOM     17  C   LIG    1       -1.078   1.774   8.507  0.00  0.00    +0.290 C 
ATOM     18  N   LIG    1       -1.652   3.010   7.970  0.00  0.00    -0.730 N 
ATOM     19  H   LIG    1       -2.147   3.608   8.552  0.00  0.00    +0.400 HD
ATOM     20  C   LIG    1       -1.493   3.316   6.667  0.00  0.00    +0.560 C 
ATOM     21  O   LIG    1       -0.873   2.567   5.938  0.00  0.00    -0.530 OA
ENDBRANCH  10  20
ENDBRANCH   1  14
BRANCH   8  22
ATOM     22  C   LIG    1       -0.061   4.104   0.032  0.00  0.00    -0.130 A 
ATOM     23  C   LIG    1        1.148   3.433   0.017  0.00  0.00    +0.070 A 
ATOM     24  C   LIG    1        1.173   2.052   0.020  0.00  0.00    -0.020 A 
ATOM     25  C   LIG    1       -0.016   1.338   0.039  0.00  0.00    +0.130 A 
ATOM     26  C   LIG    1       -1.228   2.013   0.049  0.00  0.00    -0.080 A 
ATOM     27  C   LIG    1       -1.248   3.394   0.050  0.00  0.00    +0.060 A 
BRANCH  25  28
ATOM     28  O   LIG    1        0.006  -0.021   0.043  0.00  0.00    -0.320 OA
ATOM     29  C   LIG    1       -1.256  -0.690   0.062  0.00  0.00    +0.240 C 
ENDBRANCH  25  28
ENDBRANCH   8  22
TORSDOF 4
