REMARK  Name = ZINCnE000001GLgS.1
REMARK                            x       y       z     vdW  Elec       q    Type
REMARK                         _______ _______ _______ _____ _____    ______ ____
ROOT
ATOM      1  S   LIG    1        3.824   1.952  -0.024  0.00  0.00    +2.600 S 
ATOM      2  O   LIG    1        3.902   2.619   1.229  0.00  0.00    -1.020 OA
ATOM      3  O   LIG    1        3.878   2.632  -1.271  0.00  0.00    -1.020 OA
ENDROOT
BRANCH   1   4
ATOM      4  C   LIG    1        5.134   0.774  -0.043  0.00  0.00    -0.610 A 
ATOM      5  C   LIG    1        5.663   0.310   1.147  0.00  0.00    +0.210 A 
ATOM      6  C   LIG    1        6.687  -0.619   1.133  0.00  0.00    +0.030 A 
ATOM      7  C   LIG    1        7.190  -1.075  -0.072  0.00  0.00    +0.050 A 
ATOM      8  C   LIG    1        6.664  -0.606  -1.263  0.00  0.00    -0.070 A 
ATOM      9 CL   LIG    1        8.481  -2.235  -0.091  0.00  0.00    -0.010 Cl
ATOM     10  C   LIG    1        5.636   0.318  -1.248  0.00  0.00    +0.230 A 
BRANCH   8  11
ATOM     11  N   LIG    1        7.202  -1.093  -2.553  0.00  0.00    +0.030 N 
ATOM     12  O   LIG    1        8.107  -1.908  -2.566  0.00  0.00    -0.140 OA
ATOM     13  O   LIG    1        6.738  -0.681  -3.601  0.00  0.00    -0.160 OA
ENDBRANCH   8  11
ENDBRANCH   1   4
BRANCH   1  14
ATOM     14  N   LIG    1        2.402   1.104  -0.015  0.00  0.00    -1.090 NA
BRANCH  14  18
ATOM     15  C   LIG    1       -1.237   3.137   0.030  0.00  0.00    +0.020 A 
ATOM     16  C   LIG    1       -1.218   1.750   0.017  0.00  0.00    -0.050 A 
ATOM     17  C   LIG    1       -0.013   1.076   0.008  0.00  0.00    -0.030 A 
ATOM     18  C   LIG    1        1.180   1.787   0.000  0.00  0.00    +0.250 A 
ATOM     19  C   LIG    1        1.160   3.175   0.007  0.00  0.00    -0.130 A 
ATOM     20  C   LIG    1       -0.046   3.848   0.022  0.00  0.00    +0.020 A 
BRANCH  15  21
ATOM     21  O   LIG    1       -2.424   3.800   0.044  0.00  0.00    -0.330 OA
BRANCH  21  23
ATOM     22  C   LIG    1       -4.838   3.920   0.066  0.00  0.00    +0.040 C 
ATOM     23  C   LIG    1       -3.611   3.005   0.051  0.00  0.00    +0.160 C 
ENDBRANCH  21  23
ENDBRANCH  15  21
ENDBRANCH  14  18
ENDBRANCH   1  14
TORSDOF 6
