REMARK  Name = ZINCqH0000002bwN.0
REMARK                            x       y       z     vdW  Elec       q    Type
REMARK                         _______ _______ _______ _____ _____    ______ ____
ROOT
ATOM      1  N   LIG    1        3.487   2.495  -0.018  0.00  0.00    -0.660 N 
ATOM      2  H   LIG    1        3.238   3.431   0.039  0.00  0.00    +0.420 HD
ATOM      3  C   LIG    1        2.537   1.554  -0.184  0.00  0.00    +0.610 C 
ATOM      4  O   LIG    1        2.855   0.392  -0.352  0.00  0.00    -0.500 OA
ENDROOT
BRANCH   1   9
ATOM      5  C   LIG    1        6.525   0.554   0.755  0.00  0.00    -0.150 A 
ATOM      6  C   LIG    1        7.511   1.403   0.241  0.00  0.00    +0.050 A 
ATOM      7  C   LIG    1        7.152   2.597  -0.348  0.00  0.00    +0.030 A 
ATOM      8  C   LIG    1        5.820   2.957  -0.440  0.00  0.00    +0.020 A 
ATOM      9  C   LIG    1        4.832   2.123   0.072  0.00  0.00    +0.140 A 
ATOM     10  C   LIG    1        5.179   0.921   0.667  0.00  0.00    +0.090 A 
BRANCH   5  11
ATOM     11  C   LIG    1        6.904  -0.722   1.385  0.00  0.00    +0.390 C 
ATOM     12  O   LIG    1        6.048  -1.456   1.829  0.00  0.00    -0.440 OA
BRANCH  11  14
ATOM     13  C   LIG    1        8.473  -2.473   2.171  0.00  0.00    +0.030 C 
ATOM     14  C   LIG    1        8.356  -1.114   1.478  0.00  0.00    +0.030 C 
ENDBRANCH  11  14
ENDBRANCH   5  11
ENDBRANCH   1   9
BRANCH   3  15
ATOM     15  C   LIG    1        1.110   1.933  -0.163  0.00  0.00    -0.010 A 
ATOM     16  N   LIG    1        0.625   3.147   0.007  0.00  0.00    -0.260 NA
ATOM     17  N   LIG    1       -0.659   3.119  -0.030  0.00  0.00    -0.220 N 
ATOM     18  C   LIG    1       -1.092   1.848  -0.238  0.00  0.00    +0.170 A 
ATOM     19  C   LIG    1        0.006   1.062  -0.323  0.00  0.00    +0.010 A 
BRANCH  17  20
ATOM     20  C   LIG    1       -1.492   4.237   0.116  0.00  0.00    +0.090 A 
ATOM     21  C   LIG    1       -2.871   4.090   0.052  0.00  0.00    +0.060 A 
ATOM     22  C   LIG    1       -3.691   5.190   0.202  0.00  0.00    -0.050 A 
ATOM     23  C   LIG    1       -3.136   6.446   0.406  0.00  0.00    +0.140 A 
ATOM     24  C   LIG    1       -1.758   6.595   0.464  0.00  0.00    +0.020 A 
ATOM     25  C   LIG    1       -0.937   5.494   0.320  0.00  0.00    +0.090 A 
BRANCH  23  26
ATOM     26  O   LIG    1       -3.943   7.530   0.548  0.00  0.00    -0.310 OA
ATOM     27  C   LIG    1       -5.352   7.304   0.477  0.00  0.00    +0.250 C 
ENDBRANCH  23  26
ENDBRANCH  17  20
ENDBRANCH   3  15
TORSDOF 6
