REMARK  Name = ZINCpk0000053sYH.1
REMARK                            x       y       z     vdW  Elec       q    Type
REMARK                         _______ _______ _______ _____ _____    ______ ____
ROOT
ATOM      1  C   LIG    1       -1.824  -2.200  -1.689  0.00  0.00    +0.540 C 
ATOM      2  N   LIG    1       -1.630  -1.901  -0.389  0.00  0.00    -0.600 N 
ATOM      3  C   LIG    1       -1.513  -0.524  -0.003  0.00  0.00    +0.300 C 
ATOM      4  C   LIG    1       -0.041  -0.110  -0.164  0.00  0.00    -0.050 C 
ATOM      5  C   LIG    1        0.789  -0.591   0.952  0.00  0.00    +0.290 C 
ATOM      6  N   LIG    1        0.708  -2.067   1.055  0.00  0.00    -0.600 N 
ATOM      7  C   LIG    1       -0.447  -2.685   1.644  0.00  0.00    +0.210 C 
ATOM      8  C   LIG    1       -0.018  -3.982   2.332  0.00  0.00    +0.050 C 
ATOM      9  C   LIG    1        1.718  -2.831   0.595  0.00  0.00    +0.520 C 
ATOM     10  O   LIG    1        1.690  -4.033   0.751  0.00  0.00    -0.530 OA
ATOM     11  C   LIG    1        0.044   1.417  -0.225  0.00  0.00    +0.040 C 
ATOM     12  C   LIG    1       -1.544  -3.010   0.600  0.00  0.00    +0.260 C 
ATOM     13  O   LIG    1       -1.897  -1.311  -2.511  0.00  0.00    -0.530 OA
ENDROOT
BRANCH   1  16
ATOM     14  C   LIG    1       -2.169  -3.912  -3.610  0.00  0.00    +0.000 C 
ATOM     15  C   LIG    1       -3.318  -4.108  -2.619  0.00  0.00    +0.050 C 
ATOM     16  C   LIG    1       -1.950  -3.638  -2.121  0.00  0.00    -0.080 C 
BRANCH  14  18
ATOM     17  C   LIG    1       -2.339  -3.188  -5.995  0.00  0.00    +0.000 C 
ATOM     18  C   LIG    1       -2.243  -2.704  -4.547  0.00  0.00    +0.070 C 
ENDBRANCH  14  18
ENDBRANCH   1  16
BRANCH   9  19
ATOM     19  C   LIG    1        2.884  -2.191  -0.114  0.00  0.00    +0.050 C 
BRANCH  19  20
ATOM     20  C   LIG    1        3.883  -3.271  -0.531  0.00  0.00    +0.170 C 
BRANCH  20  21
ATOM     21  C   LIG    1        5.049  -2.631  -1.240  0.00  0.00    -0.020 A 
ATOM     22  C   LIG    1        6.358  -2.751  -0.918  0.00  0.00    +0.160 A 
ATOM     23  N   LIG    1        7.038  -2.012  -1.825  0.00  0.00    -0.390 N 
ATOM     24  H   LIG    1        8.001  -1.900  -1.859  0.00  0.00    +0.450 HD
ATOM     25  N   LIG    1        6.188  -1.478  -2.630  0.00  0.00    -0.080 NA
ATOM     26  N   LIG    1        4.992  -1.828  -2.309  0.00  0.00    -0.260 NA
ENDBRANCH  20  21
ENDBRANCH  19  20
ENDBRANCH   9  19
TORSDOF 5
