REMARK  Name = ZINCrg00000SjSmh.0
REMARK                            x       y       z     vdW  Elec       q    Type
REMARK                         _______ _______ _______ _____ _____    ______ ____
ROOT
ATOM      1  C   LIG    1       -0.653   0.510   5.689  0.00  0.00    +0.050 C 
ATOM      2  C   LIG    1        0.052   1.584   4.859  0.00  0.00    +0.250 C 
ATOM      3  C   LIG    1       -0.160   2.963   5.503  0.00  0.00    +0.150 C 
ATOM      4  O   LIG    1       -1.541   3.319   5.406  0.00  0.00    -0.350 OA
ATOM      5  C   LIG    1       -2.018   3.457   4.066  0.00  0.00    +0.230 C 
ATOM      6  C   LIG    1       -1.900   2.107   3.347  0.00  0.00    +0.250 C 
ATOM      7  N   LIG    1       -0.521   1.617   3.503  0.00  0.00    -0.630 N 
ATOM      8  C   LIG    1        0.195   1.207   2.438  0.00  0.00    +0.710 C 
ATOM      9  N   LIG    1       -0.313   1.334   1.196  0.00  0.00    -0.740 N 
ATOM     10  H   LIG    1       -1.221   1.653   1.073  0.00  0.00    +0.400 HD
ATOM     11  O   LIG    1        1.298   0.721   2.596  0.00  0.00    -0.570 OA
ENDROOT
BRANCH   3  12
ATOM     12  C   LIG    1        0.253   2.908   6.975  0.00  0.00    +0.470 C 
ATOM     13  F   LIG    1        0.182   4.191   7.528  0.00  0.00    -0.170 F 
ATOM     14  F   LIG    1        1.563   2.428   7.075  0.00  0.00    -0.170 F 
ATOM     15  F   LIG    1       -0.611   2.054   7.669  0.00  0.00    -0.170 F 
ENDBRANCH   3  12
BRANCH   9  16
ATOM     16  C   LIG    1        0.506   0.991   0.031  0.00  0.00    +0.290 C 
BRANCH  16  17
ATOM     17  C   LIG    1       -0.302   1.224  -1.247  0.00  0.00    +0.000 C 
ATOM     18  C   LIG    1       -1.456   0.201  -1.340  0.00  0.00    +0.040 C 
ATOM     19  C   LIG    1       -1.541  -0.142  -2.849  0.00  0.00    +0.030 C 
ATOM     20  C   LIG    1       -0.052  -0.154  -3.284  0.00  0.00    +0.060 C 
ATOM     21  C   LIG    1        0.579   0.988  -2.477  0.00  0.00    +0.120 C 
ATOM     22  N   LIG    1        0.702   2.203  -3.286  0.00  0.00    -0.720 N 
ATOM     23  H   LIG    1       -0.018   2.697  -3.708  0.00  0.00    +0.440 HD
ATOM     24  C   LIG    1        2.018   2.495  -3.328  0.00  0.00    +0.700 C 
ATOM     25  N   LIG    1        2.758   1.615  -2.642  0.00  0.00    -0.580 N 
ATOM     26  C   LIG    1        4.216   1.687  -2.515  0.00  0.00    +0.340 C 
ATOM     27  O   LIG    1        2.479   3.450  -3.921  0.00  0.00    -0.540 OA
ATOM     28  C   LIG    1        1.994   0.654  -2.080  0.00  0.00    +0.530 C 
ATOM     29  O   LIG    1        2.367  -0.280  -1.402  0.00  0.00    -0.450 OA
ENDBRANCH  16  17
ENDBRANCH   9  16
TORSDOF 3
