REMARK  Name = ZINCtj00000mhef8.1
REMARK                            x       y       z     vdW  Elec       q    Type
REMARK                         _______ _______ _______ _____ _____    ______ ____
ROOT
ATOM      1  N   LIG    1       -0.068  -3.227   1.445  0.00  0.00    -0.660 NA
ATOM      2  C   LIG    1       -0.023  -2.131   0.687  0.00  0.00    +0.490 A 
ATOM      3  C   LIG    1        0.086  -2.090  -0.718  0.00  0.00    -0.080 A 
ATOM      4  C   LIG    1        0.093  -0.796  -1.104  0.00  0.00    +0.350 A 
ATOM      5  N   LIG    1        0.002  -0.004   0.002  0.00  0.00    -0.380 N 
ATOM      6  N   LIG    1       -0.075  -0.833   1.130  0.00  0.00    -0.470 N 
ATOM      7  H   LIG    1       -0.151  -0.542   2.052  0.00  0.00    +0.450 HD
ENDROOT
BRANCH   1   8
ATOM      8  C   LIG    1       -0.008  -4.428   0.880  0.00  0.00    +0.540 C 
ATOM      9  O   LIG    1        0.087  -4.528  -0.328  0.00  0.00    -0.560 OA
BRANCH   8  10
ATOM     10  C   LIG    1       -0.059  -5.667   1.737  0.00  0.00    -0.100 C 
ATOM     11  C   LIG    1        1.213  -6.513   1.831  0.00  0.00    +0.070 C 
ATOM     12  C   LIG    1        0.014  -7.020   1.027  0.00  0.00    +0.070 C 
BRANCH  10  17
ATOM     13  C   LIG    1       -1.824  -4.289   4.780  0.00  0.00    +0.110 A 
ATOM     14  C   LIG    1       -2.517  -5.405   5.224  0.00  0.00    -0.090 A 
ATOM     15  C   LIG    1       -2.412  -6.600   4.539  0.00  0.00    +0.040 A 
ATOM     16  C   LIG    1       -1.617  -6.684   3.411  0.00  0.00    -0.030 A 
ATOM     17  C   LIG    1       -0.925  -5.572   2.966  0.00  0.00    -0.010 A 
ATOM     18  C   LIG    1       -1.022  -4.377   3.651  0.00  0.00    +0.040 A 
BRANCH  13  20
ATOM     19  C   LIG    1       -2.764  -3.097   6.610  0.00  0.00    +0.240 C 
ATOM     20  O   LIG    1       -1.925  -3.112   5.453  0.00  0.00    -0.320 OA
ENDBRANCH  13  20
ENDBRANCH  10  17
ENDBRANCH   8  10
ENDBRANCH   1   8
BRANCH   5  21
ATOM     21  C   LIG    1       -0.018   1.461   0.010  0.00  0.00    +0.390 C 
BRANCH  21  22
ATOM     22  C   LIG    1        1.396   1.982  -0.001  0.00  0.00    +0.490 C 
ATOM     23  N   LIG    1        1.624   3.311   0.004  0.00  0.00    -0.630 N 
ATOM     24  C   LIG    1        0.509   4.270   0.014  0.00  0.00    +0.320 C 
ATOM     25  C   LIG    1        0.755   5.283   1.142  0.00  0.00    +0.260 C 
ATOM     26  N   LIG    1        2.078   5.895   0.967  0.00  0.00    -0.390 N 
ATOM     27  C   LIG    1        3.124   4.876   1.118  0.00  0.00    +0.260 C 
ATOM     28  C   LIG    1        2.269   6.944   1.978  0.00  0.00    +0.330 C 
ATOM     29  H   LIG    1        2.139   6.304   0.046  0.00  0.00    +0.430 HD
ATOM     30  C   LIG    1        2.996   3.842  -0.006  0.00  0.00    +0.330 C 
ATOM     31  O   LIG    1        2.328   1.207  -0.014  0.00  0.00    -0.480 OA
ENDBRANCH  21  22
ENDBRANCH   5  21
TORSDOF 6
