REMARK  Name = ZINCrD00000F5Lyr.0
REMARK                            x       y       z     vdW  Elec       q    Type
REMARK                         _______ _______ _______ _____ _____    ______ ____
ROOT
ATOM      1  C   LIG    1       -5.115   1.526  -0.455  0.00  0.00    +0.350 C 
ATOM      2  C   LIG    1       -3.685   1.868  -0.190  0.00  0.00    -0.250 A 
ATOM      3  C   LIG    1       -3.580   3.229  -0.164  0.00  0.00    +0.090 A 
ATOM      4  C   LIG    1       -4.915   3.801  -0.415  0.00  0.00    +0.570 C 
ATOM      5  O   LIG    1       -5.166   4.988  -0.462  0.00  0.00    -0.490 OA
ATOM      6  O   LIG    1       -2.413   3.864   0.061  0.00  0.00    -0.180 OA
ATOM      7  C   LIG    1       -1.255   3.165   0.037  0.00  0.00    +0.140 A 
ATOM      8  C   LIG    1       -0.046   3.859   0.026  0.00  0.00    +0.010 A 
ATOM      9  C   LIG    1        1.147   3.172   0.008  0.00  0.00    +0.090 A 
ATOM     10  C   LIG    1        1.168   1.785   0.001  0.00  0.00    +0.000 A 
ATOM     11  C   LIG    1       -0.013   1.076   0.008  0.00  0.00    +0.120 A 
ATOM     12  C   LIG    1       -1.227   1.761   0.017  0.00  0.00    -0.210 A 
ATOM     13  C   LIG    1       -2.511   1.014   0.021  0.00  0.00    +0.460 A 
ATOM     14  O   LIG    1       -2.582  -0.192   0.178  0.00  0.00    -0.430 OA
ATOM     15  N   LIG    1       -5.817   2.813  -0.585  0.00  0.00    -0.590 N 
ATOM     16  C   LIG    1       -7.247   2.990  -0.851  0.00  0.00    +0.360 C 
ENDROOT
BRANCH   1  20
ATOM     17  C   LIG    1       -5.447  -0.710  -4.085  0.00  0.00    +0.110 A 
ATOM     18  C   LIG    1       -5.314   0.668  -4.127  0.00  0.00    -0.030 A 
ATOM     19  C   LIG    1       -5.207   1.389  -2.951  0.00  0.00    +0.030 A 
ATOM     20  C   LIG    1       -5.232   0.736  -1.733  0.00  0.00    -0.100 A 
ATOM     21  C   LIG    1       -5.360  -0.640  -1.684  0.00  0.00    +0.000 A 
ATOM     22  C   LIG    1       -5.473  -1.367  -2.858  0.00  0.00    +0.100 A 
BRANCH  22  23
ATOM     23  O   LIG    1       -5.604  -2.719  -2.812  0.00  0.00    -0.300 OA
ATOM     24  C   LIG    1       -5.623  -3.326  -1.518  0.00  0.00    +0.240 C 
ENDBRANCH  22  23
BRANCH  17  25
ATOM     25  O   LIG    1       -5.552  -1.419  -5.240  0.00  0.00    -0.300 OA
BRANCH  25  27
ATOM     26  C   LIG    1       -5.647  -1.641  -7.645  0.00  0.00    +0.070 C 
ATOM     27  C   LIG    1       -5.517  -0.679  -6.462  0.00  0.00    +0.170 C 
ENDBRANCH  25  27
ENDBRANCH  17  25
ENDBRANCH   1  20
TORSDOF 4
