REMARK  Name = ZINCrD000000D0sJ.0
REMARK                            x       y       z     vdW  Elec       q    Type
REMARK                         _______ _______ _______ _____ _____    ______ ____
ROOT
ATOM      1  N   LIG    1       -1.722   4.248  -2.530  0.00  0.00    -1.000 NA
ATOM      2  C   LIG    1       -3.191   4.313  -2.553  0.00  0.00    +0.310 C 
ATOM      3  C   LIG    1       -3.626   5.759  -2.824  0.00  0.00    +0.110 C 
ATOM      4  C   LIG    1       -2.791   6.315  -3.947  0.00  0.00    -0.020 A 
ATOM      5  C   LIG    1       -1.620   5.792  -4.370  0.00  0.00    -0.010 A 
ATOM      6  N   LIG    1       -1.166   6.546  -5.373  0.00  0.00    -0.480 NA
ATOM      7  C   LIG    1       -2.012   7.518  -5.595  0.00  0.00    +0.390 A 
ATOM      8  N   LIG    1       -3.041   7.406  -4.723  0.00  0.00    -0.450 N 
ATOM      9  C   LIG    1       -0.988   4.564  -3.769  0.00  0.00    +0.390 C 
ENDROOT
BRANCH   1  11
ATOM     10  O   LIG    1       -1.796   4.215  -0.098  0.00  0.00    -0.950 OA
ATOM     11  S   LIG    1       -0.913   3.838  -1.145  0.00  0.00    +2.610 S 
ATOM     12  O   LIG    1        0.360   4.454  -1.288  0.00  0.00    -0.940 OA
BRANCH  11  13
ATOM     13  C   LIG    1       -0.759   2.033  -1.229  0.00  0.00    -0.350 C 
BRANCH  13  14
ATOM     14  C   LIG    1       -0.019   1.526   0.010  0.00  0.00    +0.000 C 
ATOM     15  C   LIG    1        1.417   2.055  -0.000  0.00  0.00    +0.010 C 
ATOM     16  C   LIG    1        2.157   1.548   1.239  0.00  0.00    +0.010 C 
ATOM     17  C   LIG    1        2.178   0.019   1.231  0.00  0.00    +0.000 C 
ATOM     18  C   LIG    1        0.742  -0.511   1.242  0.00  0.00    +0.010 C 
ATOM     19  C   LIG    1        0.002  -0.004   0.002  0.00  0.00    +0.030 C 
ENDBRANCH  13  14
ENDBRANCH  11  13
ENDBRANCH   1  11
BRANCH   8  20
ATOM     20  C   LIG    1       -4.205   8.291  -4.632  0.00  0.00    +0.300 C 
BRANCH  20  21
ATOM     21  C   LIG    1       -3.951   9.359  -3.567  0.00  0.00    +0.070 C 
BRANCH  21  22
ATOM     22  C   LIG    1       -5.149  10.270  -3.473  0.00  0.00    -0.090 A 
ATOM     23  C   LIG    1       -5.216  11.406  -4.257  0.00  0.00    +0.010 A 
ATOM     24  C   LIG    1       -6.317  12.238  -4.174  0.00  0.00    +0.000 A 
ATOM     25  C   LIG    1       -7.345  11.940  -3.299  0.00  0.00    +0.000 A 
ATOM     26  C   LIG    1       -7.275  10.807  -2.511  0.00  0.00    +0.000 A 
ATOM     27  C   LIG    1       -6.176   9.972  -2.598  0.00  0.00    +0.010 A 
ENDBRANCH  21  22
ENDBRANCH  20  21
ENDBRANCH   8  20
TORSDOF 6
