REMARK  Name = ZINCqH0000001uAE.0
REMARK                            x       y       z     vdW  Elec       q    Type
REMARK                         _______ _______ _______ _____ _____    ______ ____
ROOT
ATOM      1  N   LIG    1       -0.011   0.966   0.007  0.00  0.00    -0.680 N 
ATOM      2  H   LIG    1        0.027  -0.003   0.007  0.00  0.00    +0.420 HD
ATOM      3  C   LIG    1       -1.204   1.593   0.017  0.00  0.00    +0.710 C 
ATOM      4  N   LIG    1       -2.341   0.877   0.120  0.00  0.00    -0.740 N 
ATOM      5  H   LIG    1       -2.301  -0.090   0.188  0.00  0.00    +0.400 HD
ATOM      6  O   LIG    1       -1.255   2.805  -0.067  0.00  0.00    -0.560 OA
ENDROOT
BRANCH   1  10
ATOM      7  C   LIG    1        3.517   3.194  -0.038  0.00  0.00    +0.020 A 
ATOM      8  C   LIG    1        3.462   1.994   0.658  0.00  0.00    +0.130 A 
ATOM      9  C   LIG    1        2.293   1.255   0.673  0.00  0.00    -0.030 A 
ATOM     10  C   LIG    1        1.174   1.714  -0.008  0.00  0.00    +0.220 A 
ATOM     11  C   LIG    1        1.230   2.911  -0.709  0.00  0.00    +0.020 A 
ATOM     12  F   LIG    1        4.552   1.548   1.321  0.00  0.00    -0.120 F 
ATOM     13  C   LIG    1        2.398   3.652  -0.720  0.00  0.00    +0.130 A 
ATOM     14  F   LIG    1        2.450   4.820  -1.397  0.00  0.00    -0.120 F 
BRANCH   7  15
ATOM     15  O   LIG    1        4.667   3.921  -0.053  0.00  0.00    -0.310 OA
BRANCH  15  17
ATOM     16  C   LIG    1        6.380   4.915  -1.438  0.00  0.00    +0.070 C 
ATOM     17  C   LIG    1        5.596   3.644  -1.103  0.00  0.00    +0.140 C 
ATOM     18  C   LIG    1        6.566   2.551  -0.651  0.00  0.00    +0.020 C 
ENDBRANCH  15  17
ENDBRANCH   7  15
ENDBRANCH   1  10
BRANCH   4  19
ATOM     19  C   LIG    1       -3.638   1.558   0.131  0.00  0.00    +0.470 C 
BRANCH  19  20
ATOM     20  C   LIG    1       -4.740   0.538   0.255  0.00  0.00    +0.150 A 
ATOM     21  N   LIG    1       -5.264   0.085   1.368  0.00  0.00    -0.450 NA
ATOM     22  C   LIG    1       -6.205  -0.799   0.992  0.00  0.00    +0.180 A 
ATOM     23  N   LIG    1       -6.205  -0.838  -0.307  0.00  0.00    -0.370 NA
ATOM     24  O   LIG    1       -5.376  -0.073  -0.750  0.00  0.00    +0.090 OA
BRANCH  22  25
ATOM     25  C   LIG    1       -7.095  -1.598   1.909  0.00  0.00    +0.020 C 
ATOM     26  C   LIG    1       -6.233  -2.477   2.818  0.00  0.00    +0.060 C 
ATOM     27  C   LIG    1       -8.022  -2.484   1.075  0.00  0.00    +0.050 C 
ATOM     28  C   LIG    1       -7.932  -0.646   2.764  0.00  0.00    +0.060 C 
ENDBRANCH  22  25
ENDBRANCH  19  20
ENDBRANCH   4  19
TORSDOF 6
