REMARK  Name = ZINCrH000004q6Y6.0
REMARK                            x       y       z     vdW  Elec       q    Type
REMARK                         _______ _______ _______ _____ _____    ______ ____
ROOT
ATOM      1  C   LIG    1       -2.091   6.983  -0.195  0.00  0.00    +0.600 C 
ATOM      2  N   LIG    1       -3.424   7.137  -0.070  0.00  0.00    -0.610 N 
ATOM      3  C   LIG    1       -4.279   5.969   0.154  0.00  0.00    +0.320 C 
ATOM      4  O   LIG    1       -1.379   7.955  -0.364  0.00  0.00    -0.510 OA
ENDROOT
BRANCH   1   7
ATOM      5  C   LIG    1        0.765   6.416  -0.841  0.00  0.00    +0.140 C 
ATOM      6  C   LIG    1       -0.218   5.358  -0.411  0.00  0.00    +0.060 A 
ATOM      7  C   LIG    1       -1.498   5.644  -0.127  0.00  0.00    -0.290 A 
ATOM      8  S   LIG    1       -2.364   4.189   0.338  0.00  0.00    +0.260 S 
ATOM      9  C   LIG    1       -0.921   3.205   0.127  0.00  0.00    +0.070 A 
ATOM     10  N   LIG    1       -0.721   1.882   0.288  0.00  0.00    -0.510 NA
ATOM     11  C   LIG    1        0.435   1.325   0.085  0.00  0.00    +0.610 A 
ATOM     12  N   LIG    1        1.524   2.027  -0.313  0.00  0.00    -0.540 N 
ATOM     13  C   LIG    1        2.797   1.335  -0.529  0.00  0.00    +0.340 C 
ATOM     14  C   LIG    1        1.443   3.358  -0.512  0.00  0.00    +0.560 A 
ATOM     15  O   LIG    1        2.415   3.999  -0.870  0.00  0.00    -0.500 OA
ATOM     16  C   LIG    1        0.141   4.017  -0.282  0.00  0.00    -0.240 A 
ENDBRANCH   1   7
BRANCH   2  17
ATOM     17  C   LIG    1       -4.018   8.473  -0.158  0.00  0.00    +0.350 C 
ATOM     18  C   LIG    1       -4.886   8.729   1.076  0.00  0.00    +0.070 C 
BRANCH  17  19
ATOM     19  C   LIG    1       -4.870   8.564  -1.398  0.00  0.00    +0.080 A 
ATOM     20  N   LIG    1       -4.753   9.476  -2.287  0.00  0.00    -0.450 NA
ATOM     21  C   LIG    1       -5.583   9.433  -3.346  0.00  0.00    +0.080 A 
ATOM     22  C   LIG    1       -5.673  10.297  -4.456  0.00  0.00    +0.080 A 
ATOM     23  C   LIG    1       -6.596  10.073  -5.432  0.00  0.00    +0.030 A 
ATOM     24  C   LIG    1       -7.464   8.993  -5.354  0.00  0.00    +0.040 A 
ATOM     25  C   LIG    1       -7.399   8.132  -4.282  0.00  0.00    +0.060 A 
ATOM     26  C   LIG    1       -6.462   8.346  -3.274  0.00  0.00    -0.190 A 
ATOM     27  S   LIG    1       -6.106   7.457  -1.796  0.00  0.00    +0.100 S 
ENDBRANCH  17  19
ENDBRANCH   2  17
TORSDOF 3
