REMARK  Name = ZINCqH0000003wTC.0
REMARK                            x       y       z     vdW  Elec       q    Type
REMARK                         _______ _______ _______ _____ _____    ______ ____
ROOT
ATOM      1  C   LIG    1       -0.113   5.347   0.050  0.00  0.00    +0.180 C 
ENDROOT
BRANCH   1   2
ATOM      2  N   LIG    1       -1.337   5.510  -0.746  0.00  0.00    -0.510 NA
ATOM      3  C   LIG    1       -1.322   6.784  -1.480  0.00  0.00    +0.230 C 
ATOM      4  C   LIG    1       -0.014   6.889  -2.274  0.00  0.00    +0.080 C 
ATOM      5  C   LIG    1        0.180   5.593  -3.032  0.00  0.00    -0.190 A 
ATOM      6  C   LIG    1       -0.494   4.457  -2.766  0.00  0.00    -0.130 A 
ATOM      7  C   LIG    1       -0.148   3.396  -3.596  0.00  0.00    +0.020 A 
ATOM      8  C   LIG    1        0.781   3.660  -4.511  0.00  0.00    -0.040 A 
ATOM      9  S   LIG    1        1.292   5.336  -4.367  0.00  0.00    +0.100 S 
ATOM     10  C   LIG    1       -1.530   4.372  -1.655  0.00  0.00    +0.300 C 
ENDBRANCH   1   2
BRANCH   1  11
ATOM     11  C   LIG    1       -0.049   3.941   0.590  0.00  0.00    -0.080 A 
ATOM     12  C   LIG    1        0.741   2.996  -0.036  0.00  0.00    +0.020 A 
ATOM     13  C   LIG    1        0.800   1.707   0.459  0.00  0.00    +0.000 A 
ATOM     14  C   LIG    1        0.069   1.363   1.581  0.00  0.00    +0.010 A 
ATOM     15  C   LIG    1       -0.725   2.307   2.204  0.00  0.00    +0.000 A 
ATOM     16  C   LIG    1       -0.780   3.598   1.712  0.00  0.00    +0.030 A 
ENDBRANCH   1  11
BRANCH   1  17
ATOM     17  C   LIG    1       -0.125   6.340   1.214  0.00  0.00    +0.290 C 
BRANCH  17  19
ATOM     18  C   LIG    1       -0.150   8.757   1.525  0.00  0.00    +0.510 C 
ATOM     19  N   LIG    1       -0.021   7.705   0.692  0.00  0.00    -0.740 N 
ATOM     20  H   LIG    1        0.141   7.852  -0.253  0.00  0.00    +0.400 HD
ATOM     21  O   LIG    1       -0.353   8.573   2.706  0.00  0.00    -0.530 OA
BRANCH  18  22
ATOM     22  C   LIG    1       -0.043  10.161   0.988  0.00  0.00    +0.060 C 
BRANCH  22  23
ATOM     23  C   LIG    1       -0.226  11.160   2.132  0.00  0.00    +0.060 C 
BRANCH  23  24
ATOM     24  C   LIG    1       -0.118  12.585   1.587  0.00  0.00    +0.160 C 
BRANCH  24  25
ATOM     25  O   LIG    1       -0.289  13.518   2.656  0.00  0.00    -0.390 OA
BRANCH  25  27
ATOM     26  C   LIG    1       -0.401  15.791   3.470  0.00  0.00    +0.040 C 
ATOM     27  C   LIG    1       -0.204  14.886   2.252  0.00  0.00    +0.160 C 
ENDBRANCH  25  27
ENDBRANCH  24  25
ENDBRANCH  23  24
ENDBRANCH  22  23
ENDBRANCH  18  22
ENDBRANCH  17  19
ENDBRANCH   1  17
TORSDOF 9
