REMARK  Name = ZINCrH00000No52D.0
REMARK                            x       y       z     vdW  Elec       q    Type
REMARK                         _______ _______ _______ _____ _____    ______ ____
ROOT
ATOM      1  C   LIG    1        2.477  -2.111   4.408  0.00  0.00    +0.520 C 
ATOM      2  N   LIG    1        3.446  -3.034   4.569  0.00  0.00    -0.730 N 
ATOM      3  H   LIG    1        4.335  -2.870   4.218  0.00  0.00    +0.400 HD
ATOM      4  O   LIG    1        1.365  -2.315   4.847  0.00  0.00    -0.520 OA
ENDROOT
BRANCH   1   5
ATOM      5  C   LIG    1        2.776  -0.824   3.683  0.00  0.00    +0.050 C 
ATOM      6  C   LIG    1        3.887  -0.070   4.417  0.00  0.00    +0.060 C 
BRANCH   5  10
ATOM      7  C   LIG    1       -0.748   1.595   3.566  0.00  0.00    +0.100 A 
ATOM      8  C   LIG    1       -0.202   1.221   4.783  0.00  0.00    -0.030 A 
ATOM      9  C   LIG    1        0.938   0.439   4.817  0.00  0.00    +0.040 A 
ATOM     10  C   LIG    1        1.534   0.028   3.639  0.00  0.00    -0.070 A 
ATOM     11  C   LIG    1        0.990   0.393   2.422  0.00  0.00    -0.030 A 
ATOM     12  C   LIG    1       -0.148   1.182   2.380  0.00  0.00    +0.100 A 
BRANCH   7  14
ATOM     13  C   LIG    1       -2.430   2.752   4.787  0.00  0.00    +0.240 C 
ATOM     14  O   LIG    1       -1.869   2.365   3.531  0.00  0.00    -0.310 OA
ENDBRANCH   7  14
BRANCH  12  15
ATOM     15  O   LIG    1       -0.682   1.547   1.184  0.00  0.00    -0.310 OA
ATOM     16  C   LIG    1       -0.013   1.086   0.008  0.00  0.00    +0.230 C 
ENDBRANCH  12  15
ENDBRANCH   5  10
ENDBRANCH   1   5
BRANCH   2  17
ATOM     17  C   LIG    1        3.155  -4.285   5.275  0.00  0.00    +0.330 C 
ATOM     18  C   LIG    1        2.558  -5.296   4.294  0.00  0.00    +0.060 C 
BRANCH  17  19
ATOM     19  C   LIG    1        4.430  -4.841   5.856  0.00  0.00    +0.090 A 
ATOM     20  C   LIG    1        5.593  -4.194   5.793  0.00  0.00    -0.110 A 
ATOM     21  S   LIG    1        6.814  -5.184   6.588  0.00  0.00    +0.100 S 
ATOM     22  C   LIG    1        5.641  -6.382   6.922  0.00  0.00    +0.230 A 
ATOM     23  N   LIG    1        4.485  -6.013   6.464  0.00  0.00    -0.480 NA
BRANCH  22  24
ATOM     24  N   LIG    1        5.889  -7.573   7.585  0.00  0.00    -0.430 N 
ATOM     25  C   LIG    1        5.622  -8.739   6.703  0.00  0.00    +0.210 C 
ATOM     26  C   LIG    1        6.423  -9.882   7.375  0.00  0.00    +0.030 C 
ATOM     27  C   LIG    1        7.700  -9.165   7.870  0.00  0.00    +0.030 C 
ATOM     28  C   LIG    1        7.313  -7.678   7.971  0.00  0.00    +0.190 C 
ENDBRANCH  22  24
ENDBRANCH  17  19
ENDBRANCH   2  17
TORSDOF 7
