REMARK  Name = ZINCrg000000tOgk.0
REMARK                            x       y       z     vdW  Elec       q    Type
REMARK                         _______ _______ _______ _____ _____    ______ ____
ROOT
ATOM      1  C   LIG    1       -1.086   1.289   4.464  0.00  0.00    -0.150 A 
ATOM      2  C   LIG    1       -1.276   2.671   4.569  0.00  0.00    +0.100 A 
ATOM      3  C   LIG    1       -2.563   3.147   4.743  0.00  0.00    -0.030 A 
ATOM      4  C   LIG    1       -3.617   2.253   4.807  0.00  0.00    +0.290 A 
ATOM      5  N   LIG    1       -3.418   0.953   4.706  0.00  0.00    -0.510 NA
ATOM      6  C   LIG    1       -2.208   0.445   4.533  0.00  0.00    +0.340 A 
ENDROOT
BRANCH   1   8
ATOM      7  O   LIG    1        0.677  -0.129   5.034  0.00  0.00    -0.510 OA
ATOM      8  C   LIG    1        0.265   0.728   4.277  0.00  0.00    +0.580 C 
ATOM      9  N   LIG    1        1.042   1.167   3.267  0.00  0.00    -0.610 N 
ATOM     10  C   LIG    1        2.434   0.713   3.143  0.00  0.00    +0.270 C 
ATOM     11  C   LIG    1        2.648   0.148   1.736  0.00  0.00    +0.020 C 
ATOM     12  C   LIG    1        2.235   1.196   0.701  0.00  0.00    +0.020 C 
ATOM     13  C   LIG    1        0.749   1.524   0.869  0.00  0.00    +0.020 C 
ATOM     14  C   LIG    1        0.514   2.105   2.267  0.00  0.00    +0.260 C 
ENDBRANCH   1   8
BRANCH   6  15
ATOM     15  N   LIG    1       -2.046  -0.924   4.426  0.00  0.00    -0.480 N 
ATOM     16  C   LIG    1       -2.617  -1.425   3.167  0.00  0.00    +0.210 C 
ATOM     17  C   LIG    1       -2.348  -2.927   3.050  0.00  0.00    +0.180 C 
ATOM     18  N   LIG    1       -2.937  -3.619   4.205  0.00  0.00    -0.520 NA
ATOM     19  C   LIG    1       -2.367  -3.118   5.463  0.00  0.00    +0.190 C 
ATOM     20  C   LIG    1       -2.636  -1.616   5.580  0.00  0.00    +0.210 C 
BRANCH  18  21
ATOM     21  C   LIG    1       -2.765  -5.074   4.091  0.00  0.00    +0.200 C 
ATOM     22  C   LIG    1       -3.464  -5.589   2.820  0.00  0.00    +0.080 C 
ATOM     23  C   LIG    1       -2.989  -7.029   2.545  0.00  0.00    -0.310 C 
ATOM     24  S   LIG    1       -1.310  -7.123   3.265  0.00  0.00    +2.390 S 
ATOM     25  O   LIG    1       -0.355  -7.245   2.220  0.00  0.00    -0.940 OA
ATOM     26  O   LIG    1       -1.309  -8.056   4.337  0.00  0.00    -0.930 OA
ATOM     27  C   LIG    1       -1.261  -5.421   3.943  0.00  0.00    -0.360 C 
ENDBRANCH  18  21
ENDBRANCH   6  15
TORSDOF 3
