REMARK  Name = ZINCrg000000sYr0.0
REMARK                            x       y       z     vdW  Elec       q    Type
REMARK                         _______ _______ _______ _____ _____    ______ ____
ROOT
ATOM      1  C   LIG    1       -1.760  -0.436   0.023  0.00  0.00    +0.040 C 
ENDROOT
BRANCH   1   2
ATOM      2  C   LIG    1       -1.909  -1.935   0.008  0.00  0.00    +0.530 C 
ATOM      3  N   LIG    1       -3.137  -2.490   0.019  0.00  0.00    -0.670 N 
ATOM      4  H   LIG    1       -3.923  -1.928   0.104  0.00  0.00    +0.420 HD
ATOM      5  O   LIG    1       -0.924  -2.643  -0.013  0.00  0.00    -0.490 OA
BRANCH   3   6
ATOM      6  C   LIG    1       -3.279  -3.878  -0.093  0.00  0.00    +0.120 A 
ATOM      7  C   LIG    1       -4.362  -4.414  -0.777  0.00  0.00    +0.060 A 
ATOM      8  C   LIG    1       -4.496  -5.784  -0.891  0.00  0.00    +0.020 A 
ATOM      9  C   LIG    1       -3.559  -6.622  -0.314  0.00  0.00    +0.120 A 
ATOM     10  C   LIG    1       -2.482  -6.091   0.373  0.00  0.00    -0.660 A 
ATOM     11  C   LIG    1       -2.340  -4.722   0.485  0.00  0.00    +0.140 A 
BRANCH  10  12
ATOM     12  S   LIG    1       -1.292  -7.163   1.106  0.00  0.00    +2.700 S 
ATOM     13  O   LIG    1       -0.094  -6.408   1.229  0.00  0.00    -0.950 OA
ATOM     14  O   LIG    1       -1.366  -8.392   0.396  0.00  0.00    -0.960 OA
BRANCH  12  15
ATOM     15  N   LIG    1       -1.804  -7.483   2.648  0.00  0.00    -1.250 NA
ATOM     16  H   LIG    1       -2.325  -6.824   3.133  0.00  0.00    +0.420 HD
ATOM     17  H   LIG    1       -1.583  -8.330   3.067  0.00  0.00    +0.420 HD
ENDBRANCH  12  15
ENDBRANCH  10  12
ENDBRANCH   3   6
ENDBRANCH   1   2
BRANCH   1  18
ATOM     18  S   LIG    1        0.002  -0.004   0.004  0.00  0.00    +0.140 S 
BRANCH  18  22
ATOM     19  C   LIG    1       -0.054   4.524   0.056  0.00  0.00    -0.150 A 
ATOM     20  C   LIG    1       -1.257   3.812   0.064  0.00  0.00    +0.140 A 
ATOM     21  C   LIG    1       -1.239   2.437   0.043  0.00  0.00    +0.000 A 
ATOM     22  C   LIG    1       -0.022   1.758   0.025  0.00  0.00    -0.040 A 
ATOM     23  C   LIG    1        1.175   2.470   0.016  0.00  0.00    -0.040 A 
ATOM     24  C   LIG    1        1.163   3.835   0.032  0.00  0.00    +0.200 A 
BRANCH  19  28
ATOM     25  N   LIG    1       -1.240   6.662   0.097  0.00  0.00    -0.850 N 
ATOM     26  H   LIG    1       -1.249   7.632   0.108  0.00  0.00    +0.410 HD
ATOM     27  H   LIG    1       -2.076   6.169   0.102  0.00  0.00    +0.400 HD
ATOM     28  C   LIG    1       -0.067   5.999   0.073  0.00  0.00    +0.570 C 
ATOM     29  O   LIG    1        0.980   6.617   0.066  0.00  0.00    -0.520 OA
ENDBRANCH  19  28
BRANCH  23  30
ATOM     30  N   LIG    1        2.465   1.744  -0.009  0.00  0.00    +0.030 N 
ATOM     31  O   LIG    1        2.478   0.526  -0.022  0.00  0.00    -0.140 OA
ATOM     32  O   LIG    1        3.513   2.364  -0.016  0.00  0.00    -0.150 OA
ENDBRANCH  23  30
ENDBRANCH  18  22
ENDBRANCH   1  18
TORSDOF 8
