REMARK  Name = ZINCb700000010mO.0
REMARK                            x       y       z     vdW  Elec       q    Type
REMARK                         _______ _______ _______ _____ _____    ______ ____
ROOT
ATOM      1  C   LIG    1        0.011   1.072   2.506  0.00  0.00    +0.180 C 
ENDROOT
BRANCH   1   2
ATOM      2  C   LIG    1       -0.621   1.658   3.743  0.00  0.00    +0.500 C 
ATOM      3  N   LIG    1       -0.322   2.917   4.121  0.00  0.00    -0.590 N 
ATOM      4  C   LIG    1        0.617   3.716   3.329  0.00  0.00    +0.300 C 
ATOM      5  C   LIG    1       -0.936   3.486   5.323  0.00  0.00    +0.320 C 
ATOM      6  O   LIG    1       -1.398   0.997   4.398  0.00  0.00    -0.520 OA
ENDBRANCH   1   2
BRANCH   1   7
ATOM      7  N   LIG    1       -0.072  -0.393   2.561  0.00  0.00    -0.620 N 
ATOM      8  H   LIG    1        0.416  -0.728   3.379  0.00  0.00    +0.440 HD
ATOM      9  H   LIG    1        0.351  -0.785   1.733  0.00  0.00    +0.440 HD
ATOM     10  H   LIG    1       -1.040  -0.674   2.609  0.00  0.00    +0.440 HD
ENDBRANCH   1   7
BRANCH   1  11
ATOM     11  C   LIG    1       -0.729   1.579   1.267  0.00  0.00    +0.110 C 
BRANCH  11  12
ATOM     12  C   LIG    1       -0.013   1.086   0.008  0.00  0.00    +0.060 C 
BRANCH  12  14
ATOM     13  C   LIG    1        0.092   1.010  -2.828  0.00  0.00    +0.140 C 
ATOM     14  S   LIG    1       -0.890   1.687  -1.462  0.00  0.00    -0.220 S 
ENDBRANCH  12  14
ENDBRANCH  11  12
ENDBRANCH   1  11
TORSDOF 5
