REMARK  Name = ZINCkj00000y7EmI.1
REMARK                            x       y       z     vdW  Elec       q    Type
REMARK                         _______ _______ _______ _____ _____    ______ ____
ROOT
ATOM      1  N   LIG    1        2.474   3.534   0.670  0.00  0.00    -0.380 N 
ATOM      2  C   LIG    1        1.186   3.105   0.087  0.00  0.00    +0.290 C 
ATOM      3  C   LIG    1        1.286   1.562  -0.002  0.00  0.00    +0.200 C 
ATOM      4  C   LIG    1        2.064   1.222   1.297  0.00  0.00    +0.060 C 
ATOM      5  C   LIG    1        3.041   2.410   1.437  0.00  0.00    +0.230 C 
ATOM      6  H   LIG    1        2.324   4.320   1.285  0.00  0.00    +0.430 HD
ENDROOT
BRANCH   5   7
ATOM      7  C   LIG    1        3.180   2.796   2.887  0.00  0.00    -0.110 A 
ATOM      8  C   LIG    1        4.298   2.407   3.601  0.00  0.00    +0.040 A 
ATOM      9  C   LIG    1        4.428   2.761   4.931  0.00  0.00    +0.080 A 
ATOM     10  C   LIG    1        3.439   3.504   5.548  0.00  0.00    +0.020 A 
ATOM     11  C   LIG    1        2.319   3.894   4.834  0.00  0.00    +0.120 A 
ATOM     12  F   LIG    1        1.352   4.621   5.436  0.00  0.00    -0.120 F 
ATOM     13  C   LIG    1        2.193   3.544   3.500  0.00  0.00    -0.030 A 
ENDBRANCH   5   7
BRANCH   3  14
ATOM     14  O   LIG    1       -0.011   0.963   0.007  0.00  0.00    -0.540 OA
ATOM     15  H   LIG    1        0.002  -0.004   0.002  0.00  0.00    +0.410 HD
ENDBRANCH   3  14
BRANCH   1  16
ATOM     16  C   LIG    1        3.401   3.917  -0.404  0.00  0.00    +0.240 C 
BRANCH  16  17
ATOM     17  C   LIG    1        2.875   5.170  -1.108  0.00  0.00    +0.210 C 
BRANCH  17  18
ATOM     18  O   LIG    1        2.882   6.268  -0.195  0.00  0.00    -0.540 OA
ATOM     19  H   LIG    1        3.758   6.483   0.155  0.00  0.00    +0.390 HD
ENDBRANCH  17  18
BRANCH  17  20
ATOM     20  C   LIG    1        3.772   5.496  -2.305  0.00  0.00    +0.160 C 
BRANCH  20  21
ATOM     21  O   LIG    1        3.217   6.595  -3.030  0.00  0.00    -0.380 OA
BRANCH  21  23
ATOM     22  C   LIG    1        3.297   8.160  -4.870  0.00  0.00    +0.060 C 
ATOM     23  C   LIG    1        3.981   6.982  -4.174  0.00  0.00    +0.160 C 
ENDBRANCH  21  23
ENDBRANCH  20  21
ENDBRANCH  17  20
ENDBRANCH  16  17
ENDBRANCH   1  16
TORSDOF 8
