REMARK  Name = ZINCkj00000y7EmI.0
REMARK                            x       y       z     vdW  Elec       q    Type
REMARK                         _______ _______ _______ _____ _____    ______ ____
ROOT
ATOM      1  N   LIG    1        1.915   3.329   0.617  0.00  0.00    -0.380 N 
ATOM      2  C   LIG    1        0.867   2.415   0.116  0.00  0.00    +0.290 C 
ATOM      3  C   LIG    1        1.534   1.017   0.106  0.00  0.00    +0.190 C 
ATOM      4  C   LIG    1        2.409   1.078   1.385  0.00  0.00    +0.060 C 
ATOM      5  C   LIG    1        2.876   2.548   1.417  0.00  0.00    +0.230 C 
ATOM      6  H   LIG    1        2.391   3.760  -0.161  0.00  0.00    +0.430 HD
ENDROOT
BRANCH   5   7
ATOM      7  C   LIG    1        2.893   3.054   2.837  0.00  0.00    -0.110 A 
ATOM      8  C   LIG    1        1.801   2.845   3.657  0.00  0.00    +0.020 A 
ATOM      9  C   LIG    1        1.814   3.308   4.960  0.00  0.00    +0.070 A 
ATOM     10  C   LIG    1        2.920   3.982   5.443  0.00  0.00    +0.030 A 
ATOM     11  C   LIG    1        4.015   4.192   4.621  0.00  0.00    +0.120 A 
ATOM     12  F   LIG    1        5.097   4.850   5.092  0.00  0.00    -0.120 F 
ATOM     13  C   LIG    1        4.002   3.723   3.319  0.00  0.00    +0.020 A 
ENDBRANCH   5   7
BRANCH   3  14
ATOM     14  O   LIG    1        0.554  -0.019   0.205  0.00  0.00    -0.540 OA
ATOM     15  H   LIG    1        0.924  -0.912   0.203  0.00  0.00    +0.410 HD
ENDBRANCH   3  14
BRANCH   1  16
ATOM     16  C   LIG    1        1.304   4.367   1.459  0.00  0.00    +0.230 C 
BRANCH  16  17
ATOM     17  C   LIG    1        0.427   5.275   0.594  0.00  0.00    +0.220 C 
BRANCH  17  18
ATOM     18  O   LIG    1       -0.667   4.520   0.070  0.00  0.00    -0.540 OA
ATOM     19  H   LIG    1       -1.239   4.133   0.747  0.00  0.00    +0.390 HD
ENDBRANCH  17  18
BRANCH  17  20
ATOM     20  C   LIG    1       -0.109   6.428   1.445  0.00  0.00    +0.160 C 
BRANCH  20  21
ATOM     21  O   LIG    1       -0.831   7.338   0.613  0.00  0.00    -0.380 OA
BRANCH  21  23
ATOM     22  C   LIG    1       -2.125   9.360   0.329  0.00  0.00    +0.060 C 
ATOM     23  C   LIG    1       -1.377   8.457   1.313  0.00  0.00    +0.160 C 
ENDBRANCH  21  23
ENDBRANCH  20  21
ENDBRANCH  17  20
ENDBRANCH  16  17
ENDBRANCH   1  16
TORSDOF 8
