REMARK  Name = ZINCvU0000000BNt.0
REMARK                            x       y       z     vdW  Elec       q    Type
REMARK                         _______ _______ _______ _____ _____    ______ ____
ROOT
ATOM      1  C   LIG    1        2.041   0.794  -0.077  0.00  0.00    +0.160 A 
ATOM      2  N   LIG    1        1.197   1.684   0.396  0.00  0.00    -0.290 NA
ATOM      3  N   LIG    1       -0.004   1.232   0.329  0.00  0.00    -0.260 NA
ATOM      4  C   LIG    1       -0.002   0.027  -0.190  0.00  0.00    +0.230 A 
ATOM      5  N   LIG    1        1.308  -0.291  -0.467  0.00  0.00    -0.450 N 
ENDROOT
BRANCH   4   6
ATOM      6  C   LIG    1       -1.184  -0.827  -0.433  0.00  0.00    -0.070 A 
ATOM      7  C   LIG    1       -1.094  -2.218  -0.306  0.00  0.00    +0.070 A 
ATOM      8  C   LIG    1       -2.230  -2.973  -0.544  0.00  0.00    -0.020 A 
ATOM      9  C   LIG    1       -3.405  -2.335  -0.896  0.00  0.00    +0.270 A 
ATOM     10  N   LIG    1       -3.460  -1.022  -1.009  0.00  0.00    -0.470 NA
ATOM     11  C   LIG    1       -2.409  -0.260  -0.788  0.00  0.00    +0.320 A 
ENDBRANCH   4   6
BRANCH   1  12
ATOM     12  S   LIG    1        3.790   0.968  -0.189  0.00  0.00    +0.020 S 
BRANCH  12  13
ATOM     13  C   LIG    1        3.986   2.628   0.505  0.00  0.00    +0.220 C 
BRANCH  13  16
ATOM     14  C   LIG    1        6.014   2.102   2.823  0.00  0.00    +0.200 C 
ATOM     15  C   LIG    1        6.318   2.774   1.509  0.00  0.00    -0.010 A 
ATOM     16  C   LIG    1        5.446   3.001   0.510  0.00  0.00    -0.010 A 
ATOM     17  N   LIG    1        6.105   3.625  -0.478  0.00  0.00    -0.450 NA
ATOM     18  C   LIG    1        7.359   3.780  -0.114  0.00  0.00    +0.270 A 
ATOM     19  O   LIG    1        7.515   3.256   1.115  0.00  0.00    -0.180 OA
BRANCH  18  20
ATOM     20  C   LIG    1        8.414   4.419  -0.915  0.00  0.00    -0.150 A 
ATOM     21  C   LIG    1        9.710   4.575  -0.529  0.00  0.00    +0.060 A 
ATOM     22  C   LIG    1       10.509   5.206  -1.457  0.00  0.00    +0.010 A 
ATOM     23  C   LIG    1        9.893   5.565  -2.588  0.00  0.00    -0.040 A 
ATOM     24  S   LIG    1        8.200   5.094  -2.525  0.00  0.00    +0.210 S 
ENDBRANCH  18  20
ENDBRANCH  13  16
ENDBRANCH  12  13
ENDBRANCH   1  12
BRANCH   5  25
ATOM     25  C   LIG    1        1.812  -1.535  -1.055  0.00  0.00    +0.360 C 
BRANCH  25  26
ATOM     26  C   LIG    1        1.733  -1.447  -2.557  0.00  0.00    -0.130 A 
ATOM     27  C   LIG    1        0.596  -1.874  -3.216  0.00  0.00    +0.020 A 
ATOM     28  C   LIG    1        0.522  -1.790  -4.594  0.00  0.00    +0.010 A 
ATOM     29  C   LIG    1        1.590  -1.288  -5.314  0.00  0.00    +0.030 A 
ATOM     30  C   LIG    1        2.730  -0.866  -4.655  0.00  0.00    +0.010 A 
ATOM     31  C   LIG    1        2.801  -0.946  -3.277  0.00  0.00    +0.040 A 
ENDBRANCH  25  26
ENDBRANCH   5  25
TORSDOF 7
