REMARK  Name = ZINCpk00000ebhWY.0
REMARK                            x       y       z     vdW  Elec       q    Type
REMARK                         _______ _______ _______ _____ _____    ______ ____
ROOT
ATOM      1  C   LIG    1        5.575   1.397  -0.045  0.00  0.00    +0.260 A 
ATOM      2  N   LIG    1        4.332   1.842  -0.030  0.00  0.00    -0.440 NA
ATOM      3  C   LIG    1        3.555   0.738  -0.029  0.00  0.00    +0.270 A 
ATOM      4  N   LIG    1        4.351  -0.300  -0.037  0.00  0.00    -0.380 NA
ATOM      5  O   LIG    1        5.510   0.057  -0.052  0.00  0.00    +0.090 OA
ENDROOT
BRANCH   1   9
ATOM      6  C   LIG    1        8.713   5.295  -0.054  0.00  0.00    +0.380 C 
ATOM      7  N   LIG    1        8.208   3.920  -0.056  0.00  0.00    -0.340 N 
ATOM      8  N   LIG    1        6.858   3.539  -0.050  0.00  0.00    -0.220 NA
ATOM      9  C   LIG    1        6.803   2.219  -0.052  0.00  0.00    +0.150 A 
ATOM     10  C   LIG    1        8.123   1.736  -0.068  0.00  0.00    -0.210 A 
ATOM     11  C   LIG    1        8.582   0.300  -0.084  0.00  0.00    +0.130 C 
ATOM     12  C   LIG    1       10.055   0.267  -0.512  0.00  0.00    +0.290 C 
ATOM     13  F   LIG    1       10.569  -1.018  -0.313  0.00  0.00    -0.190 F 
ATOM     14  F   LIG    1       10.154   0.605  -1.866  0.00  0.00    -0.190 F 
ATOM     15  C   LIG    1       10.852   1.271   0.325  0.00  0.00    +0.050 C 
ATOM     16  C   LIG    1       10.463   2.698  -0.080  0.00  0.00    +0.150 C 
ATOM     17  C   LIG    1        8.957   2.803  -0.069  0.00  0.00    +0.090 A 
ENDBRANCH   1   9
BRANCH   3  18
ATOM     18  C   LIG    1        2.071   0.709  -0.014  0.00  0.00    -0.180 A 
ATOM     19  C   LIG    1        1.287  -0.408  -0.012  0.00  0.00    +0.300 A 
ATOM     20  N   LIG    1        0.002  -0.004   0.002  0.00  0.00    -0.360 N 
ATOM     21  N   LIG    1       -0.017   1.396   0.010  0.00  0.00    -0.290 NA
ATOM     22  C   LIG    1        1.216   1.828   0.000  0.00  0.00    +0.300 A 
BRANCH  20  23
ATOM     23  C   LIG    1       -1.173  -0.879   0.009  0.00  0.00    +0.340 C 
BRANCH  23  24
ATOM     24  C   LIG    1       -2.065  -0.526   1.201  0.00  0.00    +0.180 C 
BRANCH  24  25
ATOM     25  O   LIG    1       -3.211  -1.379   1.207  0.00  0.00    -0.570 OA
ATOM     26  H   LIG    1       -3.822  -1.212   1.938  0.00  0.00    +0.390 HD
ENDBRANCH  24  25
ENDBRANCH  23  24
ENDBRANCH  20  23
ENDBRANCH   3  18
TORSDOF 5
