REMARK  Name = ZINCkj000005kGSj.1
REMARK                            x       y       z     vdW  Elec       q    Type
REMARK                         _______ _______ _______ _____ _____    ______ ____
ROOT
ATOM      1  C   LIG    1        5.641   1.992   0.908  0.00  0.00    +0.580 C 
ATOM      2  N   LIG    1        4.479   1.705   0.288  0.00  0.00    -0.730 N 
ATOM      3  H   LIG    1        4.281   2.098  -0.576  0.00  0.00    +0.400 HD
ATOM      4  O   LIG    1        5.890   1.500   1.992  0.00  0.00    -0.530 OA
ENDROOT
BRANCH   1   7
ATOM      5  C   LIG    1        7.997   2.784   2.347  0.00  0.00    +0.160 C 
ATOM      6  C   LIG    1        7.748   3.292   0.950  0.00  0.00    +0.260 A 
ATOM      7  C   LIG    1        6.611   2.903   0.272  0.00  0.00    -0.280 A 
ATOM      8  C   LIG    1        6.380   3.389  -1.038  0.00  0.00    +0.130 A 
ATOM      9  C   LIG    1        7.291   4.228  -1.600  0.00  0.00    -0.080 A 
ATOM     10  C   LIG    1        8.439   4.593  -0.872  0.00  0.00    +0.520 A 
ATOM     11  O   LIG    1        9.259   5.344  -1.372  0.00  0.00    -0.530 OA
ATOM     12  N   LIG    1        8.639   4.118   0.371  0.00  0.00    -0.600 N 
ATOM     13  H   LIG    1        9.435   4.379   0.859  0.00  0.00    +0.420 HD
ENDBRANCH   1   7
BRANCH   2  14
ATOM     14  C   LIG    1        3.516   0.801   0.920  0.00  0.00    +0.290 C 
BRANCH  14  15
ATOM     15  C   LIG    1        2.292   0.645   0.015  0.00  0.00    -0.010 C 
ATOM     16  C   LIG    1        1.450   1.942   0.007  0.00  0.00    +0.080 C 
ATOM     17  C   LIG    1       -0.016   1.469   0.020  0.00  0.00    +0.250 C 
ATOM     18  N   LIG    1        0.005  -0.009   0.005  0.00  0.00    -0.370 N 
ATOM     19  H   LIG    1       -0.065  -0.349  -0.943  0.00  0.00    +0.420 HD
ATOM     20  C   LIG    1        1.310  -0.402   0.596  0.00  0.00    +0.290 C 
BRANCH  18  21
ATOM     21  C   LIG    1       -1.099  -0.540   0.816  0.00  0.00    +0.100 C 
ATOM     22  C   LIG    1       -1.989  -1.611   0.183  0.00  0.00    +0.100 C 
ATOM     23  C   LIG    1       -2.525  -0.191   0.383  0.00  0.00    +0.100 C 
ENDBRANCH  18  21
ENDBRANCH  14  15
ENDBRANCH   2  14
TORSDOF 4
