REMARK  Name = ZINCkj000005kGSj.0
REMARK                            x       y       z     vdW  Elec       q    Type
REMARK                         _______ _______ _______ _____ _____    ______ ____
ROOT
ATOM      1  C   LIG    1       -5.354   3.131   2.210  0.00  0.00    +0.590 C 
ATOM      2  N   LIG    1       -4.126   3.316   1.686  0.00  0.00    -0.730 N 
ATOM      3  H   LIG    1       -4.005   3.918   0.935  0.00  0.00    +0.400 HD
ATOM      4  O   LIG    1       -5.505   2.376   3.151  0.00  0.00    -0.530 OA
ENDROOT
BRANCH   1   7
ATOM      5  C   LIG    1       -7.996   2.512   3.148  0.00  0.00    +0.160 C 
ATOM      6  C   LIG    1       -7.789   3.558   2.083  0.00  0.00    +0.260 A 
ATOM      7  C   LIG    1       -6.513   3.844   1.643  0.00  0.00    -0.280 A 
ATOM      8  C   LIG    1       -6.325   4.832   0.645  0.00  0.00    +0.130 A 
ATOM      9  C   LIG    1       -7.412   5.470   0.136  0.00  0.00    -0.080 A 
ATOM     10  C   LIG    1       -8.695   5.145   0.616  0.00  0.00    +0.520 A 
ATOM     11  O   LIG    1       -9.673   5.718   0.166  0.00  0.00    -0.530 OA
ATOM     12  N   LIG    1       -8.850   4.207   1.569  0.00  0.00    -0.600 N 
ATOM     13  H   LIG    1       -9.741   3.995   1.889  0.00  0.00    +0.420 HD
ENDBRANCH   1   7
BRANCH   2  14
ATOM     14  C   LIG    1       -2.974   2.608   2.250  0.00  0.00    +0.290 C 
BRANCH  14  15
ATOM     15  C   LIG    1       -1.711   2.993   1.478  0.00  0.00    +0.000 C 
ATOM     16  C   LIG    1       -1.723   2.367   0.058  0.00  0.00    +0.080 C 
ATOM     17  C   LIG    1       -0.212   2.276  -0.255  0.00  0.00    +0.270 C 
ATOM     18  N   LIG    1        0.424   1.922   1.031  0.00  0.00    -0.360 N 
ATOM     19  H   LIG    1        0.557   0.923   1.081  0.00  0.00    +0.430 HD
ATOM     20  C   LIG    1       -0.461   2.360   2.126  0.00  0.00    +0.270 C 
BRANCH  18  21
ATOM     21  C   LIG    1        1.722   2.600   1.144  0.00  0.00    +0.100 C 
ATOM     22  C   LIG    1        2.979   1.728   1.122  0.00  0.00    +0.100 C 
ATOM     23  C   LIG    1        2.525   2.382   2.428  0.00  0.00    +0.090 C 
ENDBRANCH  18  21
ENDBRANCH  14  15
ENDBRANCH   2  14
TORSDOF 4
