REMARK  Name = ZINCrH000004jTzX.0
REMARK                            x       y       z     vdW  Elec       q    Type
REMARK                         _______ _______ _______ _____ _____    ______ ____
ROOT
ATOM      1  C   LIG    1       -1.453  -4.343  -1.032  0.00  0.00    -0.270 A 
ATOM      2  C   LIG    1       -1.473  -5.054   0.152  0.00  0.00    +0.270 A 
ATOM      3  N   LIG    1       -1.638  -6.352  -0.162  0.00  0.00    -0.310 N 
ATOM      4  N   LIG    1       -1.722  -6.464  -1.554  0.00  0.00    -0.280 NA
ATOM      5  C   LIG    1       -1.618  -5.276  -2.081  0.00  0.00    +0.150 A 
ENDROOT
BRANCH   3   6
ATOM      6  C   LIG    1       -1.712  -7.412   0.752  0.00  0.00    +0.150 A 
ATOM      7  C   LIG    1       -1.607  -7.165   2.115  0.00  0.00    -0.010 A 
ATOM      8  C   LIG    1       -1.686  -8.211   3.013  0.00  0.00    +0.040 A 
ATOM      9  C   LIG    1       -1.857  -9.505   2.556  0.00  0.00    +0.010 A 
ATOM     10  C   LIG    1       -1.956  -9.755   1.200  0.00  0.00    +0.040 A 
ATOM     11  C   LIG    1       -1.884  -8.712   0.297  0.00  0.00    +0.030 A 
ENDBRANCH   3   6
BRANCH   1  14
ATOM     12  C   LIG    1        0.586  -2.992   0.371  0.00  0.00    +0.270 C 
ATOM     13  N   LIG    1       -0.355  -2.236  -0.458  0.00  0.00    -0.610 N 
ATOM     14  C   LIG    1       -1.294  -2.885  -1.175  0.00  0.00    +0.600 C 
ATOM     15  O   LIG    1       -2.010  -2.267  -1.939  0.00  0.00    -0.520 OA
BRANCH  13  16
ATOM     16  C   LIG    1       -0.276  -0.774  -0.508  0.00  0.00    +0.300 C 
BRANCH  16  17
ATOM     17  C   LIG    1        0.663  -0.353  -1.640  0.00  0.00    -0.010 C 
ATOM     18  C   LIG    1        2.085  -0.825  -1.326  0.00  0.00    +0.010 C 
ATOM     19  C   LIG    1        3.024  -0.403  -2.458  0.00  0.00    +0.000 C 
ATOM     20  C   LIG    1        3.010   1.121  -2.592  0.00  0.00    +0.000 C 
ATOM     21  C   LIG    1        1.589   1.593  -2.906  0.00  0.00    -0.020 C 
ATOM     22  C   LIG    1        0.650   1.172  -1.774  0.00  0.00    +0.160 C 
BRANCH  22  23
ATOM     23  O   LIG    1       -0.677   1.612  -2.067  0.00  0.00    -0.560 OA
ATOM     24  H   LIG    1       -0.761   2.571  -2.165  0.00  0.00    +0.380 HD
ENDBRANCH  22  23
ENDBRANCH  16  17
ENDBRANCH  13  16
ENDBRANCH   1  14
BRANCH   5  25
ATOM     25  C   LIG    1       -1.663  -4.953  -3.553  0.00  0.00    +0.010 C 
ATOM     26  C   LIG    1       -2.942  -4.173  -3.865  0.00  0.00    +0.050 C 
ATOM     27  C   LIG    1       -1.649  -6.253  -4.360  0.00  0.00    +0.040 C 
ATOM     28  C   LIG    1       -0.445  -4.107  -3.927  0.00  0.00    +0.040 C 
ENDBRANCH   5  25
TORSDOF 6
