REMARK  Name = ZINCnE000001Gy1r.0
REMARK                            x       y       z     vdW  Elec       q    Type
REMARK                         _______ _______ _______ _____ _____    ______ ____
ROOT
ATOM      1  N   LIG    1       -2.550   4.726  -1.330  0.00  0.00    -0.530 NA
ATOM      2  C   LIG    1       -1.528   5.421  -2.124  0.00  0.00    +0.200 C 
ENDROOT
BRANCH   1   3
ATOM      3  C   LIG    1       -2.084   4.499   0.045  0.00  0.00    +0.270 C 
BRANCH   3   6
ATOM      4  C   LIG    1       -0.018   1.503   0.010  0.00  0.00    +0.050 A 
ATOM      5  N   LIG    1       -1.086   2.227   0.019  0.00  0.00    -0.450 NA
ATOM      6  C   LIG    1       -0.925   3.535   0.029  0.00  0.00    +0.090 A 
ATOM      7  C   LIG    1        0.349   3.936   0.019  0.00  0.00    -0.080 A 
ATOM      8  S   LIG    1        1.370   2.500   0.002  0.00  0.00    +0.150 S 
BRANCH   4   9
ATOM      9  C   LIG    1        0.002  -0.004   0.002  0.00  0.00    +0.250 C 
ATOM     10  C   LIG    1        0.395  -0.516   1.389  0.00  0.00    +0.040 C 
BRANCH   9  11
ATOM     11  O   LIG    1        0.952  -0.462  -0.962  0.00  0.00    -0.380 OA
BRANCH  11  13
ATOM     12  C   LIG    1        1.704  -2.113  -2.559  0.00  0.00    +0.040 C 
ATOM     13  C   LIG    1        0.624  -1.723  -1.548  0.00  0.00    +0.170 C 
ENDBRANCH  11  13
ENDBRANCH   9  11
ENDBRANCH   4   9
ENDBRANCH   3   6
ENDBRANCH   1   3
BRANCH   1  14
ATOM     14  C   LIG    1       -3.818   5.468  -1.339  0.00  0.00    +0.300 C 
BRANCH  14  15
ATOM     15  C   LIG    1       -4.388   5.470  -2.735  0.00  0.00    -0.050 A 
ATOM     16  C   LIG    1       -5.223   4.547  -3.234  0.00  0.00    +0.000 A 
ATOM     17  C   LIG    1       -5.505   4.963  -4.617  0.00  0.00    -0.230 A 
ATOM     18  C   LIG    1       -4.794   6.115  -4.805  0.00  0.00    +0.010 A 
ATOM     19  C   LIG    1       -4.755   6.931  -6.072  0.00  0.00    +0.180 C 
ATOM     20  O   LIG    1       -4.144   6.398  -3.673  0.00  0.00    -0.190 OA
BRANCH  17  21
ATOM     21  C   LIG    1       -6.370   4.283  -5.591  0.00  0.00    +0.550 C 
ATOM     22  O   LIG    1       -6.511   4.749  -6.714  0.00  0.00    -0.690 OA
ATOM     23  O   LIG    1       -6.948   3.251  -5.280  0.00  0.00    -0.690 OA
ENDBRANCH  17  21
ENDBRANCH  14  15
ENDBRANCH   1  14
TORSDOF 8
