REMARK  Name = ZINCqH0000007Qrz.0
REMARK                            x       y       z     vdW  Elec       q    Type
REMARK                         _______ _______ _______ _____ _____    ______ ____
ROOT
ATOM      1  C   LIG    1        1.764   2.097   0.015  0.00  0.00    +0.020 C 
ATOM      2  C   LIG    1        2.396   1.598   1.315  0.00  0.00    +0.080 C 
ENDROOT
BRANCH   1   5
ATOM      3  N   LIG    1        3.135   4.047  -0.646  0.00  0.00    -0.650 N 
ATOM      4  H   LIG    1        3.843   3.430  -0.885  0.00  0.00    +0.420 HD
ATOM      5  C   LIG    1        1.987   3.582  -0.115  0.00  0.00    +0.540 C 
ATOM      6  O   LIG    1        1.133   4.358   0.259  0.00  0.00    -0.510 OA
BRANCH   3  12
ATOM      7  C   LIG    1        4.034   5.880  -1.948  0.00  0.00    +0.110 A 
ATOM      8  C   LIG    1        4.193   7.240  -2.151  0.00  0.00    -0.060 A 
ATOM      9  C   LIG    1        3.639   8.142  -1.261  0.00  0.00    +0.040 A 
ATOM     10  C   LIG    1        2.920   7.689  -0.171  0.00  0.00    -0.010 A 
ATOM     11  C   LIG    1        2.751   6.333   0.035  0.00  0.00    +0.070 A 
ATOM     12  C   LIG    1        3.304   5.423  -0.853  0.00  0.00    +0.110 A 
BRANCH   7  14
ATOM     13  C   LIG    1        5.318   5.532  -3.919  0.00  0.00    +0.250 C 
ATOM     14  O   LIG    1        4.584   4.992  -2.819  0.00  0.00    -0.320 OA
ENDBRANCH   7  14
ENDBRANCH   3  12
ENDBRANCH   1   5
BRANCH   1  15
ATOM     15  S   LIG    1       -0.013   1.754   0.038  0.00  0.00    +0.080 S 
BRANCH  15  16
ATOM     16  C   LIG    1        0.015  -0.008   0.041  0.00  0.00    +0.140 A 
ATOM     17  N   LIG    1        1.083  -0.771   0.024  0.00  0.00    -0.290 NA
ATOM     18  N   LIG    1        0.736  -2.009   0.035  0.00  0.00    -0.280 NA
ATOM     19  C   LIG    1       -0.563  -2.108   0.052  0.00  0.00    +0.390 A 
ATOM     20  N   LIG    1       -1.069  -0.838   0.056  0.00  0.00    -0.460 N 
BRANCH  20  21
ATOM     21  C   LIG    1       -2.481  -0.448   0.074  0.00  0.00    +0.320 C 
BRANCH  21  22
ATOM     22  C   LIG    1       -2.958  -0.193  -1.357  0.00  0.00    +0.120 C 
BRANCH  22  23
ATOM     23  C   LIG    1       -4.410   0.208  -1.339  0.00  0.00    -0.190 A 
ATOM     24  C   LIG    1       -4.861   1.460  -1.240  0.00  0.00    +0.020 A 
ATOM     25  C   LIG    1       -6.240   1.585  -1.245  0.00  0.00    +0.000 A 
ATOM     26  C   LIG    1       -6.908   0.435  -1.347  0.00  0.00    -0.040 A 
ATOM     27  S   LIG    1       -5.770  -0.901  -1.453  0.00  0.00    +0.100 S 
ENDBRANCH  22  23
ENDBRANCH  21  22
ENDBRANCH  20  21
ENDBRANCH  15  16
ENDBRANCH   1  15
TORSDOF 8
