REMARK  Name = ZINCtV000002OTui.0
REMARK                            x       y       z     vdW  Elec       q    Type
REMARK                         _______ _______ _______ _____ _____    ______ ____
ROOT
ATOM      1  C   LIG    1        3.642   2.155  -0.021  0.00  0.00    -0.070 A 
ATOM      2  C   LIG    1        4.805   1.399  -0.050  0.00  0.00    +0.070 A 
ATOM      3  C   LIG    1        4.717  -0.002  -0.055  0.00  0.00    +0.190 A 
ATOM      4  N   LIG    1        3.563  -0.634  -0.035  0.00  0.00    -0.440 NA
ATOM      5  C   LIG    1        2.396   0.012  -0.007  0.00  0.00    +0.130 A 
ATOM      6  C   LIG    1        1.178  -0.691   0.015  0.00  0.00    +0.050 A 
ATOM      7  C   LIG    1        0.003  -0.004   0.043  0.00  0.00    +0.040 A 
ATOM      8  C   LIG    1       -0.016   1.388   0.051  0.00  0.00    +0.030 A 
ATOM      9  C   LIG    1        1.145   2.103   0.031  0.00  0.00    +0.050 A 
ATOM     10  C   LIG    1        2.371   1.429   0.001  0.00  0.00    -0.060 A 
ENDROOT
BRANCH   3  11
ATOM     11  C   LIG    1        5.968  -0.797  -0.085  0.00  0.00    -0.050 A 
ATOM     12  C   LIG    1        7.205  -0.154  -0.113  0.00  0.00    +0.050 A 
ATOM     13  C   LIG    1        8.366  -0.899  -0.136  0.00  0.00    +0.030 A 
ATOM     14  C   LIG    1        8.305  -2.282  -0.141  0.00  0.00    -0.020 A 
ATOM     15  C   LIG    1        7.078  -2.925  -0.119  0.00  0.00    +0.030 A 
ATOM     16 CL   LIG    1        9.769  -3.214  -0.176  0.00  0.00    -0.060 Cl
ATOM     17  C   LIG    1        5.912  -2.190  -0.092  0.00  0.00    +0.090 A 
ENDBRANCH   3  11
BRANCH   1  19
ATOM     18  O   LIG    1        2.653   4.269  -0.093  0.00  0.00    -0.490 OA
ATOM     19  C   LIG    1        3.684   3.632  -0.014  0.00  0.00    +0.520 C 
BRANCH  19  20
ATOM     20  O   LIG    1        4.866   4.271   0.080  0.00  0.00    -0.350 OA
BRANCH  20  21
ATOM     21  C   LIG    1        4.832   5.723   0.082  0.00  0.00    +0.230 C 
BRANCH  21  22
ATOM     22  C   LIG    1        6.258   6.266   0.195  0.00  0.00    +0.050 C 
BRANCH  22  23
ATOM     23  C   LIG    1        6.222   7.796   0.196  0.00  0.00    +0.080 C 
BRANCH  23  24
ATOM     24  C   LIG    1        7.626   8.331   0.308  0.00  0.00    -0.080 A 
ATOM     25  C   LIG    1        8.175   8.579   1.552  0.00  0.00    +0.000 A 
ATOM     26  C   LIG    1        9.465   9.065   1.654  0.00  0.00    +0.000 A 
ATOM     27  C   LIG    1       10.202   9.314   0.512  0.00  0.00    +0.000 A 
ATOM     28  C   LIG    1        9.652   9.071  -0.733  0.00  0.00    +0.000 A 
ATOM     29  C   LIG    1        8.364   8.580  -0.835  0.00  0.00    +0.000 A 
ENDBRANCH  23  24
ENDBRANCH  22  23
ENDBRANCH  21  22
ENDBRANCH  20  21
ENDBRANCH  19  20
ENDBRANCH   1  19
TORSDOF 7
