REMARK  Name = ZINCpk00000jXOMU.0
REMARK                            x       y       z     vdW  Elec       q    Type
REMARK                         _______ _______ _______ _____ _____    ______ ____
ROOT
ATOM      1  N   LIG    1       -0.913   1.796  -1.471  0.00  0.00    -0.520 NA
ATOM      2  C   LIG    1       -2.264   1.395  -1.847  0.00  0.00    +0.160 C 
ATOM      3  C   LIG    1       -2.775   2.064  -3.108  0.00  0.00    +0.030 C 
ATOM      4  C   LIG    1       -1.978   1.599  -4.330  0.00  0.00    +0.270 C 
ATOM      5  N   LIG    1       -0.776   2.442  -4.449  0.00  0.00    -0.720 N 
ATOM      6  H   LIG    1       -0.699   3.080  -5.175  0.00  0.00    +0.400 HD
ATOM      7  C   LIG    1        0.209   2.325  -3.553  0.00  0.00    +0.540 C 
ATOM      8  O   LIG    1        1.195   3.025  -3.644  0.00  0.00    -0.540 OA
ATOM      9  C   LIG    1        0.098   1.321  -2.425  0.00  0.00    +0.200 C 
ENDROOT
BRANCH   1  10
ATOM     10  C   LIG    1       -0.595   1.359  -0.105  0.00  0.00    +0.270 C 
BRANCH  10  15
ATOM     11  C   LIG    1       -1.992   3.886   2.184  0.00  0.00    +0.560 A 
ATOM     12  N   LIG    1       -3.114   3.331   2.619  0.00  0.00    -0.570 NA
ATOM     13  C   LIG    1       -3.479   2.129   2.204  0.00  0.00    +0.360 A 
ATOM     14  C   LIG    1       -2.671   1.450   1.305  0.00  0.00    -0.150 A 
ATOM     15  C   LIG    1       -1.504   2.059   0.871  0.00  0.00    +0.230 A 
ATOM     16  N   LIG    1       -1.196   3.261   1.329  0.00  0.00    -0.550 NA
BRANCH  11  18
ATOM     17  C   LIG    1       -2.506   5.848   3.590  0.00  0.00    +0.300 C 
ATOM     18  N   LIG    1       -1.641   5.145   2.639  0.00  0.00    -0.590 N 
ATOM     19  C   LIG    1       -0.404   5.774   2.171  0.00  0.00    +0.300 C 
ENDBRANCH  11  18
ENDBRANCH  10  15
ENDBRANCH   1  10
BRANCH   9  20
ATOM     20  C   LIG    1       -0.324  -0.038  -2.986  0.00  0.00    +0.060 C 
BRANCH  20  21
ATOM     21  C   LIG    1        0.186  -1.133  -2.085  0.00  0.00    -0.090 A 
ATOM     22  C   LIG    1        1.483  -1.593  -2.223  0.00  0.00    +0.010 A 
ATOM     23  C   LIG    1        1.952  -2.594  -1.393  0.00  0.00    +0.010 A 
ATOM     24  C   LIG    1        1.122  -3.143  -0.434  0.00  0.00    +0.000 A 
ATOM     25  C   LIG    1       -0.176  -2.688  -0.300  0.00  0.00    +0.010 A 
ATOM     26  C   LIG    1       -0.644  -1.682  -1.126  0.00  0.00    +0.000 A 
ENDBRANCH  20  21
ENDBRANCH   9  20
TORSDOF 5
