REMARK  Name = ZINCqH0000007hpN.0
REMARK                            x       y       z     vdW  Elec       q    Type
REMARK                         _______ _______ _______ _____ _____    ______ ____
ROOT
ATOM      1  N   LIG    1       -1.419   0.512   2.978  0.00  0.00    -0.590 N 
ATOM      2  C   LIG    1       -1.620   0.768   1.666  0.00  0.00    +0.510 C 
ATOM      3  C   LIG    1       -0.711   1.896   1.267  0.00  0.00    +0.060 C 
ATOM      4  N   LIG    1        0.289   2.011   2.340  0.00  0.00    -0.630 NA
ATOM      5  H   LIG    1        1.117   1.477   2.122  0.00  0.00    +0.350 HD
ATOM      6  C   LIG    1       -0.048   1.638  -0.090  0.00  0.00    +0.050 C 
ATOM      7  C   LIG    1       -0.872   2.419  -1.132  0.00  0.00    +0.020 C 
ATOM      8  C   LIG    1       -2.018   3.108  -0.360  0.00  0.00    +0.010 C 
ATOM      9  C   LIG    1       -1.492   3.211   1.095  0.00  0.00    +0.080 C 
ATOM     10  O   LIG    1       -2.397   0.188   0.938  0.00  0.00    -0.480 OA
ATOM     11  C   LIG    1       -0.417   1.442   3.514  0.00  0.00    +0.500 C 
ENDROOT
BRANCH   1  15
ATOM     12  C   LIG    1       -3.349  -2.471   5.167  0.00  0.00    +0.110 A 
ATOM     13  C   LIG    1       -2.464  -2.814   4.158  0.00  0.00    -0.020 A 
ATOM     14  C   LIG    1       -1.825  -1.826   3.433  0.00  0.00    +0.030 A 
ATOM     15  C   LIG    1       -2.068  -0.488   3.714  0.00  0.00    +0.180 A 
ATOM     16  C   LIG    1       -2.951  -0.142   4.729  0.00  0.00    -0.030 A 
ATOM     17  C   LIG    1       -3.595  -1.131   5.451  0.00  0.00    +0.110 A 
BRANCH  12  19
ATOM     18  C   LIG    1       -3.678  -4.798   5.534  0.00  0.00    +0.240 C 
ATOM     19  O   LIG    1       -3.978  -3.445   5.880  0.00  0.00    -0.310 OA
ENDBRANCH  12  19
BRANCH  17  20
ATOM     20  O   LIG    1       -4.464  -0.794   6.442  0.00  0.00    -0.300 OA
ATOM     21  C   LIG    1       -4.669   0.600   6.678  0.00  0.00    +0.230 C 
ENDBRANCH  17  20
ENDBRANCH   1  15
BRANCH  11  22
ATOM     22  C   LIG    1        0.556   0.704   4.397  0.00  0.00    +0.010 A 
ATOM     23  N   LIG    1        0.253  -0.294   5.157  0.00  0.00    -0.430 NA
ATOM     24  C   LIG    1        1.228  -0.830   5.863  0.00  0.00    +0.120 A 
ATOM     25  C   LIG    1        2.419  -0.243   5.697  0.00  0.00    -0.060 A 
ATOM     26 CL   LIG    1        0.986  -2.180   6.926  0.00  0.00    +0.000 Cl
ATOM     27  S   LIG    1        2.219   1.072   4.542  0.00  0.00    +0.220 S 
ENDBRANCH  11  22
TORSDOF 4
