REMARK  Name = ZINCrH000004svk7.0
REMARK                            x       y       z     vdW  Elec       q    Type
REMARK                         _______ _______ _______ _____ _____    ______ ____
ROOT
ATOM      1  C   LIG    1        1.164   3.481   0.010  0.00  0.00    +0.390 A 
ATOM      2  C   LIG    1       -0.058   4.191  -0.126  0.00  0.00    -0.150 A 
ATOM      3  C   LIG    1       -1.239   3.453  -0.111  0.00  0.00    +0.090 A 
ATOM      4  S   LIG    1       -2.611   4.533  -0.295  0.00  0.00    +0.170 S 
ATOM      5  C   LIG    1       -1.578   5.950  -0.388  0.00  0.00    -0.170 A 
ATOM      6  C   LIG    1       -2.088   7.370  -0.562  0.00  0.00    +0.120 C 
ATOM      7  C   LIG    1       -0.971   8.346  -0.185  0.00  0.00    +0.020 C 
ATOM      8  C   LIG    1        0.309   7.945  -0.924  0.00  0.00    +0.020 C 
ATOM      9  C   LIG    1        0.842   6.640  -0.330  0.00  0.00    +0.120 C 
ATOM     10  N   LIG    1       -1.176   2.121   0.026  0.00  0.00    -0.480 NA
ATOM     11  C   LIG    1       -0.021   1.510   0.154  0.00  0.00    +0.380 A 
ATOM     12  C   LIG    1       -0.290   5.621  -0.286  0.00  0.00    -0.050 A 
ATOM     13  N   LIG    1        1.126   2.164   0.145  0.00  0.00    -0.540 NA
ENDROOT
BRANCH   1  22
ATOM     14  C   LIG    1        8.287   3.793  -1.146  0.00  0.00    +0.190 C 
ATOM     15  C   LIG    1        6.966   3.830  -0.422  0.00  0.00    +0.410 A 
ATOM     16  N   LIG    1        5.860   3.716  -1.107  0.00  0.00    -0.520 NA
ATOM     17  C   LIG    1        4.665   3.744  -0.513  0.00  0.00    +0.180 A 
ATOM     18  C   LIG    1        4.587   3.895   0.839  0.00  0.00    -0.280 A 
ATOM     19  C   LIG    1        5.778   4.018   1.580  0.00  0.00    +0.550 A 
ATOM     20  O   LIG    1        5.748   4.155   2.792  0.00  0.00    -0.530 OA
ATOM     21  C   LIG    1        3.133   3.893   1.246  0.00  0.00    +0.290 C 
ATOM     22  N   LIG    1        2.373   4.153   0.002  0.00  0.00    -0.450 N 
ATOM     23  C   LIG    1        3.261   3.634  -1.063  0.00  0.00    +0.300 C 
ATOM     24  N   LIG    1        6.955   3.982   0.917  0.00  0.00    -0.630 N 
ATOM     25  H   LIG    1        7.789   4.065   1.404  0.00  0.00    +0.420 HD
ENDBRANCH   1  22
BRANCH  11  26
ATOM     26  C   LIG    1       -0.004   0.011   0.312  0.00  0.00    +0.020 C 
ATOM     27  C   LIG    1       -1.326  -0.735   0.117  0.00  0.00    +0.060 C 
ATOM     28  C   LIG    1       -0.734  -0.581   1.520  0.00  0.00    +0.060 C 
ENDBRANCH  11  26
TORSDOF 2
