REMARK  Name = ZINCrH000004joP8.0
REMARK                            x       y       z     vdW  Elec       q    Type
REMARK                         _______ _______ _______ _____ _____    ______ ____
ROOT
ATOM      1  C   LIG    1       -2.166   2.137   0.030  0.00  0.00    +0.310 C 
ATOM      2  C   LIG    1       -2.609   2.676   1.407  0.00  0.00    +0.060 C 
ATOM      3  C   LIG    1       -4.104   3.030   1.174  0.00  0.00    +0.040 C 
ATOM      4  C   LIG    1       -4.082   3.534  -0.291  0.00  0.00    +0.280 C 
ATOM      5  N   LIG    1       -3.100   2.671  -0.972  0.00  0.00    -0.590 N 
ATOM      6  C   LIG    1       -3.064   2.414  -2.295  0.00  0.00    +0.580 C 
ATOM      7  O   LIG    1       -3.886   2.920  -3.035  0.00  0.00    -0.520 OA
ENDROOT
BRANCH   1  16
ATOM      8  N   LIG    1        0.353   1.839  -0.153  0.00  0.00    -0.490 N 
ATOM      9  C   LIG    1        1.427   2.619  -0.531  0.00  0.00    +0.060 A 
ATOM     10  C   LIG    1        2.795   2.404  -0.621  0.00  0.00    +0.010 A 
ATOM     11  C   LIG    1        3.621   3.422  -1.047  0.00  0.00    +0.030 A 
ATOM     12  C   LIG    1        3.093   4.660  -1.386  0.00  0.00    +0.000 A 
ATOM     13  C   LIG    1        1.749   4.890  -1.304  0.00  0.00    +0.070 A 
ATOM     14  C   LIG    1        0.893   3.873  -0.875  0.00  0.00    +0.040 A 
ATOM     15  N   LIG    1       -0.450   3.794  -0.693  0.00  0.00    -0.470 NA
ATOM     16  C   LIG    1       -0.766   2.602  -0.276  0.00  0.00    +0.260 A 
BRANCH   8  18
ATOM     17  C   LIG    1        0.687   0.399   1.796  0.00  0.00    +0.040 C 
ATOM     18  C   LIG    1        0.408   0.444   0.292  0.00  0.00    +0.290 C 
ENDBRANCH   8  18
ENDBRANCH   1  16
BRANCH   6  19
ATOM     19  C   LIG    1       -2.026   1.518  -2.846  0.00  0.00    -0.090 A 
ATOM     20  C   LIG    1       -1.188   0.804  -1.987  0.00  0.00    +0.010 A 
ATOM     21  C   LIG    1       -0.224  -0.034  -2.508  0.00  0.00    +0.080 A 
ATOM     22  C   LIG    1       -0.080  -0.161  -3.878  0.00  0.00    -0.430 A 
ATOM     23  C   LIG    1       -0.904   0.547  -4.735  0.00  0.00    +0.080 A 
ATOM     24  C   LIG    1       -1.875   1.385  -4.227  0.00  0.00    +0.070 A 
BRANCH  22  25
ATOM     25  S   LIG    1        1.159  -1.228  -4.535  0.00  0.00    +1.330 S 
ATOM     26  O   LIG    1        0.660  -1.539  -5.828  0.00  0.00    -0.850 OA
ATOM     27  C   LIG    1        2.599  -0.135  -4.689  0.00  0.00    -0.200 C 
ENDBRANCH  22  25
ENDBRANCH   6  19
TORSDOF 4
