REMARK  Name = ZINCpk00000y6tQ2.0
REMARK                            x       y       z     vdW  Elec       q    Type
REMARK                         _______ _______ _______ _____ _____    ______ ____
ROOT
ATOM      1  C   LIG    1        1.755  -1.848  -0.024  0.00  0.00    +0.210 C 
ATOM      2  C   LIG    1        0.561  -2.838   0.017  0.00  0.00    +0.090 C 
ATOM      3  C   LIG    1        1.176  -4.094   0.670  0.00  0.00    +0.260 C 
ATOM      4  N   LIG    1        2.359  -3.658   1.425  0.00  0.00    -0.610 N 
ATOM      5  C   LIG    1        3.186  -4.462   2.123  0.00  0.00    +0.540 C 
ATOM      6  O   LIG    1        4.137  -3.991   2.711  0.00  0.00    -0.510 OA
ATOM      7  C   LIG    1        2.492  -2.196   1.293  0.00  0.00    +0.270 C 
ENDROOT
BRANCH   1  10
ATOM      8  N   LIG    1        1.187   1.742   0.000  0.00  0.00    -0.280 N 
ATOM      9  C   LIG    1        2.042   0.694  -0.014  0.00  0.00    +0.160 A 
ATOM     10  C   LIG    1        1.274  -0.420  -0.012  0.00  0.00    -0.050 A 
ATOM     11  N   LIG    1        0.002  -0.004   0.002  0.00  0.00    -0.250 NA
ATOM     12  N   LIG    1       -0.015   1.282   0.009  0.00  0.00    -0.080 NA
BRANCH   8  14
ATOM     13  C   LIG    1        1.830   3.611   1.440  0.00  0.00    +0.060 C 
ATOM     14  C   LIG    1        1.564   3.158   0.004  0.00  0.00    +0.250 C 
ATOM     15  C   LIG    1        2.829   3.351  -0.835  0.00  0.00    +0.060 C 
ENDBRANCH   8  14
ENDBRANCH   1  10
BRANCH   1  16
ATOM     16  O   LIG    1        2.589  -2.095  -1.158  0.00  0.00    -0.530 OA
ATOM     17  H   LIG    1        3.374  -1.533  -1.199  0.00  0.00    +0.380 HD
ENDBRANCH   1  16
BRANCH   5  18
ATOM     18  C   LIG    1        2.929  -5.946   2.172  0.00  0.00    +0.250 C 
BRANCH  18  19
ATOM     19  O   LIG    1        3.934  -6.578   2.967  0.00  0.00    -0.290 OA
BRANCH  19  20
ATOM     20  C   LIG    1        3.848  -7.926   3.115  0.00  0.00    +0.120 A 
ATOM     21  C   LIG    1        2.813  -8.626   2.511  0.00  0.00    -0.040 A 
ATOM     22  C   LIG    1        2.729  -9.997   2.658  0.00  0.00    +0.030 A 
ATOM     23  C   LIG    1        3.672 -10.671   3.416  0.00  0.00    +0.060 A 
ATOM     24  C   LIG    1        4.702  -9.974   4.023  0.00  0.00    +0.030 A 
ATOM     25  F   LIG    1        3.586 -12.012   3.562  0.00  0.00    -0.140 F 
ATOM     26  C   LIG    1        4.791  -8.603   3.873  0.00  0.00    +0.020 A 
ENDBRANCH  19  20
ENDBRANCH  18  19
ENDBRANCH   5  18
TORSDOF 6
