REMARK  Name = ZINCqH0000005fOS.0
REMARK                            x       y       z     vdW  Elec       q    Type
REMARK                         _______ _______ _______ _____ _____    ______ ____
ROOT
ATOM      1  C   LIG    1        2.748  -6.216   3.179  0.00  0.00    +0.300 C 
ATOM      2  N   LIG    1        3.663  -6.515   2.074  0.00  0.00    -0.620 N 
ATOM      3  C   LIG    1        3.909  -5.584   1.131  0.00  0.00    +0.520 C 
ATOM      4  O   LIG    1        4.738  -5.795   0.272  0.00  0.00    -0.530 OA
ENDROOT
BRANCH   3   5
ATOM      5  C   LIG    1        3.153  -4.280   1.145  0.00  0.00    +0.080 C 
BRANCH   5   6
ATOM      6  C   LIG    1        3.618  -3.409  -0.024  0.00  0.00    +0.170 C 
BRANCH   6   7
ATOM      7  C   LIG    1        2.862  -2.105  -0.010  0.00  0.00    +0.280 A 
ATOM      8  N   LIG    1        1.565  -1.995  -0.015  0.00  0.00    -0.490 NA
ATOM      9  C   LIG    1        1.218  -0.683   0.000  0.00  0.00    +0.050 A 
ATOM     10  C   LIG    1       -0.006  -0.009   0.003  0.00  0.00    +0.070 A 
ATOM     11  C   LIG    1       -0.032   1.357   0.020  0.00  0.00    +0.000 A 
ATOM     12  C   LIG    1        1.148   2.087   0.035  0.00  0.00    +0.030 A 
ATOM     13  C   LIG    1        2.368   1.444   0.032  0.00  0.00    +0.010 A 
ATOM     14  C   LIG    1        2.414   0.057   0.015  0.00  0.00    +0.050 A 
ATOM     15  N   LIG    1        3.436  -0.872   0.008  0.00  0.00    -0.600 N 
ATOM     16  H   LIG    1        4.387  -0.680   0.015  0.00  0.00    +0.420 HD
ENDBRANCH   6   7
ENDBRANCH   5   6
ENDBRANCH   3   5
BRANCH   2  17
ATOM     17  C   LIG    1        4.311  -7.826   1.995  0.00  0.00    +0.370 C 
BRANCH  17  18
ATOM     18  C   LIG    1        5.569  -7.816   2.825  0.00  0.00    -0.090 A 
ATOM     19  C   LIG    1        5.887  -6.706   3.585  0.00  0.00    +0.120 A 
ATOM     20  C   LIG    1        7.039  -6.698   4.349  0.00  0.00    -0.040 A 
ATOM     21  C   LIG    1        7.879  -7.795   4.346  0.00  0.00    +0.110 A 
ATOM     22  C   LIG    1        7.565  -8.904   3.582  0.00  0.00    +0.060 A 
ATOM     23  C   LIG    1        6.410  -8.915   2.821  0.00  0.00    +0.010 A 
ATOM     24 CL   LIG    1        6.016 -10.306   1.861  0.00  0.00    -0.030 Cl
BRANCH  20  25
ATOM     25  N   LIG    1        7.375  -5.511   5.167  0.00  0.00    +0.030 N 
ATOM     26  O   LIG    1        6.635  -4.543   5.170  0.00  0.00    -0.160 OA
ATOM     27  O   LIG    1        8.392  -5.502   5.838  0.00  0.00    -0.150 OA
ENDBRANCH  20  25
ENDBRANCH  17  18
ENDBRANCH   2  17
TORSDOF 6
