REMARK  Name = ZINCpe00000MJLcv.0
REMARK                            x       y       z     vdW  Elec       q    Type
REMARK                         _______ _______ _______ _____ _____    ______ ____
ROOT
ATOM      1  C   LIG    1       -4.235   2.668  -0.403  0.00  0.00    +0.620 C 
ATOM      2  N   LIG    1       -2.982   2.750   0.087  0.00  0.00    -0.700 N 
ATOM      3  H   LIG    1       -2.647   3.596   0.422  0.00  0.00    +0.410 HD
ATOM      4  O   LIG    1       -4.655   1.607  -0.823  0.00  0.00    -0.530 OA
ENDROOT
BRANCH   1   7
ATOM      5  C   LIG    1       -7.170   2.771  -1.476  0.00  0.00    +0.190 C 
ATOM      6  C   LIG    1       -6.380   3.915  -0.897  0.00  0.00    +0.140 A 
ATOM      7  C   LIG    1       -5.097   3.865  -0.429  0.00  0.00    -0.110 A 
ATOM      8  N   LIG    1       -4.755   5.089   0.009  0.00  0.00    -0.200 NA
ATOM      9  N   LIG    1       -5.739   5.900  -0.165  0.00  0.00    -0.050 NA
ATOM     10  N   LIG    1       -6.802   5.188  -0.740  0.00  0.00    -0.310 N 
BRANCH  10  11
ATOM     11  C   LIG    1       -8.061   5.700  -1.085  0.00  0.00    +0.120 A 
ATOM     12  C   LIG    1       -8.164   6.944  -1.692  0.00  0.00    +0.050 A 
ATOM     13  C   LIG    1       -9.405   7.444  -2.035  0.00  0.00    +0.040 A 
ATOM     14  C   LIG    1      -10.546   6.710  -1.765  0.00  0.00    +0.040 A 
ATOM     15  C   LIG    1      -10.447   5.473  -1.156  0.00  0.00    +0.040 A 
ATOM     16  C   LIG    1       -9.208   4.966  -0.815  0.00  0.00    +0.020 A 
ENDBRANCH  10  11
ENDBRANCH   1   7
BRANCH   2  17
ATOM     17  C   LIG    1       -2.126   1.561   0.113  0.00  0.00    +0.260 C 
ATOM     18  C   LIG    1       -1.041   1.560  -0.976  0.00  0.00    +0.020 C 
ATOM     19  C   LIG    1       -0.090   0.978   0.083  0.00  0.00    +0.180 C 
ATOM     20  C   LIG    1       -0.983   1.646   1.142  0.00  0.00    +0.280 C 
BRANCH  20  21
ATOM     21  N   LIG    1       -1.200   0.820   2.332  0.00  0.00    -0.360 N 
ATOM     22  C   LIG    1       -0.954  -0.502   2.437  0.00  0.00    +0.220 A 
ATOM     23  C   LIG    1       -1.285  -0.886   3.691  0.00  0.00    -0.120 A 
ATOM     24  C   LIG    1       -1.749   0.241   4.378  0.00  0.00    +0.230 A 
ATOM     25  N   LIG    1       -1.693   1.266   3.566  0.00  0.00    -0.290 NA
ENDBRANCH  20  21
BRANCH  19  26
ATOM     26  O   LIG    1        1.232   1.519   0.025  0.00  0.00    -0.550 OA
ATOM     27  H   LIG    1        1.791   1.119  -0.655  0.00  0.00    +0.390 HD
ENDBRANCH  19  26
ENDBRANCH   2  17
TORSDOF 5
