REMARK  Name = ZINCrH000004uEsV.0
REMARK                            x       y       z     vdW  Elec       q    Type
REMARK                         _______ _______ _______ _____ _____    ______ ____
ROOT
ATOM      1  C   LIG    1        0.004   1.379   0.172  0.00  0.00    -0.090 A 
ATOM      2  C   LIG    1        1.177   2.086  -0.013  0.00  0.00    +0.020 A 
ATOM      3  C   LIG    1        2.371   1.414  -0.201  0.00  0.00    +0.030 A 
ATOM      4  C   LIG    1        2.394   0.033  -0.204  0.00  0.00    +0.030 A 
ATOM      5  C   LIG    1        1.217  -0.680  -0.018  0.00  0.00    +0.150 A 
ATOM      6  C   LIG    1        0.020  -0.002   0.170  0.00  0.00    +0.000 A 
ENDROOT
BRANCH   5   7
ATOM      7  N   LIG    1        1.237  -2.079  -0.021  0.00  0.00    -0.670 N 
ATOM      8  H   LIG    1        0.479  -2.575  -0.368  0.00  0.00    +0.410 HD
ATOM      9  C   LIG    1        2.310  -2.739   0.458  0.00  0.00    +0.520 C 
ATOM     10  O   LIG    1        3.217  -2.124   0.979  0.00  0.00    -0.510 OA
BRANCH   9  11
ATOM     11  C   LIG    1        2.384  -4.240   0.347  0.00  0.00    -0.010 C 
ATOM     12  C   LIG    1        1.227  -4.886   1.138  0.00  0.00    +0.030 C 
ATOM     13  C   LIG    1        1.855  -6.161   1.755  0.00  0.00    +0.020 C 
ATOM     14  C   LIG    1        3.282  -5.691   2.133  0.00  0.00    +0.010 C 
ATOM     15  C   LIG    1        3.690  -4.752   0.979  0.00  0.00    +0.040 C 
ENDBRANCH   9  11
ENDBRANCH   5   7
BRANCH   1  16
ATOM     16  C   LIG    1       -1.296   2.116   0.370  0.00  0.00    +0.330 C 
BRANCH  16  19
ATOM     17  O   LIG    1       -3.434   3.389   1.408  0.00  0.00    -0.520 OA
ATOM     18  C   LIG    1       -2.614   3.004   2.218  0.00  0.00    +0.570 C 
ATOM     19  N   LIG    1       -1.508   2.356   1.800  0.00  0.00    -0.700 N 
ATOM     20  H   LIG    1       -0.853   2.048   2.446  0.00  0.00    +0.420 HD
BRANCH  18  21
ATOM     21  C   LIG    1       -2.828   3.246   3.663  0.00  0.00    +0.190 A 
ATOM     22  C   LIG    1       -3.987   3.926   4.116  0.00  0.00    -0.130 A 
ATOM     23  C   LIG    1       -5.102   4.481   3.380  0.00  0.00    +0.070 A 
ATOM     24  C   LIG    1       -6.029   5.058   4.125  0.00  0.00    -0.010 A 
ATOM     25  S   LIG    1       -5.623   4.978   5.830  0.00  0.00    +0.180 S 
ATOM     26  C   LIG    1       -4.125   4.120   5.502  0.00  0.00    +0.080 A 
ATOM     27  N   LIG    1       -3.174   3.664   6.317  0.00  0.00    -0.470 NA
ATOM     28  C   LIG    1       -2.118   3.038   5.845  0.00  0.00    +0.520 A 
ATOM     29  N   LIG    1       -1.943   2.825   4.557  0.00  0.00    -0.490 NA
ENDBRANCH  18  21
ENDBRANCH  16  19
ENDBRANCH   1  16
TORSDOF 5
