REMARK  Name = ZINCrg00000fSgjC.0
REMARK                            x       y       z     vdW  Elec       q    Type
REMARK                         _______ _______ _______ _____ _____    ______ ____
ROOT
ATOM      1  C   LIG    1       -2.074   5.641   3.576  0.00  0.00    +0.610 C 
ATOM      2  N   LIG    1       -1.905   6.973   3.461  0.00  0.00    -0.610 N 
ATOM      3  C   LIG    1       -1.238   7.550   2.284  0.00  0.00    +0.280 C 
ATOM      4  C   LIG    1       -2.138   8.658   1.714  0.00  0.00    +0.180 C 
ATOM      5  N   LIG    1       -2.458   9.618   2.780  0.00  0.00    -0.520 NA
ATOM      6  C   LIG    1       -3.228   8.982   3.856  0.00  0.00    +0.170 C 
ATOM      7  C   LIG    1       -2.378   7.888   4.511  0.00  0.00    +0.300 C 
ATOM      8  O   LIG    1       -2.713   5.187   4.507  0.00  0.00    -0.530 OA
ENDROOT
BRANCH   1  15
ATOM      9  C   LIG    1       -0.516   1.308  -0.489  0.00  0.00    +0.160 C 
ATOM     10  C   LIG    1       -1.491   1.901   0.496  0.00  0.00    +0.200 A 
ATOM     11  C   LIG    1       -2.686   1.300   0.727  0.00  0.00    -0.060 A 
ATOM     12  C   LIG    1       -3.574   1.871   1.647  0.00  0.00    +0.220 A 
ATOM     13  N   LIG    1       -3.249   2.977   2.278  0.00  0.00    -0.460 NA
ATOM     14  C   LIG    1       -2.076   3.573   2.055  0.00  0.00    +0.330 A 
ATOM     15  C   LIG    1       -1.487   4.739   2.581  0.00  0.00    -0.290 A 
ATOM     16  C   LIG    1       -0.228   4.872   1.969  0.00  0.00    +0.340 A 
ATOM     17  N   LIG    1       -0.056   3.877   1.140  0.00  0.00    -0.310 NA
ATOM     18  C   LIG    1       -4.904   1.215   1.914  0.00  0.00    +0.160 C 
ATOM     19  N   LIG    1       -1.181   3.045   1.170  0.00  0.00    -0.310 N 
ENDBRANCH   1  15
BRANCH   5  20
ATOM     20  C   LIG    1       -3.170  10.784   2.241  0.00  0.00    +0.200 C 
BRANCH  20  21
ATOM     21  C   LIG    1       -2.255  11.550   1.321  0.00  0.00    +0.520 C 
ATOM     22  N   LIG    1       -2.696  12.666   0.707  0.00  0.00    -0.730 N 
ATOM     23  H   LIG    1       -3.603  12.976   0.858  0.00  0.00    +0.400 HD
ATOM     24  O   LIG    1       -1.121  11.163   1.132  0.00  0.00    -0.510 OA
BRANCH  22  25
ATOM     25  C   LIG    1       -1.806  13.411  -0.188  0.00  0.00    +0.170 C 
ATOM     26  C   LIG    1       -0.576  13.880   0.591  0.00  0.00    +0.030 C 
ATOM     27  C   LIG    1       -2.548  14.626  -0.749  0.00  0.00    +0.030 C 
ATOM     28  C   LIG    1       -1.367  12.505  -1.340  0.00  0.00    +0.030 C 
ENDBRANCH  22  25
ENDBRANCH  20  21
ENDBRANCH   5  20
TORSDOF 4
