REMARK  Name = ZINCqH00000393Pt.0
REMARK                            x       y       z     vdW  Elec       q    Type
REMARK                         _______ _______ _______ _____ _____    ______ ____
ROOT
ATOM      1  N   LIG    1       -0.746   1.584  -1.170  0.00  0.00    -0.510 NA
ATOM      2  C   LIG    1       -0.013   1.086   0.008  0.00  0.00    +0.180 C 
ATOM      3  C   LIG    1       -0.756   1.594   1.261  0.00  0.00    +0.010 C 
ATOM      4  C   LIG    1       -1.544   2.821   0.724  0.00  0.00    +0.050 C 
ATOM      5  C   LIG    1       -1.919   2.353  -0.705  0.00  0.00    +0.150 C 
ENDROOT
BRANCH   1   6
ATOM      6  C   LIG    1       -1.155   0.475  -2.043  0.00  0.00    +0.230 C 
BRANCH   6   9
ATOM      7  C   LIG    1        1.867  -1.703  -2.709  0.00  0.00    -0.060 A 
ATOM      8  C   LIG    1        0.740  -1.153  -2.095  0.00  0.00    +0.100 A 
ATOM      9  C   LIG    1        0.062  -0.119  -2.705  0.00  0.00    -0.090 A 
ATOM     10  C   LIG    1        0.491   0.372  -3.926  0.00  0.00    +0.100 A 
ATOM     11  C   LIG    1        1.609  -0.163  -4.539  0.00  0.00    +0.000 A 
ATOM     12  C   LIG    1        2.300  -1.200  -3.940  0.00  0.00    +0.150 A 
ATOM     13  F   LIG    1        3.389  -1.726  -4.542  0.00  0.00    -0.130 F 
BRANCH   7  15
ATOM     14  N   LIG    1        3.138  -3.630  -1.583  0.00  0.00    -0.400 NA
ATOM     15  C   LIG    1        2.575  -2.778  -2.081  0.00  0.00    +0.250 C 
ENDBRANCH   7  15
ENDBRANCH   6   9
ENDBRANCH   1   6
BRANCH   5  16
ATOM     16  C   LIG    1       -2.161   3.559  -1.614  0.00  0.00    +0.250 C 
BRANCH  16  17
ATOM     17  O   LIG    1       -1.043   4.480  -1.504  0.00  0.00    -0.350 OA
BRANCH  17  18
ATOM     18  C   LIG    1       -1.100   5.602  -2.245  0.00  0.00    +0.650 C 
ATOM     19  N   LIG    1       -0.095   6.498  -2.190  0.00  0.00    -0.710 N 
ATOM     20  H   LIG    1        0.669   6.335  -1.615  0.00  0.00    +0.410 HD
ATOM     21  O   LIG    1       -2.057   5.806  -2.965  0.00  0.00    -0.580 OA
BRANCH  19  22
ATOM     22  C   LIG    1       -0.156   7.719  -2.997  0.00  0.00    +0.250 C 
ATOM     23  C   LIG    1        0.376   7.429  -4.402  0.00  0.00    +0.010 C 
ATOM     24  C   LIG    1        0.312   8.704  -5.245  0.00  0.00    +0.020 C 
ATOM     25  C   LIG    1        1.165   9.792  -4.590  0.00  0.00    +0.010 C 
ATOM     26  C   LIG    1        0.633  10.082  -3.186  0.00  0.00    +0.020 C 
ATOM     27  C   LIG    1        0.697   8.807  -2.342  0.00  0.00    +0.010 C 
ENDBRANCH  19  22
ENDBRANCH  17  18
ENDBRANCH  16  17
ENDBRANCH   5  16
TORSDOF 7
