REMARK  Name = ZINCpe000000WG0L.0
REMARK                            x       y       z     vdW  Elec       q    Type
REMARK                         _______ _______ _______ _____ _____    ______ ____
ROOT
ATOM      1  C   LIG    1        4.599   0.325   1.151  0.00  0.00    +0.220 C 
ENDROOT
BRANCH   1   7
ATOM      2  N   LIG    1       -0.026   1.446   0.023  0.00  0.00    -1.000 NA
ATOM      3  C   LIG    1        1.254   2.169  -0.017  0.00  0.00    +0.300 C 
ATOM      4  C   LIG    1        2.111   1.713   1.170  0.00  0.00    +0.270 C 
ATOM      5  N   LIG    1        2.128   0.243   1.200  0.00  0.00    -0.620 N 
ATOM      6  C   LIG    1        0.848  -0.479   1.240  0.00  0.00    +0.280 C 
ATOM      7  C   LIG    1        3.295  -0.430   1.192  0.00  0.00    +0.510 C 
ATOM      8  O   LIG    1        3.297  -1.642   1.217  0.00  0.00    -0.500 OA
ATOM      9  C   LIG    1       -0.009  -0.023   0.053  0.00  0.00    +0.290 C 
BRANCH   2  11
ATOM     10  C   LIG    1       -1.827   2.535   1.784  0.00  0.00    -0.280 C 
ATOM     11  S   LIG    1       -1.461   2.273   0.027  0.00  0.00    +2.610 S 
ATOM     12  O   LIG    1       -2.390   1.364  -0.546  0.00  0.00    -0.950 OA
ATOM     13  O   LIG    1       -1.156   3.507  -0.608  0.00  0.00    -0.950 OA
ENDBRANCH   2  11
ENDBRANCH   1   7
BRANCH   1  14
ATOM     14  N   LIG    1        5.717  -0.623   1.260  0.00  0.00    -0.490 NA
BRANCH  14  15
ATOM     15  C   LIG    1        6.942   0.057   1.701  0.00  0.00    +0.090 C 
ATOM     16  C   LIG    1        7.756  -0.607   2.813  0.00  0.00    +0.040 C 
ATOM     17  C   LIG    1        6.949   0.659   3.107  0.00  0.00    +0.030 C 
ENDBRANCH  14  15
BRANCH  14  18
ATOM     18  C   LIG    1        5.934  -1.328  -0.011  0.00  0.00    +0.240 C 
BRANCH  18  19
ATOM     19  C   LIG    1        6.912  -2.455   0.201  0.00  0.00    -0.110 A 
ATOM     20  C   LIG    1        8.237  -2.297  -0.159  0.00  0.00    +0.040 A 
ATOM     21  C   LIG    1        9.136  -3.328   0.041  0.00  0.00    -0.010 A 
ATOM     22  C   LIG    1        8.708  -4.523   0.590  0.00  0.00    +0.040 A 
ATOM     23  C   LIG    1        7.382  -4.685   0.946  0.00  0.00    -0.030 A 
ATOM     24  C   LIG    1        6.482  -3.651   0.752  0.00  0.00    +0.130 A 
ATOM     25  F   LIG    1        5.186  -3.808   1.099  0.00  0.00    -0.120 F 
ENDBRANCH  18  19
ENDBRANCH  14  18
ENDBRANCH   1  14
TORSDOF 6
