REMARK  Name = ZINCtV00000L6kk6.0
REMARK                            x       y       z     vdW  Elec       q    Type
REMARK                         _______ _______ _______ _____ _____    ______ ____
ROOT
ATOM      1  C   LIG    1        6.005  -0.451  -0.043  0.00  0.00    -0.130 A 
ATOM      2  C   LIG    1        7.123   0.386  -0.069  0.00  0.00    +0.060 A 
ATOM      3  C   LIG    1        6.963   1.751   0.021  0.00  0.00    +0.020 A 
ATOM      4  C   LIG    1        5.696   2.301   0.136  0.00  0.00    +0.040 A 
ATOM      5  C   LIG    1        4.580   1.489   0.157  0.00  0.00    +0.010 A 
ATOM      6  C   LIG    1        4.723   0.109   0.073  0.00  0.00    +0.170 A 
ENDROOT
BRANCH   1  17
ATOM      7  C   LIG    1        5.855  -0.887  -3.012  0.00  0.00    +0.050 C 
ATOM      8  C   LIG    1        4.995  -1.959  -2.340  0.00  0.00    +0.220 C 
ATOM      9  C   LIG    1        4.717  -3.109  -3.321  0.00  0.00    +0.100 C 
ATOM     10  C   LIG    1        5.325  -4.327  -2.662  0.00  0.00    -0.140 A 
ATOM     11  C   LIG    1        5.382  -5.645  -3.072  0.00  0.00    +0.050 A 
ATOM     12  C   LIG    1        6.004  -6.592  -2.279  0.00  0.00    -0.010 A 
ATOM     13  C   LIG    1        6.570  -6.217  -1.075  0.00  0.00    +0.040 A 
ATOM     14  C   LIG    1        6.516  -4.903  -0.662  0.00  0.00    +0.010 A 
ATOM     15  C   LIG    1        5.889  -3.941  -1.456  0.00  0.00    +0.150 A 
ATOM     16  N   LIG    1        5.726  -2.572  -1.227  0.00  0.00    -0.540 N 
ATOM     17  C   LIG    1        6.170  -1.913  -0.138  0.00  0.00    +0.580 C 
ATOM     18  O   LIG    1        6.706  -2.524   0.766  0.00  0.00    -0.500 OA
ENDBRANCH   1  17
BRANCH   6  19
ATOM     19  N   LIG    1        3.602  -0.711   0.099  0.00  0.00    -0.700 N 
ATOM     20  H   LIG    1        3.030  -0.775  -0.682  0.00  0.00    +0.410 HD
BRANCH  19  21
ATOM     21  C   LIG    1        3.297  -1.444   1.252  0.00  0.00    +0.210 A 
ATOM     22  C   LIG    1        2.125  -2.187   1.313  0.00  0.00    -0.040 A 
ATOM     23  C   LIG    1        1.825  -2.911   2.450  0.00  0.00    +0.080 A 
ATOM     24  C   LIG    1        2.695  -2.895   3.533  0.00  0.00    -0.140 A 
ATOM     25  C   LIG    1        3.867  -2.151   3.472  0.00  0.00    +0.060 A 
ATOM     26  C   LIG    1        4.167  -1.428   2.335  0.00  0.00    -0.020 A 
BRANCH  24  27
ATOM     27  S   LIG    1        2.308  -3.812   4.987  0.00  0.00    -0.100 S 
BRANCH  27  28
ATOM     28  C   LIG    1        3.721  -3.471   6.073  0.00  0.00    +0.430 C 
ATOM     29  F   LIG    1        3.803  -2.095   6.311  0.00  0.00    -0.180 F 
ATOM     30  F   LIG    1        4.899  -3.909   5.458  0.00  0.00    -0.180 F 
ENDBRANCH  27  28
ENDBRANCH  24  27
ENDBRANCH  19  21
ENDBRANCH   6  19
TORSDOF 5
