REMARK  Name = ZINCpk00001AZilN.0
REMARK                            x       y       z     vdW  Elec       q    Type
REMARK                         _______ _______ _______ _____ _____    ______ ____
ROOT
ATOM      1  C   LIG    1       -0.732   1.582   1.264  0.00  0.00    +0.000 C 
ENDROOT
BRANCH   1   3
ATOM      2  O   LIG    1       -2.410   0.045   0.634  0.00  0.00    -0.520 OA
ATOM      3  C   LIG    1       -2.159   1.107   1.165  0.00  0.00    +0.540 C 
ATOM      4  N   LIG    1       -3.157   1.862   1.666  0.00  0.00    -0.620 N 
ATOM      5  C   LIG    1       -2.988   3.111   2.430  0.00  0.00    +0.280 C 
ATOM      6  C   LIG    1       -4.321   3.879   2.230  0.00  0.00    +0.050 C 
ATOM      7  C   LIG    1       -5.352   2.719   2.248  0.00  0.00    +0.280 C 
ATOM      8  F   LIG    1       -5.678   2.367   3.562  0.00  0.00    -0.180 F 
ATOM      9  F   LIG    1       -6.500   3.066   1.528  0.00  0.00    -0.180 F 
ATOM     10  C   LIG    1       -4.593   1.572   1.547  0.00  0.00    +0.270 C 
ENDBRANCH   1   3
BRANCH   1  11
ATOM     11  C   LIG    1        0.037   1.149   0.014  0.00  0.00    +0.020 C 
ATOM     12  C   LIG    1       -0.694   1.645  -1.237  0.00  0.00    -0.020 C 
ATOM     13  C   LIG    1        0.124   1.274  -2.477  0.00  0.00    +0.200 C 
ATOM     14  O   LIG    1        1.431   1.842  -2.371  0.00  0.00    -0.390 OA
ATOM     15  C   LIG    1        2.179   1.378  -1.246  0.00  0.00    +0.200 C 
ATOM     16  C   LIG    1        1.444   1.754   0.044  0.00  0.00    +0.020 C 
ENDBRANCH   1  11
BRANCH   1  17
ATOM     17  C   LIG    1       -0.076   0.971   2.504  0.00  0.00    +0.200 C 
BRANCH  17  18
ATOM     18  N   LIG    1        1.256   1.560   2.694  0.00  0.00    -0.670 NA
ATOM     19  H   LIG    1        1.201   2.566   2.755  0.00  0.00    +0.350 HD
BRANCH  18  20
ATOM     20  C   LIG    1        1.917   0.996   3.878  0.00  0.00    +0.280 C 
BRANCH  20  21
ATOM     21  C   LIG    1        3.278   1.623   4.040  0.00  0.00    +0.320 A 
ATOM     22  N   LIG    1        4.318   1.057   3.461  0.00  0.00    -0.500 NA
ATOM     23  C   LIG    1        5.527   1.582   3.576  0.00  0.00    +0.320 A 
ATOM     24  C   LIG    1        5.692   2.735   4.327  0.00  0.00    -0.080 A 
ATOM     25  C   LIG    1        4.576   3.298   4.925  0.00  0.00    +0.320 A 
ATOM     26  N   LIG    1        3.397   2.719   4.761  0.00  0.00    -0.520 NA
ENDBRANCH  20  21
ENDBRANCH  18  20
ENDBRANCH  17  18
ENDBRANCH   1  17
TORSDOF 6
