REMARK  Name = ZINCvU0000000Dhf.0
REMARK                            x       y       z     vdW  Elec       q    Type
REMARK                         _______ _______ _______ _____ _____    ______ ____
ROOT
ATOM      1  N   LIG    1        3.338   0.407  -1.781  0.00  0.00    -0.980 NA
ENDROOT
BRANCH   1   2
ATOM      2  S   LIG    1        3.045   1.131  -0.320  0.00  0.00    +2.680 S 
ATOM      3  O   LIG    1        2.212   0.239   0.409  0.00  0.00    -0.950 OA
ATOM      4  O   LIG    1        4.301   1.589   0.160  0.00  0.00    -0.940 OA
BRANCH   2   8
ATOM      5  C   LIG    1        0.558   4.827  -1.130  0.00  0.00    +0.190 A 
ATOM      6  C   LIG    1       -0.060   3.642  -0.759  0.00  0.00    -0.090 A 
ATOM      7  C   LIG    1        0.701   2.517  -0.506  0.00  0.00    +0.160 A 
ATOM      8  C   LIG    1        2.077   2.569  -0.635  0.00  0.00    -0.720 A 
ATOM      9  C   LIG    1        2.695   3.748  -1.011  0.00  0.00    +0.170 A 
ATOM     10  C   LIG    1        1.938   4.877  -1.259  0.00  0.00    -0.030 A 
BRANCH   5  11
ATOM     11  O   LIG    1       -0.189   5.936  -1.373  0.00  0.00    -0.310 OA
BRANCH  11  13
ATOM     12  C   LIG    1       -2.271   7.153  -1.535  0.00  0.00    +0.070 C 
ATOM     13  C   LIG    1       -1.604   5.812  -1.221  0.00  0.00    +0.190 C 
ENDBRANCH  11  13
ENDBRANCH   5  11
ENDBRANCH   2   8
ENDBRANCH   1   2
BRANCH   1  14
ATOM     14  C   LIG    1        2.490  -0.698  -2.234  0.00  0.00    +0.420 C 
BRANCH  14  15
ATOM     15  C   LIG    1        1.746  -0.283  -3.477  0.00  0.00    -0.030 A 
ATOM     16  C   LIG    1        0.427  -0.033  -3.563  0.00  0.00    -0.020 A 
ATOM     17  O   LIG    1        0.166   0.310  -4.842  0.00  0.00    -0.190 OA
ATOM     18  C   LIG    1        1.325   0.257  -5.524  0.00  0.00    +0.270 A 
ATOM     19  C   LIG    1       -0.573  -0.118  -2.439  0.00  0.00    +0.200 C 
ATOM     20  N   LIG    1        2.280  -0.102  -4.695  0.00  0.00    -0.460 NA
BRANCH  18  21
ATOM     21  C   LIG    1        1.494   0.552  -6.954  0.00  0.00    -0.140 A 
ATOM     22  C   LIG    1        0.497   0.923  -7.805  0.00  0.00    +0.060 A 
ATOM     23  C   LIG    1        0.907   1.145  -9.101  0.00  0.00    +0.010 A 
ATOM     24  C   LIG    1        2.213   0.963  -9.323  0.00  0.00    -0.040 A 
ATOM     25  S   LIG    1        3.016   0.487  -7.833  0.00  0.00    +0.210 S 
ENDBRANCH  18  21
ENDBRANCH  14  15
ENDBRANCH   1  14
BRANCH   1  26
ATOM     26  C   LIG    1        4.446   0.873  -2.619  0.00  0.00    +0.420 C 
BRANCH  26  27
ATOM     27  C   LIG    1        5.663   0.024  -2.360  0.00  0.00    -0.040 A 
ATOM     28  C   LIG    1        5.989  -1.105  -3.016  0.00  0.00    -0.040 A 
ATOM     29  C   LIG    1        7.200  -1.570  -2.454  0.00  0.00    -0.070 A 
ATOM     30  C   LIG    1        7.542  -0.698  -1.488  0.00  0.00    +0.170 A 
ATOM     31  O   LIG    1        6.611   0.269  -1.440  0.00  0.00    -0.160 OA
ENDBRANCH  26  27
ENDBRANCH   1  26
TORSDOF 9
