REMARK  Name = ZINCpk00000KfLwG.0
REMARK                            x       y       z     vdW  Elec       q    Type
REMARK                         _______ _______ _______ _____ _____    ______ ____
ROOT
ATOM      1  N   LIG    1        4.589  10.264  -0.522  0.00  0.00    -0.520 N 
ATOM      2  H   LIG    1        3.743  10.738  -0.511  0.00  0.00    +0.430 HD
ATOM      3  C   LIG    1        4.609   8.919  -0.427  0.00  0.00    +0.520 C 
ATOM      4  O   LIG    1        5.667   8.326  -0.440  0.00  0.00    -0.540 OA
ENDROOT
BRANCH   1   6
ATOM      5  C   LIG    1        5.770  12.320  -0.730  0.00  0.00    +0.520 C 
ATOM      6  N   LIG    1        5.790  10.976  -0.635  0.00  0.00    -0.520 N 
ATOM      7  H   LIG    1        6.636  10.501  -0.646  0.00  0.00    +0.430 HD
ATOM      8  O   LIG    1        4.713  12.913  -0.717  0.00  0.00    -0.540 OA
BRANCH   5   9
ATOM      9  C   LIG    1        7.062  13.086  -0.853  0.00  0.00    +0.100 C 
BRANCH   9  10
ATOM     10  C   LIG    1        6.761  14.583  -0.944  0.00  0.00    +0.140 C 
BRANCH  10  11
ATOM     11  C   LIG    1        8.053  15.349  -1.066  0.00  0.00    +0.460 C 
ATOM     12  O   LIG    1        9.107  14.758  -1.079  0.00  0.00    -0.510 OA
BRANCH  11  14
ATOM     13  C   LIG    1        9.315  17.360  -1.275  0.00  0.00    +0.250 C 
ATOM     14  O   LIG    1        8.033  16.688  -1.160  0.00  0.00    -0.360 OA
ENDBRANCH  11  14
ENDBRANCH  10  11
ENDBRANCH   9  10
ENDBRANCH   5   9
ENDBRANCH   1   6
BRANCH   3  15
ATOM     15  C   LIG    1        3.317   8.153  -0.305  0.00  0.00    +0.100 C 
BRANCH  15  16
ATOM     16  C   LIG    1        3.619   6.656  -0.214  0.00  0.00    +0.100 C 
BRANCH  16  17
ATOM     17  C   LIG    1        2.326   5.890  -0.092  0.00  0.00    +0.520 C 
ATOM     18  N   LIG    1        2.346   4.546   0.003  0.00  0.00    -0.670 N 
ATOM     19  H   LIG    1        3.193   4.077   0.073  0.00  0.00    +0.420 HD
ATOM     20  O   LIG    1        1.269   6.483  -0.079  0.00  0.00    -0.510 OA
BRANCH  18  21
ATOM     21  C   LIG    1        1.146   3.826   0.000  0.00  0.00    +0.160 A 
ATOM     22  C   LIG    1        0.013   4.366  -0.594  0.00  0.00    +0.030 A 
ATOM     23  C   LIG    1       -1.170   3.653  -0.596  0.00  0.00    +0.050 A 
ATOM     24  C   LIG    1       -1.227   2.402  -0.012  0.00  0.00    +0.020 A 
ATOM     25  C   LIG    1       -0.101   1.863   0.587  0.00  0.00    -0.020 A 
ATOM     26 CL   LIG    1       -0.178   0.294   1.325  0.00  0.00    -0.060 Cl
ATOM     27  C   LIG    1        1.086   2.571   0.592  0.00  0.00    -0.110 A 
ATOM     28  C   LIG    1        2.313   1.982   1.238  0.00  0.00    +0.110 C 
ENDBRANCH  18  21
ENDBRANCH  16  17
ENDBRANCH  15  16
ENDBRANCH   3  15
TORSDOF 9
