REMARK  Name = ZINCnE000001GzQ2.2
REMARK                            x       y       z     vdW  Elec       q    Type
REMARK                         _______ _______ _______ _____ _____    ______ ____
ROOT
ATOM      1  C   UNK    1        0.170  -0.259   0.545  0.00  0.00    +0.160 C 
ATOM      2  C   UNK    1        1.669   0.017   0.753  0.00  0.00    +0.020 C 
ATOM      3  C   UNK    1        1.414   1.417   0.169  0.00  0.00    +0.130 C 
ATOM      4  C   UNK    1       -0.038   1.259   0.636  0.00  0.00    -0.060 C 
ATOM      5  C   UNK    1       -0.279   1.756   2.060  0.00  0.00    +0.060 C 
ATOM      6  C   UNK    1       -1.702   1.386   2.490  0.00  0.00    +0.010 C 
ATOM      7  C   UNK    1       -2.705   1.995   1.509  0.00  0.00    -0.010 C 
ATOM      8  C   UNK    1       -2.470   1.423   0.110  0.00  0.00    +0.010 C 
ATOM      9  C   UNK    1       -1.062   1.794  -0.363  0.00  0.00    +0.020 C 
ENDROOT
BRANCH   3  10
ATOM     10  N   UNK    1        2.143   2.487   0.865  0.00  0.00    -0.520 NA
ATOM     11  C   UNK    1        3.582   2.416   0.578  0.00  0.00    +0.200 C 
BRANCH  10  12
ATOM     12  C   UNK    1        1.601   3.807   0.515  0.00  0.00    +0.290 C 
BRANCH  12  13
ATOM     13  C   UNK    1        2.095   4.831   1.504  0.00  0.00    +0.010 A 
ATOM     14  N   UNK    1        3.180   5.507   1.373  0.00  0.00    -0.420 NA
ATOM     15  C   UNK    1        3.449   6.374   2.355  0.00  0.00    +0.010 A 
ATOM     16  C   UNK    1        2.510   6.378   3.346  0.00  0.00    -0.070 A 
ATOM     17  S   UNK    1        1.293   5.244   2.954  0.00  0.00    +0.130 S 
BRANCH  15  18
ATOM     18  C   UNK    1        4.640   7.232   2.369  0.00  0.00    +0.550 C 
ATOM     19  O   UNK    1        5.444   7.178   1.448  0.00  0.00    -0.670 OA
ATOM     20  O   UNK    1        4.829   8.001   3.302  0.00  0.00    -0.680 OA
ENDBRANCH  15  18
ENDBRANCH  12  13
ENDBRANCH  10  12
ENDBRANCH   3  10
BRANCH   1  21
ATOM     21  O   UNK    1       -0.433  -0.985   1.618  0.00  0.00    -0.360 OA
BRANCH  21  23
ATOM     22  C   UNK    1       -1.481  -2.985   2.481  0.00  0.00    +0.040 C 
ATOM     23  C   UNK    1       -0.853  -2.304   1.263  0.00  0.00    +0.130 C 
ENDBRANCH  21  23
ENDBRANCH   1  21
TORSDOF 6
