REMARK  Name = ZINCvU00000004LZ.0
REMARK                            x       y       z     vdW  Elec       q    Type
REMARK                         _______ _______ _______ _____ _____    ______ ____
ROOT
ATOM      1  C   LIG    1        5.467   2.974  -0.035  0.00  0.00    +0.460 A 
ATOM      2  N   LIG    1        6.332   1.998  -0.050  0.00  0.00    -0.570 NA
ATOM      3  C   LIG    1        7.654   2.235  -0.062  0.00  0.00    +0.540 A 
ATOM      4  C   LIG    1        8.126   3.632  -0.059  0.00  0.00    -0.220 A 
ATOM      5  C   LIG    1        7.165   4.627  -0.044  0.00  0.00    +0.060 A 
ATOM      6  S   LIG    1        7.933   6.207  -0.044  0.00  0.00    +0.210 S 
ATOM      7  C   LIG    1        9.540   5.505  -0.065  0.00  0.00    -0.020 A 
ATOM      8  C   LIG    1        9.479   4.172  -0.071  0.00  0.00    +0.040 A 
ATOM      9  O   LIG    1        8.450   1.310  -0.076  0.00  0.00    -0.460 OA
ATOM     10  N   LIG    1        5.835   4.265  -0.037  0.00  0.00    -0.580 N 
ATOM     11  H   LIG    1        5.153   4.955  -0.030  0.00  0.00    +0.430 HD
ENDROOT
BRANCH   8  12
ATOM     12  C   LIG    1       10.684   3.315  -0.089  0.00  0.00    -0.150 A 
ATOM     13  C   LIG    1       11.716   3.442  -0.946  0.00  0.00    +0.030 A 
ATOM     14  C   LIG    1       12.732   2.524  -0.764  0.00  0.00    -0.010 A 
ATOM     15  C   LIG    1       12.533   1.648   0.223  0.00  0.00    -0.180 A 
ATOM     16  C   LIG    1       13.488   0.549   0.613  0.00  0.00    +0.150 C 
ATOM     17  S   LIG    1       10.988   1.968   1.000  0.00  0.00    +0.180 S 
ENDBRANCH   8  12
BRANCH   1  18
ATOM     18  C   LIG    1        3.998   2.640  -0.022  0.00  0.00    +0.170 C 
BRANCH  18  19
ATOM     19  S   LIG    1        3.788   0.842  -0.030  0.00  0.00    +0.190 S 
BRANCH  19  23
ATOM     20  C   LIG    1        0.002  -0.004   0.002  0.00  0.00    +0.220 A 
ATOM     21  N   LIG    1       -0.016   1.306   0.009  0.00  0.00    -0.260 NA
ATOM     22  N   LIG    1        1.192   1.751   0.000  0.00  0.00    -0.290 NA
ATOM     23  C   LIG    1        2.029   0.739  -0.013  0.00  0.00    +0.110 A 
ATOM     24  O   LIG    1        1.297  -0.391  -0.012  0.00  0.00    -0.200 OA
BRANCH  20  30
ATOM     25  C   LIG    1       -1.933  -4.603  -0.005  0.00  0.00    +0.100 C 
ATOM     26  C   LIG    1       -2.113  -3.107   0.005  0.00  0.00    -0.080 A 
ATOM     27  C   LIG    1       -3.386  -2.564   0.019  0.00  0.00    +0.040 A 
ATOM     28  C   LIG    1       -3.560  -1.192   0.029  0.00  0.00    -0.080 A 
ATOM     29  C   LIG    1       -2.464  -0.354   0.023  0.00  0.00    +0.070 A 
ATOM     30  C   LIG    1       -1.177  -0.895   0.008  0.00  0.00    -0.020 A 
ATOM     31  C   LIG    1       -4.950  -0.610   0.046  0.00  0.00    +0.100 C 
ATOM     32  C   LIG    1       -1.008  -2.281  -0.007  0.00  0.00    +0.040 A 
ENDBRANCH  20  30
ENDBRANCH  19  23
ENDBRANCH  18  19
ENDBRANCH   1  18
TORSDOF 5
