REMARK  Name = ZINCvU00000006sz.0
REMARK                            x       y       z     vdW  Elec       q    Type
REMARK                         _______ _______ _______ _____ _____    ______ ____
ROOT
ATOM      1  C   LIG    1        1.883   4.244   0.862  0.00  0.00    -0.030 A 
ATOM      2  C   LIG    1        1.530   5.547   0.563  0.00  0.00    +0.060 A 
ATOM      3  C   LIG    1        0.392   5.445  -0.257  0.00  0.00    +0.070 A 
ATOM      4  N   LIG    1        0.126   4.165  -0.414  0.00  0.00    -0.240 NA
ATOM      5  N   LIG    1        0.976   3.441   0.221  0.00  0.00    -0.210 N 
ENDROOT
BRANCH   3   6
ATOM      6  C   LIG    1       -0.372   6.576  -0.840  0.00  0.00    -0.010 A 
ATOM      7  C   LIG    1        0.019   7.889  -0.586  0.00  0.00    +0.030 A 
ATOM      8  C   LIG    1       -0.692   8.937  -1.135  0.00  0.00    +0.010 A 
ATOM      9  C   LIG    1       -1.798   8.686  -1.927  0.00  0.00    +0.010 A 
ATOM     10  C   LIG    1       -2.194   7.385  -2.178  0.00  0.00    +0.010 A 
ATOM     11  C   LIG    1       -1.487   6.329  -1.639  0.00  0.00    +0.040 A 
ENDBRANCH   3   6
BRANCH   5  12
ATOM     12  C   LIG    1        0.973   2.042   0.258  0.00  0.00    +0.110 A 
ATOM     13  C   LIG    1        1.121   1.377   1.469  0.00  0.00    +0.050 A 
ATOM     14  C   LIG    1        1.118  -0.003   1.502  0.00  0.00    +0.060 A 
ATOM     15  C   LIG    1        0.967  -0.724   0.331  0.00  0.00    +0.030 A 
ATOM     16  C   LIG    1        0.819  -0.065  -0.876  0.00  0.00    +0.020 A 
ATOM     17  C   LIG    1        0.822   1.315  -0.916  0.00  0.00    +0.040 A 
ENDBRANCH   5  12
BRANCH   1  18
ATOM     18  C   LIG    1        3.009   3.806   1.699  0.00  0.00    +0.550 C 
ATOM     19  O   LIG    1        3.674   4.627   2.300  0.00  0.00    -0.480 OA
BRANCH  18  20
ATOM     20  O   LIG    1        3.304   2.495   1.799  0.00  0.00    -0.320 OA
BRANCH  20  21
ATOM     21  C   LIG    1        4.430   2.135   2.643  0.00  0.00    +0.270 C 
BRANCH  21  23
ATOM     22  O   LIG    1        3.859  -0.056   1.980  0.00  0.00    -0.480 OA
ATOM     23  C   LIG    1        4.607   0.639   2.634  0.00  0.00    +0.510 C 
ATOM     24  N   LIG    1        5.598   0.073   3.352  0.00  0.00    -0.670 N 
ATOM     25  H   LIG    1        6.144   0.619   3.939  0.00  0.00    +0.420 HD
BRANCH  24  26
ATOM     26  C   LIG    1        5.838  -1.302   3.250  0.00  0.00    +0.170 A 
ATOM     27  C   LIG    1        6.397  -1.991   4.318  0.00  0.00    +0.000 A 
ATOM     28  C   LIG    1        6.628  -3.349   4.217  0.00  0.00    +0.070 A 
ATOM     29  C   LIG    1        6.314  -4.021   3.049  0.00  0.00    -0.110 A 
ATOM     30  C   LIG    1        5.762  -3.335   1.981  0.00  0.00    +0.070 A 
ATOM     31 BR   LIG    1        6.639  -5.878   2.912  0.00  0.00    -0.050 Br
ATOM     32  C   LIG    1        5.523  -1.978   2.079  0.00  0.00    +0.030 A 
ENDBRANCH  24  26
ENDBRANCH  21  23
ENDBRANCH  20  21
ENDBRANCH  18  20
ENDBRANCH   1  18
TORSDOF 7
