REMARK  Name = ZINCrH000004k0eT.0
REMARK                            x       y       z     vdW  Elec       q    Type
REMARK                         _______ _______ _______ _____ _____    ______ ____
ROOT
ATOM      1  C   LIG    1        3.800  -6.670  -0.321  0.00  0.00    +0.280 C 
ATOM      2  N   LIG    1        2.453  -6.107  -0.199  0.00  0.00    -0.630 N 
ATOM      3  C   LIG    1        2.284  -4.771  -0.150  0.00  0.00    +0.700 C 
ATOM      4  N   LIG    1        3.353  -3.953  -0.213  0.00  0.00    -0.640 N 
ATOM      5  H   LIG    1        4.245  -4.326  -0.294  0.00  0.00    +0.420 HD
ATOM      6  O   LIG    1        1.166  -4.303  -0.049  0.00  0.00    -0.510 OA
ENDROOT
BRANCH   4   7
ATOM      7  C   LIG    1        3.179  -2.580  -0.163  0.00  0.00    +0.350 A 
ATOM      8  N   LIG    1        2.041  -1.987  -0.056  0.00  0.00    -0.460 NA
ATOM      9  C   LIG    1        2.033  -0.640  -0.020  0.00  0.00    +0.110 A 
ATOM     10  C   LIG    1        0.930   0.234   0.091  0.00  0.00    +0.070 A 
ATOM     11  C   LIG    1        1.120   1.593   0.113  0.00  0.00    +0.040 A 
ATOM     12  C   LIG    1        2.396   2.129   0.026  0.00  0.00    +0.030 A 
ATOM     13  C   LIG    1        3.487   1.296  -0.083  0.00  0.00    +0.060 A 
ATOM     14  C   LIG    1        3.314  -0.086  -0.106  0.00  0.00    -0.180 A 
ATOM     15  S   LIG    1        4.480  -1.400  -0.234  0.00  0.00    +0.060 S 
ENDBRANCH   4   7
BRANCH   2  16
ATOM     16  C   LIG    1        1.291  -6.996  -0.131  0.00  0.00    +0.400 C 
BRANCH  16  17
ATOM     17  C   LIG    1        0.849  -7.353  -1.526  0.00  0.00    -0.070 A 
ATOM     18  C   LIG    1        1.587  -6.931  -2.614  0.00  0.00    +0.020 A 
ATOM     19  C   LIG    1        1.185  -7.263  -3.896  0.00  0.00    +0.000 A 
ATOM     20  C   LIG    1        0.037  -8.009  -4.092  0.00  0.00    +0.010 A 
ATOM     21  C   LIG    1       -0.709  -8.430  -3.008  0.00  0.00    -0.020 A 
ATOM     22  C   LIG    1       -0.305  -8.103  -1.720  0.00  0.00    +0.090 A 
BRANCH  22  23
ATOM     23  N   LIG    1       -1.057  -8.526  -0.622  0.00  0.00    -0.500 N 
ATOM     24  C   LIG    1       -1.169  -9.992  -0.594  0.00  0.00    +0.160 C 
ATOM     25  C   LIG    1       -1.948 -10.415   0.654  0.00  0.00    +0.220 C 
ATOM     26  O   LIG    1       -3.227  -9.774   0.652  0.00  0.00    -0.380 OA
ATOM     27  C   LIG    1       -3.155  -8.346   0.626  0.00  0.00    +0.220 C 
ATOM     28  C   LIG    1       -2.388  -7.902  -0.623  0.00  0.00    +0.160 C 
ENDBRANCH  22  23
ENDBRANCH  16  17
ENDBRANCH   2  16
TORSDOF 4
