REMARK  Name = ZINCrg000000sMoc.0
REMARK                            x       y       z     vdW  Elec       q    Type
REMARK                         _______ _______ _______ _____ _____    ______ ____
ROOT
ATOM      1  N   LIG    1        1.256   3.469   0.009  0.00  0.00    -0.470 N 
ATOM      2  C   LIG    1        0.499   4.025  -1.121  0.00  0.00    +0.220 C 
ATOM      3  C   LIG    1        0.504   5.553  -1.032  0.00  0.00    +0.200 C 
ATOM      4  N   LIG    1        1.891   6.037  -1.043  0.00  0.00    -0.560 NA
ATOM      5  C   LIG    1        2.649   5.481   0.087  0.00  0.00    +0.210 C 
ATOM      6  C   LIG    1        2.644   3.953  -0.002  0.00  0.00    +0.240 C 
ENDROOT
BRANCH   1  12
ATOM      7  C   LIG    1       -1.765  -1.799   0.010  0.00  0.00    +0.370 C 
ATOM      8  N   LIG    1       -1.299  -0.410   0.013  0.00  0.00    -0.380 N 
ATOM      9  N   LIG    1       -2.114   0.729   0.027  0.00  0.00    -0.240 NA
ATOM     10  C   LIG    1       -1.372   1.799   0.030  0.00  0.00    +0.300 A 
ATOM     11  C   LIG    1       -0.017   1.404   0.010  0.00  0.00    -0.290 A 
ATOM     12  C   LIG    1        1.214   2.088   0.002  0.00  0.00    +0.450 A 
ATOM     13  N   LIG    1        2.333   1.373  -0.013  0.00  0.00    -0.580 NA
ATOM     14  C   LIG    1        2.301   0.052  -0.020  0.00  0.00    +0.580 A 
ATOM     15  N   LIG    1        1.177  -0.630  -0.013  0.00  0.00    -0.550 NA
ATOM     16  C   LIG    1        0.002  -0.004   0.002  0.00  0.00    +0.360 A 
ENDBRANCH   1  12
BRANCH   4  17
ATOM     17  C   LIG    1        1.937   7.505  -1.036  0.00  0.00    +0.490 C 
BRANCH  17  18
ATOM     18  N   LIG    1        1.727   8.007  -2.396  0.00  0.00    -0.540 N 
ATOM     19  C   LIG    1        2.686   8.254  -3.311  0.00  0.00    +0.640 A 
ATOM     20  O   LIG    1        2.119   8.701  -4.443  0.00  0.00    -0.240 OA
ATOM     21  C   LIG    1        0.775   8.760  -4.275  0.00  0.00    +0.040 A 
ATOM     22  C   LIG    1       -0.264   9.147  -5.105  0.00  0.00    +0.060 A 
ATOM     23  C   LIG    1       -1.567   9.098  -4.646  0.00  0.00    +0.030 A 
ATOM     24  C   LIG    1       -1.839   8.664  -3.361  0.00  0.00    +0.040 A 
ATOM     25  C   LIG    1       -0.808   8.277  -2.526  0.00  0.00    +0.020 A 
ATOM     26  O   LIG    1        3.879   8.094  -3.138  0.00  0.00    -0.480 OA
ATOM     27  C   LIG    1        0.500   8.323  -2.979  0.00  0.00    +0.070 A 
ENDBRANCH  17  18
ENDBRANCH   4  17
TORSDOF 3
