REMARK  Name = ZINCqH00000080PY.0
REMARK                            x       y       z     vdW  Elec       q    Type
REMARK                         _______ _______ _______ _____ _____    ______ ____
ROOT
ATOM      1  C   LIG    1       -2.482   0.853   0.018  0.00  0.00    +0.260 C 
ENDROOT
BRANCH   1   2
ATOM      2  C   LIG    1       -1.187   1.624   0.017  0.00  0.00    +0.520 C 
ATOM      3  N   LIG    1       -0.011   0.966   0.007  0.00  0.00    -0.720 N 
ATOM      4  H   LIG    1        0.002  -0.004   0.002  0.00  0.00    +0.410 HD
ATOM      5  O   LIG    1       -1.204   2.837   0.023  0.00  0.00    -0.530 OA
BRANCH   3   6
ATOM      6  C   LIG    1        1.248   1.716  -0.001  0.00  0.00    +0.320 C 
BRANCH   6   7
ATOM      7  C   LIG    1        2.406   0.752  -0.017  0.00  0.00    -0.130 A 
ATOM      8  C   LIG    1        2.952   0.308   1.173  0.00  0.00    +0.070 A 
ATOM      9  C   LIG    1        4.011  -0.580   1.159  0.00  0.00    -0.010 A 
ATOM     10  C   LIG    1        4.532  -1.016  -0.047  0.00  0.00    +0.110 A 
ATOM     11  C   LIG    1        3.988  -0.567  -1.238  0.00  0.00    -0.020 A 
ATOM     12  F   LIG    1        5.572  -1.879  -0.061  0.00  0.00    -0.140 F 
ATOM     13  C   LIG    1        2.926   0.317  -1.222  0.00  0.00    +0.070 A 
ENDBRANCH   6   7
ENDBRANCH   3   6
ENDBRANCH   1   2
BRANCH   1  14
ATOM     14  N   LIG    1       -3.608   1.789   0.029  0.00  0.00    -0.710 N 
ATOM     15  H   LIG    1       -3.493   2.683   0.388  0.00  0.00    +0.410 HD
ATOM     16  C   LIG    1       -4.805   1.410  -0.461  0.00  0.00    +0.550 C 
ATOM     17  O   LIG    1       -4.950   0.290  -0.911  0.00  0.00    -0.500 OA
BRANCH  16  18
ATOM     18  C   LIG    1       -5.941   2.355  -0.450  0.00  0.00    -0.120 A 
ATOM     19  C   LIG    1       -5.779   3.641   0.066  0.00  0.00    +0.060 A 
ATOM     20  C   LIG    1       -6.843   4.518   0.073  0.00  0.00    +0.030 A 
ATOM     21  C   LIG    1       -8.071   4.126  -0.430  0.00  0.00    +0.060 A 
ATOM     22  C   LIG    1       -8.240   2.853  -0.944  0.00  0.00    +0.040 A 
ATOM     23  C   LIG    1       -7.182   1.966  -0.962  0.00  0.00    -0.040 A 
ATOM     24 BR   LIG    1       -7.413   0.229  -1.672  0.00  0.00    -0.010 Br
ENDBRANCH  16  18
ENDBRANCH   1  14
BRANCH   1  25
ATOM     25  C   LIG    1       -2.545  -0.035   1.263  0.00  0.00    +0.060 C 
BRANCH  25  26
ATOM     26  C   LIG    1       -3.799  -0.909   1.203  0.00  0.00    +0.110 C 
BRANCH  26  28
ATOM     27  C   LIG    1       -5.402  -2.907   2.429  0.00  0.00    +0.140 C 
ATOM     28  S   LIG    1       -3.874  -1.961   2.679  0.00  0.00    -0.280 S 
ENDBRANCH  26  28
ENDBRANCH  25  26
ENDBRANCH   1  25
TORSDOF 8
