REMARK  Name = ZINCqH0000007Qo0.0
REMARK                            x       y       z     vdW  Elec       q    Type
REMARK                         _______ _______ _______ _____ _____    ______ ____
ROOT
ATOM      1  C   LIG    1        7.229   1.246   0.260  0.00  0.00    +0.330 C 
ENDROOT
BRANCH   1   2
ATOM      2  N   LIG    1        8.485   1.994   0.364  0.00  0.00    -0.550 N 
ATOM      3  C   LIG    1        8.970   2.330   1.588  0.00  0.00    +0.600 A 
ATOM      4  N   LIG    1       10.074   2.991   1.762  0.00  0.00    -0.510 NA
ATOM      5  C   LIG    1       10.832   3.397   0.713  0.00  0.00    +0.170 A 
ATOM      6  C   LIG    1       12.020   4.108   0.900  0.00  0.00    -0.020 A 
ATOM      7  C   LIG    1       12.759   4.502  -0.194  0.00  0.00    +0.100 A 
ATOM      8  C   LIG    1       12.338   4.201  -1.483  0.00  0.00    -0.050 A 
ATOM      9  C   LIG    1       11.168   3.500  -1.692  0.00  0.00    +0.130 A 
ATOM     10 CL   LIG    1       13.290   4.710  -2.842  0.00  0.00    -0.040 Cl
ATOM     11 CL   LIG    1       12.563   4.494   2.504  0.00  0.00    -0.020 Cl
ATOM     12  C   LIG    1       10.407   3.093  -0.599  0.00  0.00    -0.180 A 
ATOM     13  C   LIG    1        9.155   2.339  -0.761  0.00  0.00    +0.550 A 
ATOM     14  O   LIG    1        8.734   2.041  -1.864  0.00  0.00    -0.490 OA
ENDBRANCH   1   2
BRANCH   1  15
ATOM     15  C   LIG    1        6.058   2.226   0.174  0.00  0.00    +0.060 C 
BRANCH  15  18
ATOM     16  N   LIG    1        3.594   2.116  -0.020  0.00  0.00    -0.660 N 
ATOM     17  H   LIG    1        3.586   3.083  -0.095  0.00  0.00    +0.420 HD
ATOM     18  C   LIG    1        4.766   1.457   0.068  0.00  0.00    +0.520 C 
ATOM     19  O   LIG    1        4.782   0.244   0.062  0.00  0.00    -0.520 OA
BRANCH  16  25
ATOM     20  C   LIG    1        1.246   1.951  -0.587  0.00  0.00    +0.100 A 
ATOM     21  C   LIG    1        0.055   1.243  -0.565  0.00  0.00    -0.060 A 
ATOM     22  C   LIG    1        0.001  -0.001   0.036  0.00  0.00    +0.030 A 
ATOM     23  C   LIG    1        1.132  -0.543   0.616  0.00  0.00    +0.000 A 
ATOM     24  C   LIG    1        2.324   0.157   0.599  0.00  0.00    +0.060 A 
ATOM     25  C   LIG    1        2.387   1.405  -0.002  0.00  0.00    +0.120 A 
BRANCH  20  27
ATOM     26  C   LIG    1        0.093   3.670  -1.757  0.00  0.00    +0.250 C 
ATOM     27  O   LIG    1        1.302   3.174  -1.178  0.00  0.00    -0.320 OA
ENDBRANCH  20  27
ENDBRANCH  16  25
ENDBRANCH  15  18
ENDBRANCH   1  15
TORSDOF 5
