REMARK  Name = ZINCqH0000008qcc.0
REMARK                            x       y       z     vdW  Elec       q    Type
REMARK                         _______ _______ _______ _____ _____    ______ ____
ROOT
ATOM      1  C   LIG    1        4.123   3.656  -2.589  0.00  0.00    +0.030 C 
ATOM      2  C   LIG    1        3.547   3.011  -1.328  0.00  0.00    +0.040 C 
ATOM      3  C   LIG    1        3.122   1.577  -1.644  0.00  0.00    +0.030 C 
ATOM      4  C   LIG    1        2.361   1.009  -0.433  0.00  0.00    +0.270 C 
ATOM      5  N   LIG    1        1.143   1.811  -0.259  0.00  0.00    -0.560 N 
ATOM      6  C   LIG    1        1.234   3.209  -0.342  0.00  0.00    +0.140 A 
ATOM      7  C   LIG    1        0.162   3.986   0.096  0.00  0.00    +0.080 A 
ATOM      8  C   LIG    1        0.233   5.367   0.019  0.00  0.00    +0.000 A 
ATOM      9  C   LIG    1        1.367   5.971  -0.492  0.00  0.00    +0.000 A 
ATOM     10  C   LIG    1        2.429   5.200  -0.924  0.00  0.00    +0.030 A 
ATOM     11  C   LIG    1       -0.042   1.214  -0.019  0.00  0.00    +0.480 C 
ATOM     12  O   LIG    1       -1.076   1.813  -0.226  0.00  0.00    -0.430 OA
ATOM     13  C   LIG    1        2.368   3.817  -0.851  0.00  0.00    -0.100 A 
ENDROOT
BRANCH   7  14
ATOM     14  O   LIG    1       -0.952   3.389   0.598  0.00  0.00    -0.440 OA
ATOM     15  H   LIG    1       -0.963   3.324   1.563  0.00  0.00    +0.360 HD
ENDBRANCH   7  14
BRANCH  11  16
ATOM     16  C   LIG    1       -0.081  -0.196   0.512  0.00  0.00    +0.240 C 
ATOM     17  C   LIG    1        0.246  -0.187   2.006  0.00  0.00    +0.050 C 
BRANCH  16  18
ATOM     18  N   LIG    1       -1.419  -0.757   0.308  0.00  0.00    -0.710 N 
ATOM     19  H   LIG    1       -2.186  -0.168   0.237  0.00  0.00    +0.410 HD
ATOM     20  C   LIG    1       -1.583  -2.092   0.220  0.00  0.00    +0.570 C 
ATOM     21  O   LIG    1       -0.622  -2.830   0.310  0.00  0.00    -0.530 OA
BRANCH  20  22
ATOM     22  C   LIG    1       -2.933  -2.658   0.015  0.00  0.00    -0.130 A 
ATOM     23  C   LIG    1       -4.040  -1.813  -0.083  0.00  0.00    +0.070 A 
ATOM     24  C   LIG    1       -5.296  -2.348  -0.278  0.00  0.00    +0.020 A 
ATOM     25  C   LIG    1       -5.462  -3.720  -0.369  0.00  0.00    -0.010 A 
ATOM     26  C   LIG    1       -4.368  -4.563  -0.268  0.00  0.00    +0.020 A 
ATOM     27 CL   LIG    1       -7.048  -4.385  -0.609  0.00  0.00    -0.060 Cl
ATOM     28  C   LIG    1       -3.106  -4.041  -0.077  0.00  0.00    +0.110 A 
ENDBRANCH  20  22
ENDBRANCH  16  18
ENDBRANCH  11  16
TORSDOF 4
