REMARK  Name = ZINCqH00000h5QKS.0
REMARK                            x       y       z     vdW  Elec       q    Type
REMARK                         _______ _______ _______ _____ _____    ______ ____
ROOT
ATOM      1  N   LIG    1       -3.571  -0.986  -0.190  0.00  0.00    -0.540 N 
ENDROOT
BRANCH   1   2
ATOM      2  C   LIG    1       -2.413  -0.305  -0.090  0.00  0.00    +0.560 C 
ATOM      3  S   LIG    1       -0.921  -1.146  -0.102  0.00  0.00    -0.620 S 
BRANCH   2   4
ATOM      4  N   LIG    1       -2.428   1.038   0.019  0.00  0.00    -0.640 N 
ATOM      5  H   LIG    1       -3.272   1.510   0.086  0.00  0.00    +0.400 HD
BRANCH   4  10
ATOM      6  C   LIG    1        0.107   3.603  -0.716  0.00  0.00    +0.130 A 
ATOM      7  C   LIG    1        1.163   3.158   0.067  0.00  0.00    -0.070 A 
ATOM      8  C   LIG    1        1.024   2.016   0.833  0.00  0.00    +0.060 A 
ATOM      9  C   LIG    1       -0.166   1.314   0.821  0.00  0.00    +0.050 A 
ATOM     10  C   LIG    1       -1.225   1.752   0.035  0.00  0.00    +0.160 A 
ATOM     11  C   LIG    1       -1.089   2.902  -0.730  0.00  0.00    -0.030 A 
BRANCH   6  13
ATOM     12  C   LIG    1        1.505   5.398  -1.405  0.00  0.00    +0.250 C 
ATOM     13  O   LIG    1        0.245   4.726  -1.468  0.00  0.00    -0.320 OA
ENDBRANCH   6  13
ENDBRANCH   4  10
ENDBRANCH   2   4
ENDBRANCH   1   2
BRANCH   1  14
ATOM     14  C   LIG    1       -4.847  -0.266  -0.180  0.00  0.00    +0.280 C 
BRANCH  14  15
ATOM     15  C   LIG    1       -5.237   0.102  -1.613  0.00  0.00    +0.150 C 
ATOM     16  C   LIG    1       -6.520   0.960  -1.603  0.00  0.00    +0.020 C 
ATOM     17  C   LIG    1       -7.291   0.414  -2.835  0.00  0.00    +0.020 C 
ATOM     18  C   LIG    1       -6.885  -1.081  -2.797  0.00  0.00    +0.200 C 
ATOM     19  O   LIG    1       -5.517  -1.087  -2.361  0.00  0.00    -0.370 OA
ENDBRANCH  14  15
ENDBRANCH   1  14
BRANCH   1  20
ATOM     20  C   LIG    1       -3.555  -2.446  -0.308  0.00  0.00    +0.380 C 
BRANCH  20  21
ATOM     21  C   LIG    1       -3.603  -3.062   1.066  0.00  0.00    -0.140 A 
ATOM     22  C   LIG    1       -2.444  -3.525   1.657  0.00  0.00    +0.080 A 
ATOM     23  C   LIG    1       -2.488  -4.090   2.918  0.00  0.00    +0.000 A 
ATOM     24  C   LIG    1       -3.691  -4.194   3.591  0.00  0.00    +0.030 A 
ATOM     25  C   LIG    1       -4.854  -3.733   3.004  0.00  0.00    -0.020 A 
ATOM     26  C   LIG    1       -4.812  -3.160   1.741  0.00  0.00    +0.120 A 
BRANCH  26  27
ATOM     27  O   LIG    1       -5.953  -2.700   1.164  0.00  0.00    -0.500 OA
ATOM     28  H   LIG    1       -6.421  -3.362   0.635  0.00  0.00    +0.390 HD
ENDBRANCH  26  27
ENDBRANCH  20  21
ENDBRANCH   1  20
TORSDOF 9
