REMARK  Name = ZINCqH0000005Qks.0
REMARK                            x       y       z     vdW  Elec       q    Type
REMARK                         _______ _______ _______ _____ _____    ______ ____
ROOT
ATOM      1  N   LIG    1       -4.045   0.012   1.688  0.00  0.00    -0.620 N 
ATOM      2  C   LIG    1       -2.912   0.698   1.440  0.00  0.00    +0.510 C 
ATOM      3  O   LIG    1       -2.233   1.100   2.361  0.00  0.00    -0.510 OA
ATOM      4  C   LIG    1       -4.866  -0.473   0.576  0.00  0.00    +0.290 C 
ENDROOT
BRANCH   1   5
ATOM      5  C   LIG    1       -4.457  -0.247   3.070  0.00  0.00    +0.420 C 
BRANCH   5   9
ATOM      6  C   LIG    1       -7.076   2.206   4.049  0.00  0.00    -0.240 A 
ATOM      7  C   LIG    1       -5.921   2.798   4.472  0.00  0.00    +0.100 A 
ATOM      8  O   LIG    1       -4.900   1.990   4.172  0.00  0.00    -0.150 OA
ATOM      9  C   LIG    1       -5.332   0.880   3.554  0.00  0.00    -0.030 A 
ATOM     10  C   LIG    1       -5.816   4.132   5.165  0.00  0.00    +0.200 C 
ATOM     11  C   LIG    1       -6.668   0.931   3.441  0.00  0.00    +0.010 A 
BRANCH   6  12
ATOM     12  C   LIG    1       -8.445   2.734   4.176  0.00  0.00    +0.540 C 
ATOM     13  O   LIG    1       -8.634   3.811   4.706  0.00  0.00    -0.510 OA
BRANCH  12  15
ATOM     14  C   LIG    1      -10.809   2.605   3.862  0.00  0.00    +0.260 C 
ATOM     15  O   LIG    1       -9.488   2.023   3.703  0.00  0.00    -0.350 OA
ENDBRANCH  12  15
ENDBRANCH   6  12
ENDBRANCH   5   9
ENDBRANCH   1   5
BRANCH   2  16
ATOM     16  C   LIG    1       -2.489   0.965   0.019  0.00  0.00    +0.110 C 
BRANCH  16  17
ATOM     17  C   LIG    1       -1.198   1.744   0.017  0.00  0.00    -0.070 A 
ATOM     18  C   LIG    1       -0.013   1.076   0.008  0.00  0.00    +0.030 A 
ATOM     19  C   LIG    1        1.193   1.799   0.000  0.00  0.00    -0.050 A 
ATOM     20  C   LIG    1        2.436   1.145  -0.015  0.00  0.00    +0.020 A 
ATOM     21  C   LIG    1        3.583   1.878  -0.022  0.00  0.00    +0.000 A 
ATOM     22  C   LIG    1        3.544   3.271  -0.015  0.00  0.00    +0.000 A 
ATOM     23  C   LIG    1        2.358   3.938  -0.000  0.00  0.00    +0.020 A 
ATOM     24  C   LIG    1        1.153   3.216   0.008  0.00  0.00    -0.050 A 
ATOM     25  C   LIG    1       -0.090   3.870   0.023  0.00  0.00    +0.030 A 
ATOM     26  C   LIG    1       -1.237   3.137   0.030  0.00  0.00    +0.020 A 
ENDBRANCH  16  17
ENDBRANCH   2  16
TORSDOF 6
