REMARK  Name = ZINCpk00000y6xaQ.0
REMARK                            x       y       z     vdW  Elec       q    Type
REMARK                         _______ _______ _______ _____ _____    ______ ____
ROOT
ATOM      1  C   LIG    1        0.002  -0.004   0.002  0.00  0.00    +0.470 A 
ATOM      2  C   LIG    1        1.250  -0.659  -0.013  0.00  0.00    -0.130 A 
ATOM      3  N   LIG    1        1.631  -1.948  -0.024  0.00  0.00    -0.180 NA
ATOM      4  N   LIG    1        2.916  -2.030  -0.036  0.00  0.00    +0.010 NA
ATOM      5  N   LIG    1        3.464  -0.738  -0.035  0.00  0.00    -0.370 N 
ATOM      6  C   LIG    1        2.411   0.134  -0.020  0.00  0.00    +0.330 A 
ATOM      7  N   LIG    1        2.291   1.458  -0.012  0.00  0.00    -0.540 NA
ATOM      8  C   LIG    1        1.104   2.025   0.002  0.00  0.00    +0.600 A 
ATOM      9  N   LIG    1       -0.016   1.324   0.009  0.00  0.00    -0.570 NA
ENDROOT
BRANCH   1  12
ATOM     10  C   LIG    1       -3.619  -0.662   0.178  0.00  0.00    +0.190 C 
ATOM     11  C   LIG    1       -2.341   0.166   0.024  0.00  0.00    +0.250 C 
ATOM     12  N   LIG    1       -1.176  -0.727   0.009  0.00  0.00    -0.450 N 
ATOM     13  C   LIG    1       -1.231  -1.653  -1.129  0.00  0.00    +0.230 C 
ATOM     14  C   LIG    1       -2.475  -2.536  -1.010  0.00  0.00    +0.310 C 
ATOM     15  F   LIG    1       -2.539  -3.405  -2.104  0.00  0.00    -0.190 F 
ATOM     16  F   LIG    1       -2.409  -3.279   0.173  0.00  0.00    -0.180 F 
ATOM     17  C   LIG    1       -3.724  -1.650  -0.987  0.00  0.00    +0.010 C 
BRANCH  10  18
ATOM     18  O   LIG    1       -4.754   0.205   0.173  0.00  0.00    -0.550 OA
ATOM     19  H   LIG    1       -5.600  -0.253   0.267  0.00  0.00    +0.390 HD
ENDBRANCH  10  18
ENDBRANCH   1  12
BRANCH   5  20
ATOM     20  C   LIG    1        4.887  -0.391  -0.046  0.00  0.00    +0.400 C 
BRANCH  20  21
ATOM     21  C   LIG    1        5.389  -0.279   1.371  0.00  0.00    -0.130 A 
ATOM     22  C   LIG    1        5.340   0.936   2.027  0.00  0.00    +0.040 A 
ATOM     23  C   LIG    1        5.797   1.038   3.328  0.00  0.00    +0.010 A 
ATOM     24  C   LIG    1        6.309  -0.074   3.970  0.00  0.00    +0.030 A 
ATOM     25  C   LIG    1        6.362  -1.289   3.312  0.00  0.00    +0.010 A 
ATOM     26  C   LIG    1        5.902  -1.391   2.012  0.00  0.00    +0.040 A 
ENDBRANCH  20  21
ENDBRANCH   5  20
TORSDOF 4
