REMARK  Name = ZINCrD00000hQ4rh.0
REMARK                            x       y       z     vdW  Elec       q    Type
REMARK                         _______ _______ _______ _____ _____    ______ ____
ROOT
ATOM      1  C   LIG    1        3.043   3.888   1.630  0.00  0.00    +0.530 C 
ATOM      2  N   LIG    1        2.462   4.110   0.434  0.00  0.00    -0.590 N 
ATOM      3  C   LIG    1        3.034   4.908  -0.665  0.00  0.00    +0.280 C 
ATOM      4  C   LIG    1        1.812   5.369  -1.498  0.00  0.00    +0.040 C 
ATOM      5  C   LIG    1        0.887   4.123  -1.415  0.00  0.00    +0.050 C 
ATOM      6  C   LIG    1        1.152   3.594   0.010  0.00  0.00    +0.280 C 
ATOM      7  O   LIG    1        2.478   3.211   2.464  0.00  0.00    -0.500 OA
ENDROOT
BRANCH   6   8
ATOM      8  C   LIG    1        1.172   2.087   0.002  0.00  0.00    -0.070 A 
ATOM      9  C   LIG    1        2.378   1.413  -0.014  0.00  0.00    +0.050 A 
ATOM     10  C   LIG    1        2.397   0.029  -0.021  0.00  0.00    -0.030 A 
ATOM     11  C   LIG    1        1.208  -0.679  -0.013  0.00  0.00    +0.040 A 
ATOM     12  C   LIG    1        0.002  -0.004   0.002  0.00  0.00    +0.060 A 
ATOM     13 CL   LIG    1        3.912  -0.818  -0.040  0.00  0.00    -0.060 Cl
ATOM     14  C   LIG    1       -0.017   1.379   0.010  0.00  0.00    -0.020 A 
ATOM     15 CL   LIG    1       -1.532   2.227   0.021  0.00  0.00    -0.050 Cl
ENDBRANCH   6   8
BRANCH   1  17
ATOM     16  O   LIG    1        4.948   5.153   1.094  0.00  0.00    -0.510 OA
ATOM     17  C   LIG    1        4.382   4.475   1.928  0.00  0.00    +0.510 C 
ATOM     18  N   LIG    1        4.964   4.254   3.124  0.00  0.00    -0.600 N 
ATOM     19  H   LIG    1        4.512   3.713   3.790  0.00  0.00    +0.430 HD
BRANCH  18  20
ATOM     20  C   LIG    1        6.223   4.806   3.404  0.00  0.00    -0.000 A 
ATOM     21  C   LIG    1        6.941   4.662   4.591  0.00  0.00    +0.240 A 
ATOM     22  N   LIG    1        6.684   4.013   5.733  0.00  0.00    -0.460 NA
ATOM     23  C   LIG    1        7.543   4.031   6.725  0.00  0.00    +0.360 A 
ATOM     24  C   LIG    1        8.751   4.735   6.603  0.00  0.00    -0.050 A 
ATOM     25  C   LIG    1        9.024   5.396   5.452  0.00  0.00    +0.350 A 
ATOM     26  N   LIG    1        8.113   5.362   4.434  0.00  0.00    -0.310 N 
ATOM     27  N   LIG    1        8.103   5.928   3.154  0.00  0.00    -0.300 NA
ATOM     28  C   LIG    1        6.987   5.593   2.547  0.00  0.00    +0.320 A 
ENDBRANCH  18  20
ENDBRANCH   1  17
TORSDOF 3
