REMARK  Name = ZINCqH0000007kRr.1
REMARK                            x       y       z     vdW  Elec       q    Type
REMARK                         _______ _______ _______ _____ _____    ______ ____
ROOT
ATOM      1  C   LIG    1        2.914   7.825   0.013  0.00  0.00    +0.520 C 
ATOM      2  N   LIG    1        3.202   6.509   0.004  0.00  0.00    -0.610 N 
ATOM      3  H   LIG    1        4.126   6.215  -0.007  0.00  0.00    +0.430 HD
ATOM      4  O   LIG    1        1.758   8.193   0.026  0.00  0.00    -0.490 OA
ENDROOT
BRANCH   2   5
ATOM      5  C   LIG    1        2.177   5.574   0.010  0.00  0.00    +0.280 A 
ATOM      6  N   LIG    1        2.290   4.265   0.008  0.00  0.00    -0.540 NA
ATOM      7  C   LIG    1        1.168   3.570   0.010  0.00  0.00    +0.330 A 
ATOM      8  N   LIG    1        0.043   4.239   0.024  0.00  0.00    -0.500 NA
ATOM      9  S   LIG    1        0.482   5.880   0.028  0.00  0.00    +0.330 S 
BRANCH   7  10
ATOM     10  C   LIG    1        1.182   2.086   0.002  0.00  0.00    -0.030 A 
ATOM     11  C   LIG    1       -0.017   1.376   0.010  0.00  0.00    +0.060 A 
ATOM     12  C   LIG    1        0.002  -0.004   0.002  0.00  0.00    +0.000 A 
ATOM     13  C   LIG    1        1.208  -0.682  -0.013  0.00  0.00    +0.030 A 
ATOM     14  C   LIG    1        2.401   0.018  -0.020  0.00  0.00    +0.000 A 
ATOM     15  C   LIG    1        2.394   1.398  -0.013  0.00  0.00    +0.070 A 
ENDBRANCH   7  10
ENDBRANCH   2   5
BRANCH   1  16
ATOM     16  C   LIG    1        4.027   8.840   0.006  0.00  0.00    +0.100 C 
BRANCH  16  17
ATOM     17  C   LIG    1        3.433  10.250   0.019  0.00  0.00    +0.120 C 
BRANCH  17  22
ATOM     18  C   LIG    1        6.023  12.737   1.196  0.00  0.00    +0.100 A 
ATOM     19  C   LIG    1        6.593  13.133  -0.005  0.00  0.00    -0.040 A 
ATOM     20  C   LIG    1        6.141  12.596  -1.194  0.00  0.00    -0.040 A 
ATOM     21  C   LIG    1        5.117  11.661  -1.188  0.00  0.00    +0.100 A 
ATOM     22  C   LIG    1        4.546  11.265   0.012  0.00  0.00    -0.080 A 
ATOM     23  C   LIG    1        4.995  11.806   1.201  0.00  0.00    +0.030 A 
BRANCH  18  25
ATOM     24  C   LIG    1        7.526  14.223   2.286  0.00  0.00    +0.240 C 
ATOM     25  O   LIG    1        6.468  13.266   2.367  0.00  0.00    -0.320 OA
ENDBRANCH  18  25
BRANCH  21  26
ATOM     26  O   LIG    1        4.672  11.132  -2.360  0.00  0.00    -0.310 OA
ATOM     27  C   LIG    1        5.306  11.585  -3.558  0.00  0.00    +0.240 C 
ENDBRANCH  21  26
ENDBRANCH  17  22
ENDBRANCH  16  17
ENDBRANCH   1  16
TORSDOF 7
