REMARK  Name = ZINCrg000000rEnj.0
REMARK                            x       y       z     vdW  Elec       q    Type
REMARK                         _______ _______ _______ _____ _____    ______ ____
ROOT
ATOM      1  N   LIG    1       -2.696   3.332  -1.634  0.00  0.00    -0.720 N 
ATOM      2  H   LIG    1       -3.204   3.697  -0.892  0.00  0.00    +0.400 HD
ATOM      3  C   LIG    1       -1.620   2.556  -1.397  0.00  0.00    +0.500 C 
ATOM      4  O   LIG    1       -0.986   2.100  -2.324  0.00  0.00    -0.520 OA
ENDROOT
BRANCH   1   6
ATOM      5  C   LIG    1       -3.985   2.492  -3.535  0.00  0.00    +0.040 C 
ATOM      6  C   LIG    1       -3.100   3.625  -3.011  0.00  0.00    +0.280 C 
BRANCH   6   7
ATOM      7  C   LIG    1       -3.870   4.920  -3.045  0.00  0.00    -0.030 A 
ATOM      8  C   LIG    1       -4.781   5.208  -2.046  0.00  0.00    -0.010 A 
ATOM      9  C   LIG    1       -5.484   6.398  -2.075  0.00  0.00    +0.140 A 
ATOM     10  C   LIG    1       -5.282   7.295  -3.108  0.00  0.00    -0.680 A 
ATOM     11  C   LIG    1       -4.375   7.004  -4.109  0.00  0.00    +0.140 A 
ATOM     12  C   LIG    1       -3.669   5.816  -4.078  0.00  0.00    +0.010 A 
BRANCH  10  13
ATOM     13  S   LIG    1       -6.183   8.809  -3.147  0.00  0.00    +2.700 S 
ATOM     14  O   LIG    1       -5.414   9.713  -3.930  0.00  0.00    -0.960 OA
ATOM     15  O   LIG    1       -6.572   9.080  -1.808  0.00  0.00    -0.960 OA
BRANCH  13  16
ATOM     16  N   LIG    1       -7.579   8.528  -3.992  0.00  0.00    -1.250 NA
ATOM     17  H   LIG    1       -8.217   9.246  -4.127  0.00  0.00    +0.420 HD
ATOM     18  H   LIG    1       -7.758   7.646  -4.353  0.00  0.00    +0.420 HD
ENDBRANCH  13  16
ENDBRANCH  10  13
ENDBRANCH   6   7
ENDBRANCH   1   6
BRANCH   3  19
ATOM     19  C   LIG    1       -1.205   2.255   0.020  0.00  0.00    +0.420 C 
BRANCH  19  20
ATOM     20  N   LIG    1       -0.017   1.399   0.010  0.00  0.00    -0.440 N 
ATOM     21  N   LIG    1        0.002  -0.004   0.002  0.00  0.00    -0.250 NA
ATOM     22  C   LIG    1        1.250  -0.384  -0.012  0.00  0.00    +0.330 A 
ATOM     23  O   LIG    1        2.043   0.710  -0.014  0.00  0.00    -0.260 OA
ATOM     24  C   LIG    1        1.269   1.808  -0.000  0.00  0.00    +0.620 A 
ATOM     25  O   LIG    1        1.657   2.962   0.002  0.00  0.00    -0.470 OA
BRANCH  22  26
ATOM     26  C   LIG    1        1.718  -1.779  -0.024  0.00  0.00    -0.170 A 
ATOM     27  C   LIG    1        3.012  -2.168  -0.038  0.00  0.00    +0.090 A 
ATOM     28  C   LIG    1        3.202  -3.533  -0.046  0.00  0.00    +0.010 A 
ATOM     29  C   LIG    1        2.081  -4.262  -0.039  0.00  0.00    -0.010 A 
ATOM     30  S   LIG    1        0.680  -3.199  -0.013  0.00  0.00    +0.210 S 
ENDBRANCH  22  26
ENDBRANCH  19  20
ENDBRANCH   3  19
TORSDOF 7
