REMARK  Name = ZINCvU00000005v0.0
REMARK                            x       y       z     vdW  Elec       q    Type
REMARK                         _______ _______ _______ _____ _____    ______ ____
ROOT
ATOM      1  C   LIG    1        2.288   1.399  -0.012  0.00  0.00    +0.530 A 
ATOM      2  N   LIG    1        2.336   0.075  -0.020  0.00  0.00    -0.590 NA
ATOM      3  C   LIG    1        1.224  -0.646  -0.013  0.00  0.00    +0.370 A 
ATOM      4  C   LIG    1        0.002  -0.004   0.002  0.00  0.00    -0.180 A 
ATOM      5  C   LIG    1       -0.017   1.393   0.010  0.00  0.00    +0.460 A 
ATOM      6  N   LIG    1        1.136   2.053   0.002  0.00  0.00    -0.580 NA
ENDROOT
BRANCH   1  10
ATOM      7  C   LIG    1        5.482   1.580  -1.274  0.00  0.00    -0.010 C 
ATOM      8  C   LIG    1        5.049   3.039  -1.574  0.00  0.00    +0.050 C 
ATOM      9  C   LIG    1        3.546   3.003  -1.201  0.00  0.00    +0.210 C 
ATOM     10  N   LIG    1        3.471   2.117  -0.020  0.00  0.00    -0.450 N 
ATOM     11  C   LIG    1        4.637   1.214  -0.036  0.00  0.00    +0.220 C 
BRANCH   7  12
ATOM     12  C   LIG    1        6.975   1.514  -0.949  0.00  0.00    +0.160 C 
BRANCH  12  17
ATOM     13  C   LIG    1        8.563  -3.055  -2.056  0.00  0.00    +0.150 C 
ATOM     14  C   LIG    1        8.075  -1.970  -1.131  0.00  0.00    +0.070 A 
ATOM     15  C   LIG    1        7.912  -2.159   0.182  0.00  0.00    -0.090 A 
ATOM     16  S   LIG    1        7.338  -0.646   0.880  0.00  0.00    +0.120 S 
ATOM     17  C   LIG    1        7.365   0.086  -0.665  0.00  0.00    +0.050 A 
ATOM     18  N   LIG    1        7.773  -0.758  -1.551  0.00  0.00    -0.470 NA
ENDBRANCH  12  17
ENDBRANCH   7  12
ENDBRANCH   1  10
BRANCH   5  19
ATOM     19  N   LIG    1       -1.220   2.079   0.019  0.00  0.00    -0.710 N 
ATOM     20  H   LIG    1       -1.225   3.049   0.025  0.00  0.00    +0.410 HD
BRANCH  19  21
ATOM     21  C   LIG    1       -2.485   1.340   0.021  0.00  0.00    +0.350 C 
BRANCH  21  22
ATOM     22  C   LIG    1       -3.635   2.314   0.032  0.00  0.00    -0.120 A 
ATOM     23  C   LIG    1       -4.369   2.530  -1.119  0.00  0.00    +0.080 A 
ATOM     24  C   LIG    1       -5.424   3.423  -1.110  0.00  0.00    +0.070 A 
ATOM     25  C   LIG    1       -5.747   4.100   0.051  0.00  0.00    -0.140 A 
ATOM     26  C   LIG    1       -5.016   3.885   1.204  0.00  0.00    +0.040 A 
ATOM     27  C   LIG    1       -3.962   2.987   1.197  0.00  0.00    +0.120 A 
ATOM     28  F   LIG    1       -3.249   2.772   2.325  0.00  0.00    -0.120 F 
BRANCH  25  29
ATOM     29  C   LIG    1       -6.897   5.074   0.060  0.00  0.00    +0.510 C 
ATOM     30  F   LIG    1       -7.037   5.642  -1.211  0.00  0.00    -0.170 F 
ATOM     31  F   LIG    1       -6.648   6.082   0.997  0.00  0.00    -0.170 F 
ATOM     32  F   LIG    1       -8.075   4.401   0.402  0.00  0.00    -0.170 F 
ENDBRANCH  25  29
ENDBRANCH  21  22
ENDBRANCH  19  21
ENDBRANCH   5  19
TORSDOF 7
