REMARK  Name = ZINCkj000005lzMX.1
REMARK                            x       y       z     vdW  Elec       q    Type
REMARK                         _______ _______ _______ _____ _____    ______ ____
ROOT
ATOM      1  N   LIG    1        0.382   4.370   4.357  0.00  0.00    -0.480 N 
ATOM      2  H   LIG    1       -0.463   4.872   4.586  0.00  0.00    +0.440 HD
ATOM      3  H   LIG    1        1.042   5.001   3.927  0.00  0.00    +0.430 HD
ENDROOT
BRANCH   1   4
ATOM      4  C   LIG    1        0.967   3.809   5.582  0.00  0.00    +0.150 C 
ATOM      5  C   LIG    1       -0.051   2.883   6.278  0.00  0.00    +0.080 C 
ATOM      6  C   LIG    1        0.177   3.136   7.789  0.00  0.00    +0.060 C 
ATOM      7  C   LIG    1        0.453   4.659   7.844  0.00  0.00    +0.060 C 
ATOM      8  C   LIG    1        1.288   4.938   6.577  0.00  0.00    +0.060 C 
BRANCH   4   9
ATOM      9  C   LIG    1        2.221   3.042   5.250  0.00  0.00    -0.050 A 
ATOM     10  N   LIG    1        2.295   2.087   4.386  0.00  0.00    -0.460 NA
ATOM     11  C   LIG    1        3.473   1.520   4.216  0.00  0.00    +0.230 A 
ATOM     12  C   LIG    1        4.446   2.025   4.981  0.00  0.00    -0.040 A 
ATOM     13  S   LIG    1        3.752   3.314   5.961  0.00  0.00    +0.240 S 
ENDBRANCH   4   9
ENDBRANCH   1   4
BRANCH   1  14
ATOM     14  C   LIG    1        0.066   3.281   3.422  0.00  0.00    +0.300 C 
BRANCH  14  16
ATOM     15  O   LIG    1       -0.684   5.055   2.058  0.00  0.00    -0.530 OA
ATOM     16  C   LIG    1       -0.535   3.857   2.165  0.00  0.00    +0.500 C 
ATOM     17  N   LIG    1       -0.905   3.039   1.160  0.00  0.00    -0.590 N 
ATOM     18  C   LIG    1       -0.732   1.581   1.268  0.00  0.00    +0.260 C 
ATOM     19  C   LIG    1       -0.013   1.086   0.008  0.00  0.00    +0.230 C 
ATOM     20  O   LIG    1       -0.706   1.560  -1.149  0.00  0.00    -0.370 OA
ATOM     21  C   LIG    1       -0.736   2.985  -1.270  0.00  0.00    +0.230 C 
ATOM     22  C   LIG    1       -1.493   3.577  -0.076  0.00  0.00    +0.270 C 
ENDBRANCH  14  16
ENDBRANCH   1  14
TORSDOF 4
