REMARK  Name = ZINCtV00000L6kWF.0
REMARK                            x       y       z     vdW  Elec       q    Type
REMARK                         _______ _______ _______ _____ _____    ______ ____
ROOT
ATOM      1  C   LIG    1        3.451   3.642   0.920  0.00  0.00    -0.060 A 
ATOM      2  C   LIG    1        2.423   3.937   0.000  0.00  0.00    +0.070 A 
ATOM      3  C   LIG    1        2.635   4.971  -0.914  0.00  0.00    -0.020 A 
ATOM      4  C   LIG    1        3.830   5.660  -0.893  0.00  0.00    +0.210 A 
ATOM      5  N   LIG    1        4.779   5.362  -0.025  0.00  0.00    -0.480 NA
ATOM      6  C   LIG    1        4.638   4.392   0.866  0.00  0.00    +0.160 A 
ENDROOT
BRANCH   2   7
ATOM      7  C   LIG    1        1.153   3.175   0.008  0.00  0.00    -0.090 A 
ATOM      8  C   LIG    1        1.173   1.780   0.000  0.00  0.00    +0.070 A 
ATOM      9  C   LIG    1       -0.013   1.076   0.008  0.00  0.00    -0.010 A 
ATOM     10  C   LIG    1       -1.223   1.751   0.017  0.00  0.00    +0.120 A 
ATOM     11  C   LIG    1       -1.248   3.137   0.030  0.00  0.00    -0.010 A 
ATOM     12  F   LIG    1       -2.381   1.057   0.019  0.00  0.00    -0.130 F 
ATOM     13  C   LIG    1       -0.068   3.850   0.022  0.00  0.00    +0.080 A 
ENDBRANCH   2   7
BRANCH   4  14
ATOM     14  C   LIG    1        4.058   6.775  -1.880  0.00  0.00    +0.010 C 
ATOM     15  C   LIG    1        3.129   6.843  -3.094  0.00  0.00    +0.040 C 
ATOM     16  C   LIG    1        4.582   6.395  -3.267  0.00  0.00    +0.050 C 
ENDBRANCH   4  14
BRANCH   1  18
ATOM     17  N   LIG    1        3.162   1.767   2.651  0.00  0.00    -0.380 NA
ATOM     18  C   LIG    1        3.290   2.596   1.885  0.00  0.00    +0.250 C 
ENDBRANCH   1  18
BRANCH   6  19
ATOM     19  S   LIG    1        5.945   4.046   1.996  0.00  0.00    +0.020 S 
BRANCH  19  20
ATOM     20  C   LIG    1        7.153   5.286   1.470  0.00  0.00    +0.090 C 
BRANCH  20  21
ATOM     21  C   LIG    1        8.391   5.175   2.323  0.00  0.00    +0.410 C 
ATOM     22  O   LIG    1        8.450   4.339   3.199  0.00  0.00    -0.430 OA
BRANCH  21  23
ATOM     23  C   LIG    1        9.527   6.080   2.091  0.00  0.00    -0.160 A 
ATOM     24  C   LIG    1        9.464   7.042   1.077  0.00  0.00    +0.090 A 
ATOM     25  C   LIG    1       10.530   7.890   0.869  0.00  0.00    +0.020 A 
ATOM     26  C   LIG    1       11.667   7.785   1.655  0.00  0.00    -0.000 A 
ATOM     27  C   LIG    1       11.738   6.831   2.658  0.00  0.00    +0.020 A 
ATOM     28 CL   LIG    1       13.008   8.852   1.381  0.00  0.00    -0.060 Cl
ATOM     29  C   LIG    1       10.678   5.980   2.880  0.00  0.00    +0.110 A 
ENDBRANCH  21  23
ENDBRANCH  20  21
ENDBRANCH  19  20
ENDBRANCH   6  19
TORSDOF 7
