REMARK  Name = ZINCkj000005i3td.0
REMARK                            x       y       z     vdW  Elec       q    Type
REMARK                         _______ _______ _______ _____ _____    ______ ____
ROOT
ATOM      1  C   LIG    1       -4.501   3.915   8.125  0.00  0.00    +0.000 C 
ATOM      2  C   LIG    1       -5.267   4.740   7.089  0.00  0.00    +0.020 C 
ATOM      3  C   LIG    1       -4.277   5.333   6.080  0.00  0.00    +0.250 C 
ATOM      4  N   LIG    1       -3.474   4.242   5.509  0.00  0.00    -0.620 N 
ATOM      5  C   LIG    1       -2.773   3.329   6.422  0.00  0.00    +0.300 C 
ATOM      6  C   LIG    1       -3.388   4.080   4.174  0.00  0.00    +0.710 C 
ATOM      7  N   LIG    1       -3.953   4.982   3.348  0.00  0.00    -0.740 N 
ATOM      8  H   LIG    1       -4.483   5.708   3.712  0.00  0.00    +0.400 HD
ATOM      9  O   LIG    1       -2.799   3.120   3.715  0.00  0.00    -0.580 OA
ATOM     10  C   LIG    1       -3.775   2.762   7.426  0.00  0.00    +0.010 C 
ENDROOT
BRANCH   7  11
ATOM     11  C   LIG    1       -3.766   4.867   1.899  0.00  0.00    +0.290 C 
ATOM     12  C   LIG    1       -3.911   6.204   1.151  0.00  0.00    +0.070 C 
ATOM     13  C   LIG    1       -4.665   5.420   0.070  0.00  0.00    -0.140 C 
ATOM     14  C   LIG    1       -4.262   5.171  -1.381  0.00  0.00    +0.150 C 
ATOM     15  C   LIG    1       -5.536   5.957  -1.060  0.00  0.00    +0.120 C 
ATOM     16  C   LIG    1       -5.026   4.396   1.151  0.00  0.00    +0.080 C 
BRANCH  15  17
ATOM     17  N   LIG    1       -5.518   7.406  -1.301  0.00  0.00    -0.610 N 
ATOM     18  H   LIG    1       -4.578   7.698  -1.525  0.00  0.00    +0.430 HD
ATOM     19  H   LIG    1       -5.832   7.889  -0.472  0.00  0.00    +0.440 HD
ATOM     20  H   LIG    1       -6.131   7.627  -2.071  0.00  0.00    +0.440 HD
ENDBRANCH  15  17
ENDBRANCH   7  11
BRANCH   1  21
ATOM     21  C   LIG    1       -5.482   3.350   9.153  0.00  0.00    +0.030 C 
BRANCH  21  22
ATOM     22  C   LIG    1       -4.706   2.629  10.257  0.00  0.00    +0.160 C 
BRANCH  22  24
ATOM     23  C   LIG    1       -4.997   1.405  12.297  0.00  0.00    +0.200 C 
ATOM     24  O   LIG    1       -5.623   2.102  11.218  0.00  0.00    -0.390 OA
ENDBRANCH  22  24
ENDBRANCH  21  22
ENDBRANCH   1  21
TORSDOF 5
