REMARK  Name = ZINCqH00000501f8.0
REMARK                            x       y       z     vdW  Elec       q    Type
REMARK                         _______ _______ _______ _____ _____    ______ ____
ROOT
ATOM      1  C   LIG    1       -2.920   1.143  -0.891  0.00  0.00    +0.160 C 
ATOM      2  C   LIG    1       -3.040  -0.380  -0.803  0.00  0.00    +0.080 C 
ENDROOT
BRANCH   1   3
ATOM      3  C   LIG    1       -3.187   1.747   0.464  0.00  0.00    +0.450 C 
ATOM      4  O   LIG    1       -4.263   2.256   0.700  0.00  0.00    -0.410 OA
BRANCH   3   7
ATOM      5  C   LIG    1       -0.900   3.820   0.746  0.00  0.00    +0.150 C 
ATOM      6  C   LIG    1       -1.149   2.620   1.623  0.00  0.00    +0.150 A 
ATOM      7  C   LIG    1       -2.181   1.720   1.462  0.00  0.00    -0.270 A 
ATOM      8  C   LIG    1       -2.026   0.720   2.537  0.00  0.00    -0.060 A 
ATOM      9  C   LIG    1       -2.733  -0.419   2.908  0.00  0.00    +0.040 A 
ATOM     10  C   LIG    1       -2.321  -1.154   3.998  0.00  0.00    +0.000 A 
ATOM     11  C   LIG    1       -1.207  -0.762   4.725  0.00  0.00    +0.030 A 
ATOM     12  C   LIG    1       -0.497   0.364   4.369  0.00  0.00    +0.000 A 
ATOM     13  C   LIG    1       -0.897   1.119   3.271  0.00  0.00    +0.090 A 
ATOM     14  N   LIG    1       -0.402   2.266   2.686  0.00  0.00    -0.570 N 
ATOM     15  H   LIG    1        0.378   2.752   2.997  0.00  0.00    +0.420 HD
ENDBRANCH   3   7
ENDBRANCH   1   3
BRANCH   1  16
ATOM     16  O   LIG    1       -3.889   1.651  -1.846  0.00  0.00    -0.320 OA
BRANCH  16  17
ATOM     17  C   LIG    1       -3.489   1.750  -3.129  0.00  0.00    +0.560 C 
ATOM     18  O   LIG    1       -2.361   1.421  -3.441  0.00  0.00    -0.490 OA
BRANCH  17  19
ATOM     19  C   LIG    1       -4.418   2.257  -4.153  0.00  0.00    +0.010 A 
ATOM     20  N   LIG    1       -5.663   2.642  -3.967  0.00  0.00    -0.170 NA
ATOM     21  N   LIG    1       -6.211   3.037  -5.059  0.00  0.00    -0.410 N 
ATOM     22  H   LIG    1       -7.123   3.361  -5.128  0.00  0.00    +0.450 HD
ATOM     23  C   LIG    1       -5.344   2.935  -6.116  0.00  0.00    +0.060 A 
ATOM     24  C   LIG    1       -5.424   3.212  -7.476  0.00  0.00    +0.010 A 
ATOM     25  C   LIG    1       -4.331   2.987  -8.283  0.00  0.00    +0.060 A 
ATOM     26  C   LIG    1       -3.149   2.486  -7.754  0.00  0.00    +0.000 A 
ATOM     27  C   LIG    1       -3.050   2.206  -6.419  0.00  0.00    +0.090 A 
ATOM     28  C   LIG    1       -4.142   2.426  -5.586  0.00  0.00    -0.100 A 
ENDBRANCH  17  19
ENDBRANCH  16  17
ENDBRANCH   1  16
TORSDOF 5
