REMARK  Name = ZINCvU00000005kF.0
REMARK                            x       y       z     vdW  Elec       q    Type
REMARK                         _______ _______ _______ _____ _____    ______ ____
ROOT
ATOM      1  C   LIG    1        0.329   4.638   1.894  0.00  0.00    +0.510 C 
ATOM      2  N   LIG    1        0.217   3.607   1.032  0.00  0.00    -0.610 N 
ATOM      3  C   LIG    1        0.856   2.317   1.321  0.00  0.00    +0.270 C 
ATOM      4  C   LIG    1        1.732   1.921   0.128  0.00  0.00    +0.010 C 
ATOM      5  C   LIG    1        0.885   1.932  -1.147  0.00  0.00    +0.020 C 
ATOM      6  C   LIG    1        0.345   3.343  -1.390  0.00  0.00    +0.030 C 
ATOM      7  C   LIG    1       -0.547   3.754  -0.214  0.00  0.00    +0.320 C 
ATOM      8  O   LIG    1       -0.247   5.681   1.670  0.00  0.00    -0.490 OA
ENDROOT
BRANCH   7   9
ATOM      9  C   LIG    1       -0.975   5.189  -0.382  0.00  0.00    +0.220 A 
ATOM     10  N   LIG    1       -0.199   6.230  -0.259  0.00  0.00    -0.410 NA
ATOM     11  C   LIG    1       -0.920   7.348  -0.478  0.00  0.00    +0.040 A 
ATOM     12  C   LIG    1       -2.197   6.971  -0.748  0.00  0.00    +0.150 A 
ATOM     13  N   LIG    1       -2.223   5.605  -0.691  0.00  0.00    -0.560 N 
ATOM     14  H   LIG    1       -2.995   5.039  -0.842  0.00  0.00    +0.420 HD
BRANCH  11  15
ATOM     15  C   LIG    1       -0.410   8.741  -0.432  0.00  0.00    +0.040 A 
ATOM     16  C   LIG    1       -1.092   9.757  -1.099  0.00  0.00    +0.000 A 
ATOM     17  C   LIG    1       -0.617  11.052  -1.050  0.00  0.00    +0.040 A 
ATOM     18  C   LIG    1        0.540  11.342  -0.350  0.00  0.00    -0.030 A 
ATOM     19  C   LIG    1        1.226  10.335   0.310  0.00  0.00    +0.100 A 
ATOM     20  F   LIG    1        2.356  10.624   0.993  0.00  0.00    -0.140 F 
ATOM     21  C   LIG    1        0.756   9.036   0.272  0.00  0.00    +0.010 A 
ENDBRANCH  11  15
ENDBRANCH   7   9
BRANCH   1  22
ATOM     22  C   LIG    1        1.171   4.492   3.136  0.00  0.00    +0.050 C 
BRANCH  22  23
ATOM     23  C   LIG    1        1.338   5.860   3.801  0.00  0.00    +0.060 C 
ATOM     24  C   LIG    1        2.178   6.767   2.900  0.00  0.00    +0.030 C 
BRANCH  23  28
ATOM     25  C   LIG    1        3.301   5.381   7.567  0.00  0.00    +0.120 A 
ATOM     26  C   LIG    1        2.031   5.938   7.511  0.00  0.00    -0.020 A 
ATOM     27  C   LIG    1        1.399   6.092   6.292  0.00  0.00    +0.050 A 
ATOM     28  C   LIG    1        2.030   5.691   5.129  0.00  0.00    -0.110 A 
ATOM     29  C   LIG    1        3.293   5.131   5.183  0.00  0.00    +0.050 A 
ATOM     30  C   LIG    1        3.932   4.981   6.398  0.00  0.00    -0.080 A 
BRANCH  25  32
ATOM     31  C   LIG    1        5.230   4.649   8.746  0.00  0.00    +0.250 C 
ATOM     32  O   LIG    1        3.925   5.229   8.764  0.00  0.00    -0.320 OA
ENDBRANCH  25  32
ENDBRANCH  23  28
ENDBRANCH  22  23
ENDBRANCH   1  22
TORSDOF 6
