REMARK  Name = ZINCqH00000057Qy.0
REMARK                            x       y       z     vdW  Elec       q    Type
REMARK                         _______ _______ _______ _____ _____    ______ ____
ROOT
ATOM      1  C   LIG    1        3.812  -4.853  -0.391  0.00  0.00    +0.320 C 
ENDROOT
BRANCH   1   2
ATOM      2  C   LIG    1        3.557  -6.339  -0.373  0.00  0.00    -0.100 A 
ATOM      3  C   LIG    1        3.562  -7.026   0.827  0.00  0.00    +0.030 A 
ATOM      4  C   LIG    1        3.323  -8.388   0.844  0.00  0.00    +0.030 A 
ATOM      5  C   LIG    1        3.090  -9.063  -0.340  0.00  0.00    -0.090 A 
ATOM      6  C   LIG    1        3.091  -8.377  -1.539  0.00  0.00    +0.030 A 
ATOM      7  C   LIG    1        3.324  -7.014  -1.556  0.00  0.00    +0.030 A 
BRANCH   5   8
ATOM      8  C   LIG    1        2.835 -10.549  -0.321  0.00  0.00    +0.240 C 
BRANCH   8   9
ATOM      9  O   LIG    1        4.076 -11.246  -0.445  0.00  0.00    -0.370 OA
BRANCH   9  10
ATOM     10  C   LIG    1        3.945 -12.669  -0.439  0.00  0.00    +0.220 C 
BRANCH  10  11
ATOM     11  C   LIG    1        5.328 -13.309  -0.577  0.00  0.00    +0.460 C 
ATOM     12  F   LIG    1        5.914 -12.899  -1.779  0.00  0.00    -0.170 F 
ATOM     13  F   LIG    1        5.201 -14.702  -0.570  0.00  0.00    -0.180 F 
ATOM     14  F   LIG    1        6.135 -12.910   0.494  0.00  0.00    -0.180 F 
ENDBRANCH  10  11
ENDBRANCH   9  10
ENDBRANCH   8   9
ENDBRANCH   5   8
ENDBRANCH   1   2
BRANCH   1  16
ATOM     15  C   LIG    1        2.522  -2.790  -0.256  0.00  0.00    +0.560 C 
ATOM     16  N   LIG    1        2.540  -4.138  -0.264  0.00  0.00    -0.720 N 
ATOM     17  H   LIG    1        1.710  -4.634  -0.185  0.00  0.00    +0.400 HD
ATOM     18  O   LIG    1        3.562  -2.169  -0.354  0.00  0.00    -0.530 OA
BRANCH  15  23
ATOM     19  C   LIG    1        0.009  -0.004   0.001  0.00  0.00    +0.210 A 
ATOM     20  C   LIG    1       -1.175  -0.722   0.118  0.00  0.00    -0.050 A 
ATOM     21  C   LIG    1       -1.154  -2.104   0.104  0.00  0.00    +0.050 A 
ATOM     22  C   LIG    1        0.043  -2.780  -0.015  0.00  0.00    -0.030 A 
ATOM     23  C   LIG    1        1.238  -2.068  -0.128  0.00  0.00    -0.090 A 
ATOM     24  C   LIG    1        1.218  -0.674  -0.119  0.00  0.00    +0.000 A 
BRANCH  19  26
ATOM     25  C   LIG    1        1.238   2.149   0.019  0.00  0.00    +0.280 C 
ATOM     26  N   LIG    1       -0.017   1.393   0.010  0.00  0.00    -0.640 N 
ATOM     27  C   LIG    1       -1.299   2.101   0.003  0.00  0.00    +0.280 C 
ENDBRANCH  19  26
ENDBRANCH  15  23
ENDBRANCH   1  16
TORSDOF 8
