REMARK  Name = ZINCtV00000L6ky7.0
REMARK                            x       y       z     vdW  Elec       q    Type
REMARK                         _______ _______ _______ _____ _____    ______ ____
ROOT
ATOM      1  C   LIG    1       -1.048  -3.441   1.097  0.00  0.00    +0.180 C 
ATOM      2  C   LIG    1       -0.354  -2.148   0.750  0.00  0.00    +0.150 A 
ATOM      3  N   LIG    1        0.934  -2.002   0.561  0.00  0.00    -0.330 NA
ATOM      4  N   LIG    1        1.206  -0.663   0.258  0.00  0.00    -0.340 N 
ATOM      5  C   LIG    1        2.371   0.003  -0.020  0.00  0.00    +0.490 A 
ATOM      6  C   LIG    1        2.317   1.355  -0.284  0.00  0.00    -0.170 A 
ATOM      7  C   LIG    1        1.083   2.004  -0.263  0.00  0.00    +0.260 A 
ATOM      8  N   LIG    1       -0.016   1.333   0.009  0.00  0.00    -0.510 NA
ATOM      9  C   LIG    1        0.020   0.022   0.268  0.00  0.00    +0.330 A 
ATOM     10  C   LIG    1       -0.980  -0.908   0.579  0.00  0.00    -0.230 A 
ENDROOT
BRANCH   5  11
ATOM     11  N   LIG    1        3.575  -0.667  -0.034  0.00  0.00    -0.590 N 
ATOM     12  C   LIG    1        4.840   0.070  -0.151  0.00  0.00    +0.290 C 
ATOM     13  C   LIG    1        5.641  -0.507  -1.323  0.00  0.00    -0.030 C 
ATOM     14  C   LIG    1        5.808  -2.015  -1.128  0.00  0.00    +0.030 C 
ATOM     15  C   LIG    1        4.432  -2.684  -1.107  0.00  0.00    -0.030 C 
ATOM     16  C   LIG    1        4.601  -4.196  -0.945  0.00  0.00    +0.040 C 
ATOM     17  C   LIG    1        7.018   0.157  -1.377  0.00  0.00    +0.030 C 
ATOM     18  C   LIG    1        3.618  -2.132   0.073  0.00  0.00    +0.290 C 
ENDBRANCH   5  11
BRANCH  10  19
ATOM     19  C   LIG    1       -2.430  -0.631   0.704  0.00  0.00    +0.030 A 
ATOM     20  C   LIG    1       -2.899   0.200   1.721  0.00  0.00    +0.040 A 
ATOM     21  C   LIG    1       -4.250   0.459   1.829  0.00  0.00    +0.020 A 
ATOM     22  C   LIG    1       -5.141  -0.114   0.937  0.00  0.00    -0.040 A 
ATOM     23  C   LIG    1       -4.681  -0.944  -0.072  0.00  0.00    +0.020 A 
ATOM     24 CL   LIG    1       -6.840   0.211   1.083  0.00  0.00    -0.080 Cl
ATOM     25  C   LIG    1       -3.332  -1.205  -0.193  0.00  0.00    +0.030 A 
ENDBRANCH  10  19
BRANCH   7  26
ATOM     26  C   LIG    1        1.007   3.481  -0.551  0.00  0.00    -0.020 C 
ATOM     27  C   LIG    1        1.546   3.755  -1.956  0.00  0.00    +0.050 C 
ATOM     28  C   LIG    1        1.848   4.244   0.475  0.00  0.00    +0.050 C 
ATOM     29  C   LIG    1       -0.448   3.944  -0.463  0.00  0.00    +0.050 C 
ENDBRANCH   7  26
TORSDOF 3
