REMARK  Name = ZINCrD000000AyFh.0
REMARK                            x       y       z     vdW  Elec       q    Type
REMARK                         _______ _______ _______ _____ _____    ______ ____
ROOT
ATOM      1  O   LIG    1       -1.071   1.962   2.361  0.00  0.00    -0.520 OA
ATOM      2  C   LIG    1       -1.764   2.351   1.444  0.00  0.00    +0.530 C 
ATOM      3  N   LIG    1       -2.919   2.997   1.699  0.00  0.00    -0.620 N 
ATOM      4  C   LIG    1       -3.850   3.520   0.689  0.00  0.00    +0.260 C 
ATOM      5  C   LIG    1       -5.038   4.151   1.443  0.00  0.00    +0.090 C 
ATOM      6  C   LIG    1       -4.986   3.447   2.825  0.00  0.00    -0.450 C 
ATOM      7  C   LIG    1       -3.462   3.290   3.038  0.00  0.00    +0.310 C 
ENDROOT
BRANCH   6   8
ATOM      8  S   LIG    1       -5.721   4.490   4.114  0.00  0.00    +2.510 S 
ATOM      9  O   LIG    1       -5.174   5.801   4.068  0.00  0.00    -0.920 OA
ATOM     10  O   LIG    1       -5.813   3.777   5.340  0.00  0.00    -0.930 OA
BRANCH   8  11
ATOM     11  C   LIG    1       -7.396   4.700   3.608  0.00  0.00    -0.660 A 
ATOM     12  C   LIG    1       -7.744   5.765   2.798  0.00  0.00    +0.120 A 
ATOM     13  C   LIG    1       -9.057   5.927   2.397  0.00  0.00    -0.010 A 
ATOM     14  C   LIG    1      -10.023   5.030   2.813  0.00  0.00    +0.070 A 
ATOM     15  C   LIG    1       -9.675   3.969   3.628  0.00  0.00    -0.010 A 
ATOM     16  C   LIG    1       -8.361   3.804   4.025  0.00  0.00    +0.120 A 
ENDBRANCH   8  11
ENDBRANCH   6   8
BRANCH   2  17
ATOM     17  C   LIG    1       -1.332   2.114   0.020  0.00  0.00    +0.120 C 
BRANCH  17  18
ATOM     18  C   LIG    1       -0.017   1.378   0.010  0.00  0.00    -0.040 A 
ATOM     19  C   LIG    1        1.171   2.086   0.002  0.00  0.00    +0.030 A 
ATOM     20  C   LIG    1        2.377   1.411  -0.014  0.00  0.00    +0.070 A 
ATOM     21  C   LIG    1        2.396   0.029  -0.022  0.00  0.00    -0.180 A 
ATOM     22  C   LIG    1        1.208  -0.679  -0.014  0.00  0.00    +0.070 A 
ATOM     23  C   LIG    1        0.002  -0.004   0.002  0.00  0.00    +0.020 A 
BRANCH  21  24
ATOM     24  C   LIG    1        3.711  -0.707  -0.039  0.00  0.00    +0.510 C 
ATOM     25  F   LIG    1        3.567  -1.935   0.615  0.00  0.00    -0.180 F 
ATOM     26  F   LIG    1        4.683   0.058   0.615  0.00  0.00    -0.180 F 
ATOM     27  F   LIG    1        4.105  -0.927  -1.364  0.00  0.00    -0.180 F 
ENDBRANCH  21  24
ENDBRANCH  17  18
ENDBRANCH   2  17
TORSDOF 5
