REMARK  Name = ZINCpe000027pHh1.0
REMARK                            x       y       z     vdW  Elec       q    Type
REMARK                         _______ _______ _______ _____ _____    ______ ____
ROOT
ATOM      1  C   LIG    1        0.696   2.253   1.454  0.00  0.00    +0.250 C 
ATOM      2  C   LIG    1        1.815   1.894   0.474  0.00  0.00    +0.050 C 
ENDROOT
BRANCH   1   4
ATOM      3  C   LIG    1        0.164   4.579   0.958  0.00  0.00    +0.550 C 
ATOM      4  N   LIG    1        0.762   3.683   1.768  0.00  0.00    -0.710 N 
ATOM      5  H   LIG    1        1.236   3.985   2.559  0.00  0.00    +0.410 HD
ATOM      6  O   LIG    1       -0.431   4.200  -0.035  0.00  0.00    -0.540 OA
BRANCH   3   8
ATOM      7  C   LIG    1       -0.369   6.903   0.460  0.00  0.00    +0.140 C 
ATOM      8  C   LIG    1        0.230   6.006   1.271  0.00  0.00    -0.100 C 
BRANCH   7  12
ATOM      9  C   LIG    1       -0.178  11.042   1.368  0.00  0.00    +0.140 A 
ATOM     10  C   LIG    1       -0.858  10.612   0.234  0.00  0.00    -0.020 A 
ATOM     11  C   LIG    1       -0.923   9.270  -0.065  0.00  0.00    +0.090 A 
ATOM     12  C   LIG    1       -0.303   8.338   0.774  0.00  0.00    -0.120 A 
ATOM     13  C   LIG    1        0.376   8.775   1.918  0.00  0.00    +0.070 A 
ATOM     14  C   LIG    1        0.440  10.120   2.205  0.00  0.00    -0.080 A 
BRANCH   9  16
ATOM     15  C   LIG    1        0.596  12.739   2.840  0.00  0.00    +0.240 C 
ATOM     16  O   LIG    1       -0.118  12.367   1.659  0.00  0.00    -0.310 OA
ENDBRANCH   9  16
ENDBRANCH   7  12
ENDBRANCH   3   8
ENDBRANCH   1   4
BRANCH   1  17
ATOM     17  C   LIG    1        0.861   1.453   2.720  0.00  0.00    +0.520 C 
ATOM     18  N   LIG    1        0.834   0.106   2.675  0.00  0.00    -0.710 N 
ATOM     19  H   LIG    1        0.708  -0.348   1.827  0.00  0.00    +0.410 HD
ATOM     20  O   LIG    1        1.018   2.021   3.780  0.00  0.00    -0.530 OA
BRANCH  18  21
ATOM     21  C   LIG    1        0.994  -0.672   3.906  0.00  0.00    +0.240 C 
BRANCH  21  22
ATOM     22  C   LIG    1        1.532  -2.039   3.570  0.00  0.00    +0.520 C 
ATOM     23  O   LIG    1        1.441  -2.464   2.438  0.00  0.00    -0.530 OA
ATOM     24  N   LIG    1        2.114  -2.788   4.527  0.00  0.00    -0.850 N 
ATOM     25  H   LIG    1        2.395  -3.695   4.329  0.00  0.00    +0.410 HD
ATOM     26  H   LIG    1        2.252  -2.420   5.414  0.00  0.00    +0.410 HD
ENDBRANCH  21  22
BRANCH  21  27
ATOM     27  C   LIG    1       -0.362  -0.814   4.599  0.00  0.00    -0.020 C 
ATOM     28  C   LIG    1       -1.371  -1.427   3.626  0.00  0.00    +0.030 C 
ATOM     29  C   LIG    1       -0.855   0.565   5.043  0.00  0.00    +0.040 C 
ENDBRANCH  21  27
ENDBRANCH  18  21
ENDBRANCH   1  17
TORSDOF 8
