REMARK  Name = ZINCrD000000BTSQ.0
REMARK                            x       y       z     vdW  Elec       q    Type
REMARK                         _______ _______ _______ _____ _____    ______ ____
ROOT
ATOM      1  O   LIG    1        4.736   1.593   1.348  0.00  0.00    -0.470 OA
ATOM      2  C   LIG    1        3.665   2.061   1.013  0.00  0.00    +0.570 C 
ATOM      3  N   LIG    1        3.614   3.269   0.416  0.00  0.00    -0.650 N 
ATOM      4  H   LIG    1        2.768   3.613   0.090  0.00  0.00    +0.410 HD
ENDROOT
BRANCH   2   5
ATOM      5  C   LIG    1        2.421   1.308   1.260  0.00  0.00    -0.140 A 
ATOM      6  C   LIG    1        1.189   1.843   0.876  0.00  0.00    +0.050 A 
ATOM      7  C   LIG    1        0.029   1.136   1.109  0.00  0.00    +0.020 A 
ATOM      8  C   LIG    1        0.077  -0.102   1.727  0.00  0.00    +0.060 A 
ATOM      9  C   LIG    1        1.293  -0.648   2.110  0.00  0.00    +0.040 A 
ATOM     10  O   LIG    1        1.315  -1.867   2.717  0.00  0.00    -0.300 OA
ATOM     11  C   LIG    1        2.575  -2.546   2.749  0.00  0.00    +0.230 C 
ATOM     12  C   LIG    1        3.650  -1.542   3.188  0.00  0.00    +0.220 C 
ATOM     13  O   LIG    1        3.672  -0.467   2.243  0.00  0.00    -0.270 OA
ATOM     14  C   LIG    1        2.470   0.052   1.880  0.00  0.00    +0.120 A 
ENDBRANCH   2   5
BRANCH   3  15
ATOM     15  C   LIG    1        4.777   4.022   0.268  0.00  0.00    +0.320 A 
ATOM     16  C   LIG    1        6.048   3.536   0.189  0.00  0.00    -0.230 A 
ATOM     17  C   LIG    1        6.843   2.249   0.188  0.00  0.00    +0.120 C 
ATOM     18  C   LIG    1        8.220   2.622  -0.400  0.00  0.00    +0.030 C 
ATOM     19  C   LIG    1        8.340   4.121  -0.055  0.00  0.00    +0.140 C 
ATOM     20  C   LIG    1        6.915   4.622   0.043  0.00  0.00    +0.070 A 
ATOM     21  N   LIG    1        6.202   5.723   0.042  0.00  0.00    -0.260 NA
ATOM     22  N   LIG    1        4.853   5.378   0.182  0.00  0.00    -0.340 N 
BRANCH  22  23
ATOM     23  C   LIG    1        3.772   6.269   0.225  0.00  0.00    +0.160 A 
ATOM     24  C   LIG    1        2.591   5.963  -0.436  0.00  0.00    -0.030 A 
ATOM     25  C   LIG    1        1.526   6.841  -0.386  0.00  0.00    +0.050 A 
ATOM     26  C   LIG    1        1.639   8.029   0.311  0.00  0.00    +0.010 A 
ATOM     27  C   LIG    1        2.817   8.340   0.966  0.00  0.00    +0.040 A 
ATOM     28  C   LIG    1        3.884   7.463   0.925  0.00  0.00    +0.020 A 
ENDBRANCH  22  23
ENDBRANCH   3  15
TORSDOF 3
