REMARK  Name = ZINCrH000004mUsu.0
REMARK                            x       y       z     vdW  Elec       q    Type
REMARK                         _______ _______ _______ _____ _____    ______ ____
ROOT
ATOM      1  C   LIG    1       -1.231   3.137   0.028  0.00  0.00    +0.090 A 
ATOM      2  C   LIG    1       -1.217   1.752   0.017  0.00  0.00    -0.030 A 
ATOM      3  C   LIG    1       -0.013   1.076   0.008  0.00  0.00    -0.050 A 
ATOM      4  C   LIG    1        1.176   1.786   0.000  0.00  0.00    +0.120 A 
ATOM      5  C   LIG    1        1.164   3.178   0.008  0.00  0.00    -0.070 A 
ATOM      6  C   LIG    1        2.482   3.908   0.010  0.00  0.00    +0.250 C 
ATOM      7  C   LIG    1        2.272   5.367  -0.397  0.00  0.00    +0.150 C 
ATOM      8  N   LIG    1        1.185   5.928   0.421  0.00  0.00    -0.510 NA
ATOM      9  C   LIG    1       -0.103   5.357   0.015  0.00  0.00    +0.260 C 
ATOM     10  C   LIG    1       -0.037   3.852   0.018  0.00  0.00    -0.060 A 
ENDROOT
BRANCH   1  12
ATOM     11  C   LIG    1       -3.605   3.007   0.051  0.00  0.00    +0.230 C 
ATOM     12  O   LIG    1       -2.417   3.801   0.042  0.00  0.00    -0.310 OA
ENDBRANCH   1  12
BRANCH   6  13
ATOM     13  O   LIG    1        3.373   3.281  -0.914  0.00  0.00    -0.540 OA
ATOM     14  H   LIG    1        4.244   3.699  -0.966  0.00  0.00    +0.380 HD
ENDBRANCH   6  13
BRANCH   4  15
ATOM     15  O   LIG    1        2.362   1.121  -0.014  0.00  0.00    -0.290 OA
ATOM     16  C   LIG    1        2.304  -0.307  -0.020  0.00  0.00    +0.230 C 
ENDBRANCH   4  15
BRANCH   8  17
ATOM     17  C   LIG    1        1.162   7.395   0.331  0.00  0.00    +0.330 C 
BRANCH  17  18
ATOM     18  C   LIG    1        1.025   7.807  -1.112  0.00  0.00    -0.040 A 
ATOM     19  C   LIG    1        2.036   8.040  -1.968  0.00  0.00    -0.030 A 
ATOM     20  O   LIG    1        1.489   8.380  -3.153  0.00  0.00    -0.190 OA
ATOM     21  C   LIG    1        0.152   8.361  -3.007  0.00  0.00    +0.260 A 
ATOM     22  C   LIG    1        3.508   7.937  -1.661  0.00  0.00    +0.190 C 
ATOM     23  N   LIG    1       -0.127   8.013  -1.769  0.00  0.00    -0.460 NA
BRANCH  21  24
ATOM     24  C   LIG    1       -0.832   8.674  -4.053  0.00  0.00    -0.140 A 
ATOM     25  C   LIG    1       -0.533   9.038  -5.331  0.00  0.00    +0.060 A 
ATOM     26  C   LIG    1       -1.632   9.278  -6.127  0.00  0.00    +0.010 A 
ATOM     27  C   LIG    1       -2.815   9.126  -5.524  0.00  0.00    -0.040 A 
ATOM     28  S   LIG    1       -2.579   8.645  -3.849  0.00  0.00    +0.210 S 
ENDBRANCH  21  24
ENDBRANCH  17  18
ENDBRANCH   8  17
TORSDOF 6
