REMARK  Name = ZINCrD000000D90k.0
REMARK                            x       y       z     vdW  Elec       q    Type
REMARK                         _______ _______ _______ _____ _____    ______ ____
ROOT
ATOM      1  N   LIG    1       -2.411  -0.036   0.036  0.00  0.00    -0.500 N 
ATOM      2  C   LIG    1       -3.148  -0.316   1.277  0.00  0.00    +0.200 C 
ATOM      3  C   LIG    1       -4.439   0.507   1.297  0.00  0.00    +0.230 C 
ATOM      4  N   LIG    1       -5.250   0.170   0.118  0.00  0.00    -0.550 NA
ATOM      5  C   LIG    1       -4.513   0.449  -1.122  0.00  0.00    +0.220 C 
ATOM      6  C   LIG    1       -3.222  -0.373  -1.142  0.00  0.00    +0.210 C 
ENDROOT
BRANCH   1  12
ATOM      7  C   LIG    1        0.002  -0.004   0.002  0.00  0.00    -0.030 A 
ATOM      8  C   LIG    1        1.207  -0.679  -0.013  0.00  0.00    +0.170 A 
ATOM      9  C   LIG    1        1.226  -2.062  -0.020  0.00  0.00    -0.190 A 
ATOM     10  C   LIG    1        0.041  -2.773  -0.013  0.00  0.00    +0.150 A 
ATOM     11  C   LIG    1       -1.168  -2.104   0.002  0.00  0.00    +0.010 A 
ATOM     12  C   LIG    1       -1.191  -0.716   0.015  0.00  0.00    +0.190 A 
BRANCH   9  13
ATOM     13  C   LIG    1        2.543  -2.795  -0.037  0.00  0.00    +0.520 C 
ATOM     14  F   LIG    1        3.500  -2.020  -0.702  0.00  0.00    -0.170 F 
ATOM     15  F   LIG    1        2.388  -4.016  -0.701  0.00  0.00    -0.170 F 
ATOM     16  F   LIG    1        2.963  -3.028   1.277  0.00  0.00    -0.170 F 
ENDBRANCH   9  13
BRANCH   7  18
ATOM     17  O   LIG    1        1.028   2.099   0.004  0.00  0.00    -0.180 OA
ATOM     18  N   LIG    1       -0.018   1.476   0.010  0.00  0.00    +0.030 N 
ATOM     19  O   LIG    1       -1.081   2.070   0.018  0.00  0.00    -0.090 OA
ENDBRANCH   7  18
ENDBRANCH   1  12
BRANCH   4  20
ATOM     20  C   LIG    1       -6.533   0.884   0.141  0.00  0.00    +0.470 C 
BRANCH  20  21
ATOM     21  N   LIG    1       -7.471   0.177   1.016  0.00  0.00    -0.440 N 
ATOM     22  C   LIG    1       -8.281  -0.787   0.504  0.00  0.00    +0.370 A 
ATOM     23  C   LIG    1       -9.142  -1.438   1.331  0.00  0.00    -0.080 A 
ATOM     24  C   LIG    1       -9.177  -1.089   2.686  0.00  0.00    +0.420 A 
ATOM     25  N   LIG    1       -8.379  -0.145   3.140  0.00  0.00    -0.480 NA
ATOM     26  C   LIG    1       -7.532   0.486   2.325  0.00  0.00    +0.440 A 
ATOM     27  S   LIG    1       -6.510   1.708   2.951  0.00  0.00    -0.550 S 
ENDBRANCH  20  21
ENDBRANCH   4  20
TORSDOF 5
