REMARK  Name = ZINCqj00000rAGjv.0
REMARK                            x       y       z     vdW  Elec       q    Type
REMARK                         _______ _______ _______ _____ _____    ______ ____
ROOT
ATOM      1  N   LIG    1       -0.700   1.560   1.217  0.00  0.00    -0.510 N 
ATOM      2  H   LIG    1       -1.671   1.291   1.272  0.00  0.00    +0.420 HD
ATOM      3  H   LIG    1       -0.631   2.565   1.171  0.00  0.00    +0.420 HD
ENDROOT
BRANCH   1   6
ATOM      4  C   LIG    1        1.236   1.751   4.000  0.00  0.00    +0.200 C 
ATOM      5  C   LIG    1        1.470   1.551   2.492  0.00  0.00    +0.070 C 
ATOM      6  C   LIG    1        0.010   1.073   2.407  0.00  0.00    +0.180 C 
ATOM      7  C   LIG    1       -0.252   1.910   3.664  0.00  0.00    -0.100 C 
ATOM      8  C   LIG    1       -1.182   1.232   4.668  0.00  0.00    +0.130 C 
ATOM      9  C   LIG    1       -2.627   1.367   4.178  0.00  0.00    +0.270 C 
ATOM     10  N   LIG    1       -2.957   2.788   4.010  0.00  0.00    -0.510 N 
ATOM     11  C   LIG    1       -2.135   3.373   2.945  0.00  0.00    +0.250 C 
ATOM     12  H   LIG    1       -3.933   2.878   3.768  0.00  0.00    +0.440 HD
ATOM     13  H   LIG    1       -2.782   3.276   4.875  0.00  0.00    +0.440 HD
ATOM     14  C   LIG    1       -0.662   3.352   3.365  0.00  0.00    +0.100 C 
BRANCH   4  16
ATOM     15  C   LIG    1        2.696   0.716   5.594  0.00  0.00    +0.250 C 
ATOM     16  O   LIG    1        1.526   0.592   4.783  0.00  0.00    -0.360 OA
ENDBRANCH   4  16
ENDBRANCH   1   6
BRANCH   1  17
ATOM     17  C   LIG    1       -0.098   0.973   0.012  0.00  0.00    +0.330 C 
BRANCH  17  18
ATOM     18  C   LIG    1       -0.826   1.472  -1.208  0.00  0.00    -0.170 A 
ATOM     19  C   LIG    1       -1.913   0.772  -1.699  0.00  0.00    +0.050 A 
ATOM     20  C   LIG    1       -2.584   1.232  -2.817  0.00  0.00    +0.050 A 
ATOM     21  C   LIG    1       -2.163   2.388  -3.449  0.00  0.00    -0.050 A 
ATOM     22  C   LIG    1       -1.073   3.084  -2.961  0.00  0.00    +0.020 A 
ATOM     23  C   LIG    1       -0.405   2.626  -1.841  0.00  0.00    +0.040 A 
BRANCH  21  24
ATOM     24  C   LIG    1       -2.893   2.887  -4.669  0.00  0.00    +0.250 C 
BRANCH  24  25
ATOM     25  N   LIG    1       -2.290   2.301  -5.874  0.00  0.00    -0.540 NA
ATOM     26  C   LIG    1       -0.918   2.791  -6.068  0.00  0.00    +0.210 C 
ATOM     27  C   LIG    1       -0.306   2.113  -7.296  0.00  0.00    +0.280 C 
ATOM     28  N   LIG    1       -1.123   2.413  -8.479  0.00  0.00    -0.510 N 
ATOM     29  C   LIG    1       -2.484   1.896  -8.280  0.00  0.00    +0.290 C 
ATOM     30  H   LIG    1       -1.160   3.412  -8.617  0.00  0.00    +0.430 HD
ATOM     31  H   LIG    1       -0.713   1.976  -9.290  0.00  0.00    +0.440 HD
ATOM     32  C   LIG    1       -3.113   2.572  -7.060  0.00  0.00    +0.220 C 
ENDBRANCH  24  25
ENDBRANCH  21  24
ENDBRANCH  17  18
ENDBRANCH   1  17
TORSDOF 6
