REMARK  Name = ZINCrg000000nEZ4.0
REMARK                            x       y       z     vdW  Elec       q    Type
REMARK                         _______ _______ _______ _____ _____    ______ ____
ROOT
ATOM      1  N   LIG    1        5.231  -0.043  -5.310  0.00  0.00    -0.540 N 
ATOM      2  C   LIG    1        6.090   0.875  -5.788  0.00  0.00    +0.710 A 
ATOM      3  N   LIG    1        6.717   1.736  -4.967  0.00  0.00    -0.660 N 
ATOM      4  H   LIG    1        7.332   2.389  -5.337  0.00  0.00    +0.430 HD
ATOM      5  C   LIG    1        6.501   1.703  -3.638  0.00  0.00    +0.570 A 
ATOM      6  C   LIG    1        5.608   0.755  -3.103  0.00  0.00    -0.160 A 
ATOM      7  O   LIG    1        7.074   2.489  -2.903  0.00  0.00    -0.520 OA
ATOM      8  O   LIG    1        6.304   0.926  -6.984  0.00  0.00    -0.530 OA
ATOM      9  C   LIG    1        4.979  -0.124  -3.960  0.00  0.00    +0.500 A 
ENDROOT
BRANCH   6  10
ATOM     10  N   LIG    1        5.365   0.702  -1.714  0.00  0.00    -0.510 N 
ATOM     11  C   LIG    1        4.162   1.065  -1.225  0.00  0.00    +0.490 C 
ATOM     12  O   LIG    1        3.259   1.351  -1.984  0.00  0.00    -0.510 OA
BRANCH  10  13
ATOM     13  C   LIG    1        6.421   0.251  -0.803  0.00  0.00    +0.230 C 
ATOM     14  C   LIG    1        7.707  -0.060  -1.597  0.00  0.00    +0.030 C 
ATOM     15  C   LIG    1        8.304  -1.297  -0.882  0.00  0.00    +0.020 C 
ATOM     16  C   LIG    1        7.045  -2.122  -0.517  0.00  0.00    +0.010 C 
ATOM     17  C   LIG    1        6.000  -1.060  -0.117  0.00  0.00    +0.010 C 
ENDBRANCH  10  13
BRANCH  11  18
ATOM     18  C   LIG    1        3.938   1.116   0.264  0.00  0.00    +0.340 C 
BRANCH  18  19
ATOM     19  N   LIG    1        2.602   1.651   0.539  0.00  0.00    -0.450 N 
ATOM     20  C   LIG    1        2.275   2.967   0.719  0.00  0.00    +0.120 A 
ATOM     21  C   LIG    1        0.948   3.012   0.947  0.00  0.00    +0.140 A 
ATOM     22  N   LIG    1        0.478   1.756   0.907  0.00  0.00    -0.490 NA
ATOM     23  C   LIG    1        1.463   0.935   0.663  0.00  0.00    +0.390 A 
ENDBRANCH  18  19
ENDBRANCH  11  18
ENDBRANCH   6  10
BRANCH   9  24
ATOM     24  N   LIG    1        4.106  -1.066  -3.471  0.00  0.00    -0.820 N 
ATOM     25  H   LIG    1        3.733  -1.737  -4.065  0.00  0.00    +0.410 HD
ATOM     26  H   LIG    1        3.862  -1.061  -2.532  0.00  0.00    +0.420 HD
ENDBRANCH   9  24
BRANCH   1  27
ATOM     27  C   LIG    1        4.565  -0.967  -6.232  0.00  0.00    +0.300 C 
BRANCH  27  28
ATOM     28  C   LIG    1        5.419  -2.225  -6.399  0.00  0.00    +0.010 C 
BRANCH  28  30
ATOM     29  C   LIG    1        5.578  -4.448  -7.529  0.00  0.00    +0.020 C 
ATOM     30  C   LIG    1        4.724  -3.190  -7.362  0.00  0.00    +0.020 C 
ENDBRANCH  28  30
ENDBRANCH  27  28
ENDBRANCH   1  27
TORSDOF 8
