REMARK  Name = ZINCpk00000e9v49.0
REMARK                            x       y       z     vdW  Elec       q    Type
REMARK                         _______ _______ _______ _____ _____    ______ ____
ROOT
ATOM      1  N   LIG    1        1.126   4.282   1.596  0.00  0.00    -1.000 NA
ATOM      2  C   LIG    1       -0.133   4.481   2.331  0.00  0.00    +0.270 C 
ATOM      3  C   LIG    1       -0.096   5.854   3.002  0.00  0.00    +0.220 C 
ATOM      4  O   LIG    1        1.109   5.976   3.761  0.00  0.00    -0.370 OA
ATOM      5  C   LIG    1        2.304   5.906   2.979  0.00  0.00    +0.240 C 
ATOM      6  C   LIG    1        2.389   4.530   2.309  0.00  0.00    +0.270 C 
ENDROOT
BRANCH   5   7
ATOM      7  C   LIG    1        3.502   6.107   3.871  0.00  0.00    -0.240 A 
ATOM      8  C   LIG    1        4.611   6.819   3.566  0.00  0.00    +0.250 A 
ATOM      9  N   LIG    1        5.445   6.755   4.625  0.00  0.00    -0.370 N 
ATOM     10  N   LIG    1        4.829   5.977   5.613  0.00  0.00    -0.290 NA
ATOM     11  C   LIG    1        3.662   5.594   5.163  0.00  0.00    +0.260 A 
BRANCH   9  12
ATOM     12  C   LIG    1        6.763   7.387   4.724  0.00  0.00    +0.320 C 
ATOM     13  C   LIG    1        6.813   8.269   5.973  0.00  0.00    +0.040 C 
ENDBRANCH   9  12
ENDBRANCH   5   7
BRANCH   1  14
ATOM     14  S   LIG    1        1.122   3.800   0.012  0.00  0.00    +2.700 S 
ATOM     15  O   LIG    1       -0.142   4.177  -0.519  0.00  0.00    -0.950 OA
ATOM     16  O   LIG    1        2.357   4.232  -0.542  0.00  0.00    -0.950 OA
BRANCH  14  20
ATOM     17  C   LIG    1        1.137  -0.683  -0.012  0.00  0.00    +0.370 A 
ATOM     18  C   LIG    1        2.358  -0.020  -0.021  0.00  0.00    -0.060 A 
ATOM     19  C   LIG    1        2.373   1.364  -0.014  0.00  0.00    +0.220 A 
ATOM     20  C   LIG    1        1.160   2.039   0.002  0.00  0.00    -0.780 A 
ATOM     21  C   LIG    1       -0.016   1.315   0.009  0.00  0.00    +0.430 A 
ATOM     22  N   LIG    1        0.002  -0.004   0.002  0.00  0.00    -0.550 NA
BRANCH  17  23
ATOM     23  O   LIG    1        1.109  -2.039  -0.019  0.00  0.00    -0.300 OA
BRANCH  23  25
ATOM     24  C   LIG    1       -0.008  -4.182  -0.020  0.00  0.00    +0.060 C 
ATOM     25  C   LIG    1       -0.177  -2.662  -0.011  0.00  0.00    +0.200 C 
ENDBRANCH  23  25
ENDBRANCH  17  23
ENDBRANCH  14  20
ENDBRANCH   1  14
TORSDOF 6
