REMARK  Name = ZINCrD00000l4awG.0
REMARK                            x       y       z     vdW  Elec       q    Type
REMARK                         _______ _______ _______ _____ _____    ______ ____
ROOT
ATOM      1  O   LIG    1        1.830   8.666   0.103  0.00  0.00    -0.530 OA
ATOM      2  C   LIG    1        2.691   7.819   0.207  0.00  0.00    +0.530 C 
ATOM      3  N   LIG    1        3.963   8.105  -0.135  0.00  0.00    -0.620 N 
ATOM      4  C   LIG    1        5.103   7.174  -0.060  0.00  0.00    +0.250 C 
ATOM      5  C   LIG    1        6.351   8.085   0.056  0.00  0.00    +0.020 C 
ATOM      6  C   LIG    1        5.963   9.265  -0.874  0.00  0.00    +0.160 C 
ATOM      7  C   LIG    1        4.441   9.396  -0.651  0.00  0.00    +0.270 C 
ENDROOT
BRANCH   6   8
ATOM      8  O   LIG    1        6.639  10.461  -0.481  0.00  0.00    -0.370 OA
BRANCH   8   9
ATOM      9  C   LIG    1        7.890  10.665  -1.141  0.00  0.00    +0.220 C 
BRANCH   9  10
ATOM     10  C   LIG    1        8.512  11.948  -0.654  0.00  0.00    -0.100 A 
ATOM     11  C   LIG    1        8.244  13.137  -1.306  0.00  0.00    +0.020 A 
ATOM     12  C   LIG    1        8.811  14.315  -0.856  0.00  0.00    +0.000 A 
ATOM     13  C   LIG    1        9.654  14.302   0.239  0.00  0.00    +0.010 A 
ATOM     14  C   LIG    1        9.926  13.112   0.888  0.00  0.00    +0.000 A 
ATOM     15  C   LIG    1        9.355  11.935   0.441  0.00  0.00    +0.020 A 
ENDBRANCH   9  10
ENDBRANCH   8   9
ENDBRANCH   6   8
BRANCH   2  16
ATOM     16  C   LIG    1        2.340   6.446   0.719  0.00  0.00    +0.060 C 
BRANCH  16  17
ATOM     17  C   LIG    1        0.843   6.386   1.032  0.00  0.00    +0.150 C 
BRANCH  17  18
ATOM     18  C   LIG    1        0.491   5.012   1.543  0.00  0.00    -0.030 A 
ATOM     19  C   LIG    1        0.592   4.578   2.814  0.00  0.00    +0.150 A 
ATOM     20  N   LIG    1        0.179   3.303   2.852  0.00  0.00    -0.490 NA
ATOM     21  C   LIG    1       -0.181   2.931   1.653  0.00  0.00    +0.210 A 
ATOM     22  C   LIG    1       -0.729   1.579   1.268  0.00  0.00    +0.150 C 
ATOM     23  C   LIG    1       -0.013   1.086   0.008  0.00  0.00    +0.020 C 
ATOM     24  C   LIG    1       -0.750   1.591  -1.228  0.00  0.00    +0.020 C 
ATOM     25  C   LIG    1       -1.359   2.967  -0.960  0.00  0.00    +0.030 C 
ATOM     26  C   LIG    1       -0.247   3.967  -0.636  0.00  0.00    +0.270 C 
ATOM     27  N   LIG    1        0.009   3.966   0.806  0.00  0.00    -0.450 N 
ENDBRANCH  17  18
ENDBRANCH  16  17
ENDBRANCH   2  16
TORSDOF 6
