REMARK  Name = ZINCtV000002vVad.0
REMARK                            x       y       z     vdW  Elec       q    Type
REMARK                         _______ _______ _______ _____ _____    ______ ____
ROOT
ATOM      1  C   LIG    1       -1.401   9.686  -0.007  0.00  0.00    +0.290 C 
ENDROOT
BRANCH   1   2
ATOM      2  C   LIG    1       -2.394  10.625   0.628  0.00  0.00    -0.090 A 
ATOM      3  C   LIG    1       -3.736  10.527   0.310  0.00  0.00    +0.040 A 
ATOM      4  C   LIG    1       -4.650  11.383   0.894  0.00  0.00    +0.000 A 
ATOM      5  C   LIG    1       -4.218  12.350   1.791  0.00  0.00    +0.090 A 
ATOM      6  C   LIG    1       -2.869  12.449   2.104  0.00  0.00    +0.020 A 
ATOM      7  C   LIG    1       -1.961  11.587   1.522  0.00  0.00    +0.040 A 
BRANCH   5   8
ATOM      8  O   LIG    1       -5.113  13.197   2.363  0.00  0.00    -0.260 OA
BRANCH   8   9
ATOM      9  C   LIG    1       -6.016  12.677   3.235  0.00  0.00    +0.120 A 
ATOM     10  C   LIG    1       -5.930  11.344   3.612  0.00  0.00    -0.060 A 
ATOM     11  C   LIG    1       -6.847  10.819   4.503  0.00  0.00    +0.050 A 
ATOM     12  C   LIG    1       -7.855  11.617   5.010  0.00  0.00    -0.020 A 
ATOM     13  C   LIG    1       -7.946  12.945   4.633  0.00  0.00    +0.050 A 
ATOM     14  C   LIG    1       -7.029  13.476   3.746  0.00  0.00    -0.020 A 
ENDBRANCH   8   9
ENDBRANCH   5   8
ENDBRANCH   1   2
BRANCH   1  15
ATOM     15  N   LIG    1       -1.976   8.340  -0.075  0.00  0.00    -0.730 N 
ATOM     16  H   LIG    1       -2.939   8.225  -0.091  0.00  0.00    +0.400 HD
BRANCH  15  17
ATOM     17  C   LIG    1       -1.131   7.215  -0.119  0.00  0.00    +0.070 A 
ATOM     18  C   LIG    1       -1.529   5.920  -0.184  0.00  0.00    +0.170 A 
ATOM     19  N   LIG    1       -0.407   5.147  -0.208  0.00  0.00    -0.320 N 
ATOM     20  N   LIG    1        0.703   6.000  -0.151  0.00  0.00    -0.260 NA
ATOM     21  C   LIG    1        0.272   7.235  -0.104  0.00  0.00    +0.230 A 
BRANCH  19  22
ATOM     22  C   LIG    1       -0.370   3.751  -0.273  0.00  0.00    +0.380 A 
ATOM     23  C   LIG    1        0.855   3.095  -0.291  0.00  0.00    -0.020 A 
ATOM     24  C   LIG    1        0.878   1.713  -0.356  0.00  0.00    +0.090 A 
ATOM     25  C   LIG    1       -0.331   1.032  -0.400  0.00  0.00    -0.050 A 
ATOM     26  C   LIG    1       -1.511   1.750  -0.384  0.00  0.00    +0.300 A 
ATOM     27  N   LIG    1       -1.502   3.067  -0.316  0.00  0.00    -0.510 NA
ENDBRANCH  19  22
ENDBRANCH  15  17
ENDBRANCH   1  15
BRANCH   1  28
ATOM     28  C   LIG    1       -1.070  10.172  -1.419  0.00  0.00    +0.010 C 
BRANCH  28  30
ATOM     29  C   LIG    1        0.361   9.778  -3.429  0.00  0.00    +0.000 C 
ATOM     30  C   LIG    1        0.030   9.292  -2.017  0.00  0.00    +0.000 C 
ENDBRANCH  28  30
ENDBRANCH   1  28
TORSDOF 8
