REMARK  Name = ZINCvU0000000IfI.0
REMARK                            x       y       z     vdW  Elec       q    Type
REMARK                         _______ _______ _______ _____ _____    ______ ____
ROOT
ATOM      1  O   LIG    1        2.591  -0.120  -0.170  0.00  0.00    -0.430 OA
ATOM      2  C   LIG    1        2.486   1.082  -0.001  0.00  0.00    +0.460 A 
ATOM      3  C   LIG    1        1.183   1.793   0.000  0.00  0.00    -0.210 A 
ATOM      4  C   LIG    1       -0.013   1.076   0.008  0.00  0.00    +0.120 A 
ATOM      5  C   LIG    1       -1.212   1.752   0.017  0.00  0.00    +0.000 A 
ATOM      6  C   LIG    1       -1.228   3.140   0.030  0.00  0.00    +0.100 A 
ATOM      7  C   LIG    1       -0.054   3.859   0.018  0.00  0.00    +0.020 A 
ATOM      8  C   LIG    1        1.173   3.198   0.001  0.00  0.00    +0.140 A 
ATOM      9  O   LIG    1        2.312   3.928  -0.021  0.00  0.00    -0.180 OA
ATOM     10  C   LIG    1        3.495   3.324   0.203  0.00  0.00    +0.100 A 
ATOM     11  C   LIG    1        4.812   3.929   0.464  0.00  0.00    +0.570 C 
ATOM     12  O   LIG    1        5.030   5.123   0.521  0.00  0.00    -0.460 OA
ATOM     13  N   LIG    1        5.741   2.965   0.630  0.00  0.00    -0.540 N 
ATOM     14  C   LIG    1        5.074   1.660   0.487  0.00  0.00    +0.360 C 
ATOM     15  C   LIG    1        3.637   1.965   0.218  0.00  0.00    -0.250 A 
ENDROOT
BRANCH  13  16
ATOM     16  C   LIG    1        7.098   3.169   0.893  0.00  0.00    +0.180 A 
ATOM     17  C   LIG    1        7.599   4.460   1.004  0.00  0.00    +0.030 A 
ATOM     18  C   LIG    1        8.941   4.659   1.264  0.00  0.00    +0.060 A 
ATOM     19  C   LIG    1        9.786   3.575   1.414  0.00  0.00    +0.040 A 
ATOM     20  C   LIG    1        9.290   2.287   1.304  0.00  0.00    -0.060 A 
ATOM     21 BR   LIG    1       10.450   0.808   1.511  0.00  0.00    -0.030 Br
ATOM     22  C   LIG    1        7.948   2.082   1.049  0.00  0.00    +0.020 A 
ENDBRANCH  13  16
BRANCH  14  23
ATOM     23  C   LIG    1        5.670   0.896  -0.668  0.00  0.00    -0.050 A 
ATOM     24  C   LIG    1        5.997   1.556  -1.838  0.00  0.00    +0.040 A 
ATOM     25  C   LIG    1        6.547   0.856  -2.895  0.00  0.00    +0.110 A 
ATOM     26  C   LIG    1        6.762  -0.505  -2.786  0.00  0.00    -0.030 A 
ATOM     27  C   LIG    1        6.429  -1.166  -1.618  0.00  0.00    +0.110 A 
ATOM     28  C   LIG    1        5.883  -0.465  -0.559  0.00  0.00    +0.070 A 
BRANCH  26  29
ATOM     29  N   LIG    1        7.348  -1.256  -3.919  0.00  0.00    +0.020 N 
ATOM     30  O   LIG    1        7.640  -0.674  -4.948  0.00  0.00    -0.150 OA
ATOM     31  O   LIG    1        7.537  -2.455  -3.823  0.00  0.00    -0.150 OA
ENDBRANCH  26  29
ENDBRANCH  14  23
TORSDOF 3
