REMARK  Name = ZINCvU0000000BpL.0
REMARK                            x       y       z     vdW  Elec       q    Type
REMARK                         _______ _______ _______ _____ _____    ______ ____
ROOT
ATOM      1  N   LIG    1       -1.205   1.837  -0.009  0.00  0.00    -0.650 N 
ATOM      2  H   LIG    1       -1.238   2.690   0.452  0.00  0.00    +0.420 HD
ATOM      3  C   LIG    1       -0.017   1.308  -0.363  0.00  0.00    +0.510 C 
ATOM      4  O   LIG    1        0.026   0.230  -0.916  0.00  0.00    -0.520 OA
ENDROOT
BRANCH   1  10
ATOM      5  C   LIG    1       -3.595   1.853  -0.393  0.00  0.00    +0.090 A 
ATOM      6  C   LIG    1       -4.766   1.174  -0.690  0.00  0.00    -0.040 A 
ATOM      7  C   LIG    1       -4.739  -0.192  -0.900  0.00  0.00    +0.030 A 
ATOM      8  C   LIG    1       -3.545  -0.884  -0.816  0.00  0.00    +0.000 A 
ATOM      9  C   LIG    1       -2.372  -0.213  -0.526  0.00  0.00    +0.060 A 
ATOM     10  C   LIG    1       -2.392   1.156  -0.308  0.00  0.00    +0.120 A 
BRANCH   5  11
ATOM     11  O   LIG    1       -3.621   3.197  -0.186  0.00  0.00    -0.260 OA
BRANCH  11  16
ATOM     12  C   LIG    1       -8.628   5.776  -0.171  0.00  0.00    +0.090 C 
ATOM     13  C   LIG    1       -7.288   5.086  -0.175  0.00  0.00    -0.080 A 
ATOM     14  C   LIG    1       -6.904   4.319   0.909  0.00  0.00    +0.020 A 
ATOM     15  C   LIG    1       -5.676   3.685   0.908  0.00  0.00    +0.000 A 
ATOM     16  C   LIG    1       -4.829   3.819  -0.182  0.00  0.00    +0.080 A 
ATOM     17  C   LIG    1       -5.214   4.595  -1.266  0.00  0.00    +0.020 A 
ATOM     18  C   LIG    1       -6.445   5.221  -1.263  0.00  0.00    +0.020 A 
ENDBRANCH  11  16
ENDBRANCH   5  11
ENDBRANCH   1  10
BRANCH   3  19
ATOM     19  C   LIG    1        1.258   2.060  -0.078  0.00  0.00    +0.320 C 
BRANCH  19  20
ATOM     20  N   LIG    1        2.402   1.283  -0.561  0.00  0.00    -0.720 N 
ATOM     21  H   LIG    1        2.259   0.424  -0.988  0.00  0.00    +0.410 HD
ATOM     22  C   LIG    1        3.653   1.762  -0.412  0.00  0.00    +0.570 C 
ATOM     23  O   LIG    1        3.832   2.839   0.122  0.00  0.00    -0.530 OA
BRANCH  22  24
ATOM     24  C   LIG    1        4.808   0.978  -0.900  0.00  0.00    -0.140 A 
ATOM     25  C   LIG    1        4.606  -0.262  -1.510  0.00  0.00    +0.050 A 
ATOM     26  C   LIG    1        5.687  -0.987  -1.966  0.00  0.00    +0.000 A 
ATOM     27  C   LIG    1        6.970  -0.492  -1.812  0.00  0.00    -0.040 A 
ATOM     28  C   LIG    1        7.177   0.734  -1.205  0.00  0.00    +0.010 A 
ATOM     29  C   LIG    1        6.104   1.471  -0.748  0.00  0.00    +0.090 A 
BRANCH  27  30
ATOM     30  C   LIG    1        8.147  -1.292  -2.308  0.00  0.00    -0.030 C 
ATOM     31  C   LIG    1        8.909  -0.481  -3.358  0.00  0.00    +0.040 C 
ATOM     32  C   LIG    1        7.649  -2.597  -2.934  0.00  0.00    +0.030 C 
ATOM     33  C   LIG    1        9.077  -1.611  -1.136  0.00  0.00    +0.040 C 
ENDBRANCH  27  30
ENDBRANCH  22  24
ENDBRANCH  19  20
ENDBRANCH   3  19
TORSDOF 7
