REMARK  Name = ZINCpk000005S301.0
REMARK                            x       y       z     vdW  Elec       q    Type
REMARK                         _______ _______ _______ _____ _____    ______ ____
ROOT
ATOM      1  C   LIG    1       -2.047   1.380  -3.741  0.00  0.00    +0.240 C 
ATOM      2  C   LIG    1       -0.641   1.970  -3.598  0.00  0.00    +0.040 C 
ATOM      3  C   LIG    1        0.058   1.323  -2.400  0.00  0.00    +0.190 C 
ATOM      4  N   LIG    1       -0.723   1.572  -1.182  0.00  0.00    -0.540 NA
ATOM      5  C   LIG    1       -2.061   0.974  -1.278  0.00  0.00    +0.180 C 
ATOM      6  C   LIG    1       -2.824   1.611  -2.442  0.00  0.00    +0.020 C 
ENDROOT
BRANCH   1   8
ATOM      7  C   LIG    1       -3.740   1.398  -5.493  0.00  0.00    +0.600 C 
ATOM      8  N   LIG    1       -2.743   2.037  -4.851  0.00  0.00    -0.720 N 
ATOM      9  H   LIG    1       -2.485   2.932  -5.123  0.00  0.00    +0.400 HD
ATOM     10  O   LIG    1       -4.063   0.276  -5.152  0.00  0.00    -0.550 OA
BRANCH   7  14
ATOM     11  C   LIG    1       -6.883   2.308  -9.269  0.00  0.00    +0.360 C 
ATOM     12  N   LIG    1       -5.824   2.453  -8.267  0.00  0.00    -0.360 N 
ATOM     13  C   LIG    1       -5.475   1.531  -7.356  0.00  0.00    +0.320 A 
ATOM     14  C   LIG    1       -4.441   2.059  -6.609  0.00  0.00    -0.300 A 
ATOM     15  C   LIG    1       -4.183   3.354  -7.112  0.00  0.00    +0.270 A 
ATOM     16  N   LIG    1       -5.006   3.575  -8.099  0.00  0.00    -0.300 NA
ENDBRANCH   7  14
ENDBRANCH   1   8
BRANCH   4  17
ATOM     17  C   LIG    1       -0.013   1.086   0.008  0.00  0.00    +0.320 C 
BRANCH  17  18
ATOM     18  C   LIG    1       -0.718   1.572   1.248  0.00  0.00    +0.180 A 
ATOM     19  N   LIG    1       -0.481   2.681   1.883  0.00  0.00    -0.370 NA
ATOM     20  O   LIG    1       -1.220   2.783   2.840  0.00  0.00    +0.080 OA
ATOM     21  C   LIG    1       -2.016   1.712   2.913  0.00  0.00    +0.190 A 
ATOM     22  N   LIG    1       -1.704   0.935   1.904  0.00  0.00    -0.480 NA
BRANCH  21  23
ATOM     23  C   LIG    1       -3.071   1.448   3.957  0.00  0.00    +0.030 C 
ATOM     24  C   LIG    1       -4.436   1.314   3.280  0.00  0.00    +0.070 C 
ATOM     25  C   LIG    1       -3.106   2.610   4.951  0.00  0.00    +0.070 C 
ATOM     26  C   LIG    1       -2.740   0.151   4.699  0.00  0.00    +0.070 C 
ENDBRANCH  21  23
ENDBRANCH  17  18
ENDBRANCH   4  17
TORSDOF 5
