REMARK  Name = ZINCkj000005hcjl.2
REMARK                            x       y       z     vdW  Elec       q    Type
REMARK                         _______ _______ _______ _____ _____    ______ ____
ROOT
ATOM      1  C   LIG    1        1.876   5.077  -2.031  0.00  0.00    +0.320 C 
ATOM      2  N   LIG    1        2.859   4.194  -1.388  0.00  0.00    -0.370 N 
ATOM      3  H   LIG    1        2.907   3.321  -1.892  0.00  0.00    +0.430 HD
ENDROOT
BRANCH   2   4
ATOM      4  C   LIG    1        2.451   3.937  -0.001  0.00  0.00    +0.340 C 
BRANCH   4   5
ATOM      5  C   LIG    1        1.156   3.165   0.008  0.00  0.00    -0.130 A 
ATOM      6  C   LIG    1        1.175   1.783   0.000  0.00  0.00    +0.060 A 
ATOM      7  C   LIG    1       -0.013   1.076   0.008  0.00  0.00    +0.090 A 
ATOM      8  C   LIG    1       -1.219   1.751   0.017  0.00  0.00    -0.140 A 
ATOM      9  C   LIG    1       -1.238   3.133   0.030  0.00  0.00    +0.080 A 
ATOM     10  C   LIG    1       -0.050   3.840   0.023  0.00  0.00    +0.060 A 
BRANCH   8  11
ATOM     11  C   LIG    1       -2.514   0.980   0.019  0.00  0.00    +0.500 C 
ATOM     12  F   LIG    1       -2.333  -0.237  -0.648  0.00  0.00    -0.170 F 
ATOM     13  F   LIG    1       -3.502   1.726  -0.631  0.00  0.00    -0.170 F 
ATOM     14  F   LIG    1       -2.908   0.734   1.339  0.00  0.00    -0.170 F 
ENDBRANCH   8  11
ENDBRANCH   4   5
ENDBRANCH   2   4
BRANCH   2  15
ATOM     15  C   LIG    1        4.178   4.840  -1.399  0.00  0.00    +0.310 C 
BRANCH  15  16
ATOM     16  C   LIG    1        4.651   4.993  -2.822  0.00  0.00    +0.510 C 
ATOM     17  N   LIG    1        5.845   5.563  -3.078  0.00  0.00    -0.680 N 
ATOM     18  H   LIG    1        6.400   5.875  -2.346  0.00  0.00    +0.420 HD
ATOM     19  C   LIG    1        6.268   5.700  -4.350  0.00  0.00    +0.700 C 
ATOM     20  O   LIG    1        5.572   5.309  -5.267  0.00  0.00    -0.520 OA
ATOM     21  N   LIG    1        7.462   6.270  -4.606  0.00  0.00    -0.850 N 
ATOM     22  H   LIG    1        7.766   6.369  -5.521  0.00  0.00    +0.430 HD
ATOM     23  H   LIG    1        8.017   6.583  -3.874  0.00  0.00    +0.410 HD
ATOM     24  O   LIG    1        3.957   4.603  -3.736  0.00  0.00    -0.450 OA
ENDBRANCH  15  16
ENDBRANCH   2  15
TORSDOF 5
