REMARK  Name = ZINCkj000005hcjl.1
REMARK                            x       y       z     vdW  Elec       q    Type
REMARK                         _______ _______ _______ _____ _____    ______ ____
ROOT
ATOM      1  C   LIG    1       -0.087   3.666   2.064  0.00  0.00    +0.320 C 
ATOM      2  N   LIG    1        1.157   4.075   1.397  0.00  0.00    -0.370 N 
ATOM      3  H   LIG    1        1.946   3.681   1.887  0.00  0.00    +0.430 HD
ENDROOT
BRANCH   2   4
ATOM      4  C   LIG    1        1.151   3.592   0.010  0.00  0.00    +0.340 C 
BRANCH   4   5
ATOM      5  C   LIG    1        1.171   2.086   0.002  0.00  0.00    -0.130 A 
ATOM      6  C   LIG    1       -0.017   1.378   0.010  0.00  0.00    +0.060 A 
ATOM      7  C   LIG    1        0.002  -0.004   0.002  0.00  0.00    +0.080 A 
ATOM      8  C   LIG    1        1.208  -0.679  -0.014  0.00  0.00    -0.140 A 
ATOM      9  C   LIG    1        2.396   0.029  -0.021  0.00  0.00    +0.090 A 
ATOM     10  C   LIG    1        2.377   1.411  -0.014  0.00  0.00    +0.060 A 
BRANCH   8  11
ATOM     11  C   LIG    1        1.229  -2.186  -0.022  0.00  0.00    +0.500 C 
ATOM     12  F   LIG    1        0.100  -2.671   0.646  0.00  0.00    -0.170 F 
ATOM     13  F   LIG    1        2.384  -2.640   0.624  0.00  0.00    -0.170 F 
ATOM     14  F   LIG    1        1.222  -2.645  -1.343  0.00  0.00    -0.170 F 
ENDBRANCH   8  11
ENDBRANCH   4   5
ENDBRANCH   2   4
BRANCH   2  15
ATOM     15  C   LIG    1        1.258   5.540   1.406  0.00  0.00    +0.310 C 
BRANCH  15  16
ATOM     16  C   LIG    1        1.388   6.027   2.826  0.00  0.00    +0.510 C 
ATOM     17  N   LIG    1        1.495   7.346   3.079  0.00  0.00    -0.680 N 
ATOM     18  H   LIG    1        1.489   7.983   2.347  0.00  0.00    +0.420 HD
ATOM     19  C   LIG    1        1.612   7.782   4.349  0.00  0.00    +0.700 C 
ATOM     20  O   LIG    1        1.620   6.984   5.267  0.00  0.00    -0.520 OA
ATOM     21  N   LIG    1        1.719   9.101   4.603  0.00  0.00    -0.850 N 
ATOM     22  H   LIG    1        1.803   9.414   5.517  0.00  0.00    +0.430 HD
ATOM     23  H   LIG    1        1.713   9.737   3.870  0.00  0.00    +0.410 HD
ATOM     24  O   LIG    1        1.396   5.232   3.741  0.00  0.00    -0.450 OA
ENDBRANCH  15  16
ENDBRANCH   2  15
TORSDOF 5
