REMARK  Name = ZINCAx0000000aKO.0
REMARK                            x       y       z     vdW  Elec       q    Type
REMARK                         _______ _______ _______ _____ _____    ______ ____
ROOT
ATOM      1  N   LIG    1        6.454  -0.506  -1.417  0.00  0.00    -0.520 N 
ATOM      2  H   LIG    1        7.038  -0.820  -0.709  0.00  0.00    +0.430 HD
ATOM      3  C   LIG    1        5.416   0.303  -1.125  0.00  0.00    +0.500 C 
ATOM      4  O   LIG    1        4.686   0.696  -2.009  0.00  0.00    -0.520 OA
ENDROOT
BRANCH   1   6
ATOM      5  C   LIG    1        7.726  -1.702  -3.035  0.00  0.00    +0.520 C 
ATOM      6  N   LIG    1        6.688  -0.893  -2.743  0.00  0.00    -0.520 N 
ATOM      7  H   LIG    1        6.104  -0.579  -3.450  0.00  0.00    +0.430 HD
ATOM      8  O   LIG    1        8.456  -2.095  -2.150  0.00  0.00    -0.510 OA
BRANCH   5  10
ATOM      9  C   LIG    1        6.813  -2.979  -4.955  0.00  0.00    +0.060 C 
ATOM     10  C   LIG    1        7.978  -2.119  -4.461  0.00  0.00    +0.190 C 
BRANCH  10  11
ATOM     11  O   LIG    1        9.190  -2.873  -4.529  0.00  0.00    -0.280 OA
BRANCH  11  12
ATOM     12  C   LIG    1        9.841  -2.887  -5.722  0.00  0.00    +0.130 A 
ATOM     13  C   LIG    1       11.059  -3.496  -5.818  0.00  0.00    +0.000 A 
ATOM     14  C   LIG    1       11.733  -3.512  -7.050  0.00  0.00    -0.010 A 
ATOM     15  C   LIG    1       12.988  -4.129  -7.187  0.00  0.00    +0.020 A 
ATOM     16  C   LIG    1       13.612  -4.126  -8.396  0.00  0.00    +0.030 A 
ATOM     17  C   LIG    1       13.026  -3.518  -9.505  0.00  0.00    -0.010 A 
ATOM     18  C   LIG    1       11.811  -2.911  -9.410  0.00  0.00    +0.030 A 
ATOM     19  C   LIG    1       11.136  -2.894  -8.178  0.00  0.00    -0.080 A 
ATOM     20  C   LIG    1        9.880  -2.277  -8.043  0.00  0.00    +0.070 A 
ATOM     21  C   LIG    1        9.251  -2.284  -6.838  0.00  0.00    -0.070 A 
ENDBRANCH  11  12
ENDBRANCH  10  11
ENDBRANCH   5  10
ENDBRANCH   1   6
BRANCH   3  22
ATOM     22  C   LIG    1        5.164   0.720   0.302  0.00  0.00    +0.360 C 
BRANCH  22  23
ATOM     23  N   LIG    1        3.988   1.592   0.355  0.00  0.00    -0.600 N 
ATOM     24  C   LIG    1        4.124   2.914   0.109  0.00  0.00    +0.580 C 
ATOM     25  C   LIG    1        2.947   3.801   0.133  0.00  0.00    -0.170 A 
ATOM     26  C   LIG    1        3.063   5.185   0.210  0.00  0.00    +0.110 A 
ATOM     27  C   LIG    1        1.923   5.964   0.217  0.00  0.00    +0.000 A 
ATOM     28  C   LIG    1        0.669   5.383   0.131  0.00  0.00    +0.080 A 
ATOM     29  C   LIG    1        0.537   4.006   0.054  0.00  0.00    +0.000 A 
ATOM     30  C   LIG    1        1.665   3.218   0.061  0.00  0.00    +0.200 A 
ATOM     31  N   LIG    1        1.634   1.821   0.013  0.00  0.00    -0.560 N 
ATOM     32  C   LIG    1        0.764   1.046  -0.639  0.00  0.00    +0.530 C 
ATOM     33  C   LIG    1        1.250  -0.381  -0.683  0.00  0.00    +0.090 C 
ATOM     34  C   LIG    1        2.546  -0.409   0.148  0.00  0.00    +0.060 C 
ATOM     35  O   LIG    1       -0.275   1.437  -1.129  0.00  0.00    -0.500 OA
ATOM     36  O   LIG    1        5.223   3.373  -0.134  0.00  0.00    -0.520 OA
ATOM     37  C   LIG    1        2.680   1.023   0.674  0.00  0.00    +0.380 C 
ATOM     38  C   LIG    1        2.464   1.040   2.188  0.00  0.00    +0.070 C 
ENDBRANCH  22  23
ENDBRANCH   3  22
TORSDOF 6
