REMARK  Name = ZINCrD0000075ogO.0
REMARK                            x       y       z     vdW  Elec       q    Type
REMARK                         _______ _______ _______ _____ _____    ______ ____
ROOT
ATOM      1  C   LIG    1       -0.013   1.086   0.008  0.00  0.00    +0.300 C 
ENDROOT
BRANCH   1   5
ATOM      2  O   LIG    1       -3.479   3.468   2.241  0.00  0.00    -0.450 OA
ATOM      3  C   LIG    1       -2.478   2.781   2.334  0.00  0.00    +0.510 A 
ATOM      4  C   LIG    1       -1.832   2.344   1.159  0.00  0.00    -0.040 A 
ATOM      5  C   LIG    1       -0.718   1.572   1.248  0.00  0.00    +0.010 A 
ATOM      6  C   LIG    1       -0.218   1.230   2.581  0.00  0.00    -0.160 A 
ATOM      7  C   LIG    1        0.928   0.442   2.740  0.00  0.00    +0.100 A 
ATOM      8  C   LIG    1        1.373   0.139   3.994  0.00  0.00    -0.010 A 
ATOM      9  C   LIG    1        0.694   0.607   5.117  0.00  0.00    +0.170 A 
ATOM     10  C   LIG    1       -0.443   1.387   4.978  0.00  0.00    -0.010 A 
ATOM     11  C   LIG    1       -0.908   1.705   3.711  0.00  0.00    +0.170 A 
ATOM     12  O   LIG    1       -2.014   2.464   3.553  0.00  0.00    -0.270 OA
BRANCH   9  13
ATOM     13  O   LIG    1        1.149   0.295   6.357  0.00  0.00    -0.490 OA
ATOM     14  H   LIG    1        0.780  -0.523   6.717  0.00  0.00    +0.400 HD
ENDBRANCH   9  13
ENDBRANCH   1   5
BRANCH   1  15
ATOM     15  O   LIG    1       -0.715   1.567  -1.168  0.00  0.00    -0.350 OA
BRANCH  15  16
ATOM     16  C   LIG    1       -0.211   1.220  -2.363  0.00  0.00    +0.470 C 
ATOM     17  O   LIG    1        0.783   0.536  -2.424  0.00  0.00    -0.500 OA
BRANCH  16  18
ATOM     18  C   LIG    1       -0.887   1.682  -3.629  0.00  0.00    +0.130 C 
BRANCH  18  19
ATOM     19  C   LIG    1       -0.117   1.152  -4.840  0.00  0.00    +0.060 C 
BRANCH  19  20
ATOM     20  C   LIG    1       -0.792   1.614  -6.106  0.00  0.00    +0.400 C 
ATOM     21  O   LIG    1       -1.791   2.300  -6.045  0.00  0.00    -0.450 OA
BRANCH  20  22
ATOM     22  C   LIG    1       -0.241   1.234  -7.414  0.00  0.00    -0.190 A 
ATOM     23  C   LIG    1        0.914   0.447  -7.488  0.00  0.00    +0.110 A 
ATOM     24  C   LIG    1        1.423   0.091  -8.718  0.00  0.00    -0.030 A 
ATOM     25  C   LIG    1        0.799   0.518  -9.880  0.00  0.00    +0.130 A 
ATOM     26  C   LIG    1       -0.343   1.302  -9.814  0.00  0.00    -0.030 A 
ATOM     27  F   LIG    1        1.307   0.169 -11.083  0.00  0.00    -0.130 F 
ATOM     28  C   LIG    1       -0.866   1.661  -8.591  0.00  0.00    +0.120 A 
ENDBRANCH  20  22
ENDBRANCH  19  20
ENDBRANCH  18  19
ENDBRANCH  16  18
ENDBRANCH  15  16
ENDBRANCH   1  15
TORSDOF 8
