REMARK  Name = ZINCrH000004mRm4.0
REMARK                            x       y       z     vdW  Elec       q    Type
REMARK                         _______ _______ _______ _____ _____    ______ ____
ROOT
ATOM      1  C   LIG    1        1.162   3.162  -0.010  0.00  0.00    +0.090 A 
ATOM      2  C   LIG    1        1.168   1.789  -0.191  0.00  0.00    -0.010 A 
ATOM      3  C   LIG    1       -0.021   1.084  -0.178  0.00  0.00    +0.030 A 
ATOM      4  C   LIG    1       -1.223   1.751   0.012  0.00  0.00    +0.150 A 
ATOM      5  C   LIG    1       -1.232   3.127   0.200  0.00  0.00    -0.060 A 
ATOM      6  C   LIG    1       -0.041   3.833   0.186  0.00  0.00    +0.130 A 
ENDROOT
BRANCH   4   7
ATOM      7  N   LIG    1       -2.427   1.035   0.019  0.00  0.00    -0.670 N 
ATOM      8  H   LIG    1       -3.236   1.444  -0.326  0.00  0.00    +0.410 HD
ATOM      9  C   LIG    1       -2.462  -0.221   0.506  0.00  0.00    +0.590 C 
ATOM     10  O   LIG    1       -1.472  -0.699   1.026  0.00  0.00    -0.510 OA
BRANCH   9  11
ATOM     11  C   LIG    1       -3.699  -1.016   0.407  0.00  0.00    -0.240 A 
ATOM     12  C   LIG    1       -4.888  -0.627  -0.137  0.00  0.00    +0.240 A 
ATOM     13  O   LIG    1       -5.752  -1.640  -0.031  0.00  0.00    -0.170 OA
ATOM     14  C   LIG    1       -5.183  -2.693   0.577  0.00  0.00    +0.180 A 
ATOM     15  C   LIG    1       -3.912  -2.391   0.882  0.00  0.00    +0.000 A 
ENDBRANCH   9  11
ENDBRANCH   4   7
BRANCH   1  17
ATOM     16  C   LIG    1        3.530   3.102  -0.230  0.00  0.00    +0.250 C 
ATOM     17  O   LIG    1        2.333   3.855  -0.024  0.00  0.00    -0.310 OA
ENDBRANCH   1  17
BRANCH   6  18
ATOM     18  O   LIG    1       -0.048   5.181   0.364  0.00  0.00    -0.300 OA
BRANCH  18  19
ATOM     19  C   LIG    1       -1.319   5.804   0.560  0.00  0.00    +0.310 C 
BRANCH  19  20
ATOM     20  C   LIG    1       -1.130   7.288   0.738  0.00  0.00    +0.050 A 
ATOM     21  C   LIG    1        0.054   7.939   0.724  0.00  0.00    +0.130 A 
ATOM     22  N   LIG    1       -0.212   9.267   0.918  0.00  0.00    -0.360 N 
ATOM     23  C   LIG    1        0.590  10.368   0.993  0.00  0.00    +0.230 A 
ATOM     24  C   LIG    1        0.060  11.592   1.202  0.00  0.00    +0.010 A 
ATOM     25  C   LIG    1       -1.328  11.747   1.347  0.00  0.00    +0.040 A 
ATOM     26  C   LIG    1       -2.139  10.658   1.274  0.00  0.00    +0.070 A 
ATOM     27  C   LIG    1       -1.571   9.387   1.055  0.00  0.00    +0.230 A 
ATOM     28  N   LIG    1       -2.103   8.178   0.943  0.00  0.00    -0.480 NA
ENDBRANCH  19  20
ENDBRANCH  18  19
ENDBRANCH   6  18
TORSDOF 6
