REMARK  Name = ZINCvU00000009Qc.0
REMARK                            x       y       z     vdW  Elec       q    Type
REMARK                         _______ _______ _______ _____ _____    ______ ____
ROOT
ATOM      1  C   LIG    1        0.760  -6.339  -0.083  0.00  0.00    +0.170 A 
ATOM      2  N   LIG    1        1.818  -5.991  -0.780  0.00  0.00    -0.280 NA
ATOM      3  N   LIG    1        1.872  -4.712  -0.895  0.00  0.00    -0.260 NA
ATOM      4  C   LIG    1        0.852  -4.162  -0.278  0.00  0.00    +0.240 A 
ATOM      5  N   LIG    1        0.109  -5.187   0.267  0.00  0.00    -0.410 N 
ENDROOT
BRANCH   4   6
ATOM      6  C   LIG    1        0.558  -2.717  -0.182  0.00  0.00    -0.010 A 
ATOM      7  C   LIG    1       -0.705  -2.285   0.226  0.00  0.00    +0.050 A 
ATOM      8  C   LIG    1       -0.976  -0.935   0.316  0.00  0.00    +0.040 A 
ATOM      9  C   LIG    1        0.002  -0.004   0.002  0.00  0.00    +0.050 A 
ATOM     10  O   LIG    1       -0.016   1.361   0.009  0.00  0.00    -0.300 OA
ATOM     11  C   LIG    1        1.365   1.765  -0.002  0.00  0.00    +0.440 C 
ATOM     12  O   LIG    1        2.037   0.670  -0.653  0.00  0.00    -0.300 OA
ATOM     13  C   LIG    1        1.266  -0.429  -0.406  0.00  0.00    +0.040 A 
ATOM     14  C   LIG    1        1.544  -1.780  -0.498  0.00  0.00    +0.090 A 
ENDBRANCH   4   6
BRANCH   5  15
ATOM     15  C   LIG    1       -1.068  -5.074   1.020  0.00  0.00    +0.100 A 
ATOM     16  C   LIG    1       -1.041  -4.458   2.264  0.00  0.00    +0.030 A 
ATOM     17  C   LIG    1       -2.204  -4.343   3.001  0.00  0.00    +0.040 A 
ATOM     18  C   LIG    1       -3.391  -4.850   2.505  0.00  0.00    +0.040 A 
ATOM     19  C   LIG    1       -3.420  -5.468   1.269  0.00  0.00    +0.040 A 
ATOM     20  C   LIG    1       -2.261  -5.581   0.525  0.00  0.00    +0.030 A 
ENDBRANCH   5  15
BRANCH   1  21
ATOM     21  S   LIG    1        0.274  -7.981   0.330  0.00  0.00    +0.020 S 
BRANCH  21  22
ATOM     22  C   LIG    1        1.608  -8.913  -0.463  0.00  0.00    +0.160 C 
BRANCH  22  26
ATOM     23  C   LIG    1        1.006 -13.095   0.182  0.00  0.00    +0.110 A 
ATOM     24  C   LIG    1        0.459 -12.478  -0.932  0.00  0.00    -0.040 A 
ATOM     25  C   LIG    1        0.655 -11.126  -1.138  0.00  0.00    +0.080 A 
ATOM     26  C   LIG    1        1.396 -10.387  -0.234  0.00  0.00    -0.090 A 
ATOM     27  C   LIG    1        1.948 -11.000   0.876  0.00  0.00    +0.060 A 
ATOM     28  C   LIG    1        1.750 -12.352   1.090  0.00  0.00    +0.070 A 
ATOM     29  F   LIG    1        2.285 -12.950   2.177  0.00  0.00    -0.130 F 
BRANCH  23  31
ATOM     30  C   LIG    1        0.040 -15.127  -0.589  0.00  0.00    +0.250 C 
ATOM     31  O   LIG    1        0.815 -14.426   0.386  0.00  0.00    -0.310 OA
ENDBRANCH  23  31
ENDBRANCH  22  26
ENDBRANCH  21  22
ENDBRANCH   1  21
TORSDOF 6
