REMARK  Name = ZINCqH0000005TW3.0
REMARK                            x       y       z     vdW  Elec       q    Type
REMARK                         _______ _______ _______ _____ _____    ______ ____
ROOT
ATOM      1  C   LIG    1        4.008   3.470   2.510  0.00  0.00    -0.170 A 
ATOM      2  C   LIG    1        5.366   3.774   2.376  0.00  0.00    +0.250 A 
ATOM      3  C   LIG    1        6.316   2.822   2.675  0.00  0.00    -0.060 A 
ATOM      4  C   LIG    1        5.933   1.562   3.107  0.00  0.00    +0.230 A 
ATOM      5  C   LIG    1        4.597   1.248   3.250  0.00  0.00    -0.050 A 
ATOM      6  C   LIG    1        3.624   2.192   2.949  0.00  0.00    +0.280 A 
ENDROOT
BRANCH   5   7
ATOM      7  N   LIG    1        4.200  -0.099   3.718  0.00  0.00    +0.030 N 
ATOM      8  O   LIG    1        3.028  -0.345   3.941  0.00  0.00    -0.070 OA
ATOM      9  O   LIG    1        5.045  -0.961   3.881  0.00  0.00    -0.170 OA
ENDBRANCH   5   7
BRANCH   3  10
ATOM     10  N   LIG    1        7.753   3.146   2.533  0.00  0.00    +0.030 N 
ATOM     11  O   LIG    1        8.595   2.307   2.795  0.00  0.00    -0.130 OA
ATOM     12  O   LIG    1        8.093   4.252   2.152  0.00  0.00    -0.130 OA
ENDBRANCH   3  10
BRANCH   1  13
ATOM     13  C   LIG    1        2.987   4.483   2.192  0.00  0.00    +0.510 C 
ATOM     14  O   LIG    1        1.807   4.199   2.260  0.00  0.00    -0.480 OA
BRANCH  13  16
ATOM     15  C   LIG    1        2.301   6.671   1.528  0.00  0.00    +0.290 C 
ATOM     16  O   LIG    1        3.361   5.725   1.827  0.00  0.00    -0.350 OA
ENDBRANCH  13  16
ENDBRANCH   1  13
BRANCH   6  17
ATOM     17  N   LIG    1        2.279   1.877   3.086  0.00  0.00    -0.630 N 
ATOM     18  H   LIG    1        1.779   2.620   3.550  0.00  0.00    +0.380 HD
BRANCH  17  19
ATOM     19  C   LIG    1        1.674   1.570   1.783  0.00  0.00    +0.210 C 
ATOM     20  C   LIG    1        2.004   0.127   1.395  0.00  0.00    +0.050 C 
BRANCH  19  21
ATOM     21  C   LIG    1        0.179   1.736   1.871  0.00  0.00    -0.070 A 
ATOM     22  C   LIG    1       -0.448   1.714   3.103  0.00  0.00    +0.030 A 
ATOM     23  C   LIG    1       -1.819   1.867   3.184  0.00  0.00    +0.000 A 
ATOM     24  C   LIG    1       -2.564   2.042   2.033  0.00  0.00    +0.010 A 
ATOM     25  C   LIG    1       -1.937   2.070   0.801  0.00  0.00    +0.000 A 
ATOM     26  C   LIG    1       -0.566   1.912   0.720  0.00  0.00    -0.080 A 
ATOM     27  C   LIG    1        0.117   1.936  -0.623  0.00  0.00    +0.080 C 
ENDBRANCH  19  21
ENDBRANCH  17  19
ENDBRANCH   6  17
TORSDOF 7
