REMARK  Name = ZINCrD00000F5LG4.0
REMARK                            x       y       z     vdW  Elec       q    Type
REMARK                         _______ _______ _______ _____ _____    ______ ____
ROOT
ATOM      1  C   LIG    1        6.769   1.046  -0.023  0.00  0.00    +0.250 A 
ATOM      2  N   LIG    1        7.050   2.317  -0.149  0.00  0.00    -0.290 NA
ATOM      3  N   LIG    1        5.829   3.012  -0.138  0.00  0.00    -0.340 N 
ATOM      4  C   LIG    1        4.858   2.068   0.009  0.00  0.00    +0.380 A 
ATOM      5  N   LIG    1        5.451   0.891   0.072  0.00  0.00    -0.490 NA
ENDROOT
BRANCH   4   6
ATOM      6  C   LIG    1        3.405   2.317   0.078  0.00  0.00    -0.110 A 
ATOM      7  C   LIG    1        2.678   3.126  -0.736  0.00  0.00    +0.310 A 
ATOM      8  N   LIG    1        1.366   3.099  -0.362  0.00  0.00    -0.560 N 
ATOM      9  H   LIG    1        0.656   3.597  -0.796  0.00  0.00    +0.430 HD
ATOM     10  C   LIG    1        1.193   2.268   0.713  0.00  0.00    +0.330 A 
ATOM     11  N   LIG    1        0.144   1.901   1.441  0.00  0.00    -0.520 NA
ATOM     12  C   LIG    1        0.287   1.061   2.444  0.00  0.00    +0.530 A 
ATOM     13  N   LIG    1        1.455   0.546   2.780  0.00  0.00    -0.530 NA
ATOM     14  C   LIG    1        2.556   0.854   2.112  0.00  0.00    +0.390 A 
ATOM     15  C   LIG    1        2.458   1.737   1.042  0.00  0.00    -0.180 A 
ENDBRANCH   4   6
BRANCH   3  16
ATOM     16  C   LIG    1        5.648   4.396  -0.252  0.00  0.00    +0.220 A 
ATOM     17  C   LIG    1        6.383   5.120  -1.181  0.00  0.00    +0.010 A 
ATOM     18  C   LIG    1        6.198   6.486  -1.297  0.00  0.00    +0.180 A 
ATOM     19  C   LIG    1        5.288   7.134  -0.478  0.00  0.00    -0.180 A 
ATOM     20  C   LIG    1        4.558   6.415   0.454  0.00  0.00    +0.180 A 
ATOM     21  F   LIG    1        3.671   7.049   1.252  0.00  0.00    -0.100 F 
ATOM     22 BR   LIG    1        5.042   9.002  -0.633  0.00  0.00    +0.010 Br
ATOM     23  F   LIG    1        6.910   7.189  -2.205  0.00  0.00    -0.100 F 
ATOM     24  C   LIG    1        4.736   5.048   0.568  0.00  0.00    +0.000 A 
ENDBRANCH   3  16
BRANCH   1  25
ATOM     25  C   LIG    1        7.782  -0.070   0.009  0.00  0.00    +0.320 C 
BRANCH  25  27
ATOM     26  C   LIG    1        8.673   0.488  -2.172  0.00  0.00    +0.190 C 
ATOM     27  N   LIG    1        8.025  -0.549  -1.358  0.00  0.00    -0.540 NA
ATOM     28  C   LIG    1        8.819  -1.785  -1.349  0.00  0.00    +0.200 C 
ENDBRANCH  25  27
ENDBRANCH   1  25
TORSDOF 4
