REMARK  Name = ZINCrD00000F5LpD.0
REMARK                            x       y       z     vdW  Elec       q    Type
REMARK                         _______ _______ _______ _____ _____    ______ ____
ROOT
ATOM      1  N   LIG    1        1.143   1.898   0.001  0.00  0.00    -0.630 N 
ATOM      2  H   LIG    1        1.130   2.868   0.007  0.00  0.00    +0.420 HD
ATOM      3  C   LIG    1       -0.014   1.209   0.009  0.00  0.00    +0.510 C 
ATOM      4  O   LIG    1        0.002  -0.004   0.002  0.00  0.00    -0.470 OA
ENDROOT
BRANCH   1  12
ATOM      5  C   LIG    1        7.596  -2.271   0.102  0.00  0.00    +0.030 C 
ATOM      6  C   LIG    1        6.599  -1.137   0.350  0.00  0.00    -0.010 C 
ATOM      7  C   LIG    1        6.989   0.084  -0.489  0.00  0.00    +0.030 C 
ATOM      8  C   LIG    1        6.150   1.285  -0.049  0.00  0.00    +0.100 C 
ATOM      9  C   LIG    1        4.685   0.881  -0.038  0.00  0.00    -0.040 A 
ATOM     10  C   LIG    1        4.269  -0.392  -0.041  0.00  0.00    -0.240 A 
ATOM     11  S   LIG    1        2.515  -0.474  -0.017  0.00  0.00    +0.330 S 
ATOM     12  C   LIG    1        2.355   1.221  -0.014  0.00  0.00    +0.050 A 
ATOM     13  C   LIG    1        3.581   1.823  -0.022  0.00  0.00    -0.110 A 
ATOM     14  C   LIG    1        5.195  -1.593  -0.056  0.00  0.00    +0.120 C 
BRANCH  13  15
ATOM     15  C   LIG    1        3.759   3.244  -0.017  0.00  0.00    +0.270 C 
ATOM     16  N   LIG    1        3.901   4.371  -0.012  0.00  0.00    -0.420 NA
ENDBRANCH  13  15
ENDBRANCH   1  12
BRANCH   3  17
ATOM     17  C   LIG    1       -1.330   1.944   0.019  0.00  0.00    +0.300 C 
BRANCH  17  18
ATOM     18  O   LIG    1       -2.420   0.986   0.019  0.00  0.00    -0.330 OA
BRANCH  18  19
ATOM     19  C   LIG    1       -3.672   1.484   0.028  0.00  0.00    +0.510 C 
ATOM     20  O   LIG    1       -3.847   2.685   0.035  0.00  0.00    -0.490 OA
BRANCH  19  21
ATOM     21  C   LIG    1       -4.833   0.567   0.028  0.00  0.00    -0.100 A 
ATOM     22  C   LIG    1       -4.631  -0.815   0.014  0.00  0.00    +0.080 A 
ATOM     23  C   LIG    1       -5.711  -1.670   0.019  0.00  0.00    +0.070 A 
ATOM     24  C   LIG    1       -7.010  -1.153   0.028  0.00  0.00    -0.150 A 
ATOM     25  C   LIG    1       -7.212   0.230   0.037  0.00  0.00    +0.070 A 
ATOM     26  C   LIG    1       -6.130   1.083   0.037  0.00  0.00    +0.080 A 
BRANCH  24  27
ATOM     27  C   LIG    1       -8.167  -2.067   0.028  0.00  0.00    +0.490 C 
ATOM     28  O   LIG    1       -7.992  -3.267   0.020  0.00  0.00    -0.450 OA
ENDBRANCH  24  27
ENDBRANCH  19  21
ENDBRANCH  18  19
ENDBRANCH  17  18
ENDBRANCH   3  17
TORSDOF 7
