REMARK  Name = ZINCtV000002Pj53.0
REMARK                            x       y       z     vdW  Elec       q    Type
REMARK                         _______ _______ _______ _____ _____    ______ ____
ROOT
ATOM      1  O   LIG    1       -4.237   0.107  -0.717  0.00  0.00    -0.520 OA
ATOM      2  C   LIG    1       -4.782  -0.862  -1.214  0.00  0.00    +0.610 C 
ATOM      3  N   LIG    1       -4.154  -1.568  -2.175  0.00  0.00    -0.600 N 
ATOM      4  C   LIG    1       -2.765  -1.260  -2.544  0.00  0.00    +0.290 C 
ATOM      5  C   LIG    1       -1.937  -2.550  -2.447  0.00  0.00    +0.040 C 
ATOM      6  C   LIG    1       -2.590  -3.635  -3.307  0.00  0.00    +0.090 C 
ATOM      7  C   LIG    1       -3.998  -3.926  -2.782  0.00  0.00    +0.040 C 
ATOM      8  C   LIG    1       -4.848  -2.655  -2.879  0.00  0.00    +0.280 C 
ENDROOT
BRANCH   6   9
ATOM      9  C   LIG    1       -1.761  -4.892  -3.245  0.00  0.00    +0.100 A 
ATOM     10  N   LIG    1       -1.503  -5.531  -2.167  0.00  0.00    -0.460 NA
ATOM     11  C   LIG    1       -0.750  -6.644  -2.261  0.00  0.00    +0.080 A 
ATOM     12  C   LIG    1       -0.324  -7.530  -1.251  0.00  0.00    +0.070 A 
ATOM     13  C   LIG    1        0.448  -8.609  -1.561  0.00  0.00    +0.030 A 
ATOM     14  C   LIG    1        0.828  -8.857  -2.872  0.00  0.00    +0.040 A 
ATOM     15  C   LIG    1        0.425  -8.009  -3.879  0.00  0.00    +0.060 A 
ATOM     16  C   LIG    1       -0.364  -6.901  -3.581  0.00  0.00    -0.180 A 
ATOM     17  S   LIG    1       -1.042  -5.636  -4.602  0.00  0.00    +0.100 S 
ENDBRANCH   6   9
BRANCH   2  18
ATOM     18  C   LIG    1       -6.119  -1.261  -0.767  0.00  0.00    -0.080 A 
ATOM     19  C   LIG    1       -6.926  -0.556   0.099  0.00  0.00    +0.060 A 
ATOM     20  C   LIG    1       -8.103  -1.297   0.247  0.00  0.00    -0.030 A 
ATOM     21  C   LIG    1       -7.973  -2.415  -0.526  0.00  0.00    +0.050 A 
ATOM     22  O   LIG    1       -6.772  -2.386  -1.127  0.00  0.00    -0.140 OA
BRANCH  21  23
ATOM     23  C   LIG    1       -8.982  -3.483  -0.671  0.00  0.00    -0.020 A 
ATOM     24  C   LIG    1       -9.563  -4.058   0.462  0.00  0.00    +0.060 A 
ATOM     25  C   LIG    1      -10.501  -5.059   0.319  0.00  0.00    +0.030 A 
ATOM     26  C   LIG    1      -10.872  -5.491  -0.942  0.00  0.00    +0.050 A 
ATOM     27  C   LIG    1      -10.305  -4.923  -2.069  0.00  0.00    +0.030 A 
ATOM     28  C   LIG    1       -9.365  -3.920  -1.942  0.00  0.00    -0.020 A 
ATOM     29 CL   LIG    1       -8.655  -3.208  -3.357  0.00  0.00    -0.050 Cl
ENDBRANCH  21  23
ENDBRANCH   2  18
TORSDOF 3
