REMARK  Name = ZINCtV00000L6l4N.0
REMARK                            x       y       z     vdW  Elec       q    Type
REMARK                         _______ _______ _______ _____ _____    ______ ____
ROOT
ATOM      1  C   LIG    1       -2.038  -0.137  -2.328  0.00  0.00    +0.330 A 
ATOM      2  C   LIG    1       -3.066  -0.400  -3.175  0.00  0.00    -0.390 A 
ATOM      3  S   LIG    1       -4.137  -1.615  -2.505  0.00  0.00    +0.180 S 
ATOM      4  C   LIG    1       -3.170  -1.770  -1.043  0.00  0.00    +0.110 A 
ATOM      5  N   LIG    1       -3.348  -2.548   0.025  0.00  0.00    -0.460 NA
ATOM      6  C   LIG    1       -2.528  -2.560   1.064  0.00  0.00    +0.200 A 
ATOM      7  C   LIG    1       -1.417  -1.748   1.085  0.00  0.00    -0.110 A 
ATOM      8  C   LIG    1       -1.171  -0.897   0.002  0.00  0.00    +0.080 A 
ATOM      9  C   LIG    1       -0.443  -1.725   2.233  0.00  0.00    +0.090 C 
ATOM     10  C   LIG    1       -1.066  -2.352   3.479  0.00  0.00    +0.030 C 
ATOM     11  C   LIG    1       -1.646  -3.717   3.092  0.00  0.00    +0.030 C 
ATOM     12  C   LIG    1       -2.867  -3.489   2.204  0.00  0.00    +0.110 C 
ATOM     13  C   LIG    1       -2.072  -0.907  -1.101  0.00  0.00    -0.150 A 
ENDROOT
BRANCH   8  14
ATOM     14  C   LIG    1        0.006  -0.010  -0.001  0.00  0.00    +0.000 A 
ATOM     15  C   LIG    1       -0.020   1.352   0.014  0.00  0.00    -0.020 A 
ATOM     16  C   LIG    1        1.320   1.782   0.005  0.00  0.00    -0.050 A 
ATOM     17  C   LIG    1        2.091   0.676  -0.015  0.00  0.00    +0.190 A 
ATOM     18  O   LIG    1        1.294  -0.404  -0.018  0.00  0.00    -0.160 OA
ENDBRANCH   8  14
BRANCH   2  19
ATOM     19  C   LIG    1       -3.249   0.225  -4.433  0.00  0.00    +0.610 C 
ATOM     20  N   LIG    1       -4.305  -0.106  -5.202  0.00  0.00    -0.670 N 
ATOM     21  H   LIG    1       -4.902  -0.819  -4.926  0.00  0.00    +0.410 HD
ATOM     22  O   LIG    1       -2.452   1.061  -4.819  0.00  0.00    -0.540 OA
BRANCH  20  23
ATOM     23  C   LIG    1       -4.540   0.579  -6.399  0.00  0.00    +0.170 A 
ATOM     24  C   LIG    1       -5.841   0.816  -6.821  0.00  0.00    +0.000 A 
ATOM     25  C   LIG    1       -6.070   1.496  -8.001  0.00  0.00    +0.070 A 
ATOM     26  C   LIG    1       -5.004   1.932  -8.768  0.00  0.00    -0.110 A 
ATOM     27  C   LIG    1       -3.706   1.692  -8.353  0.00  0.00    +0.070 A 
ATOM     28 BR   LIG    1       -5.321   2.857 -10.386  0.00  0.00    -0.050 Br
ATOM     29  C   LIG    1       -3.471   1.017  -7.171  0.00  0.00    +0.030 A 
ENDBRANCH  20  23
ENDBRANCH   2  19
BRANCH   1  30
ATOM     30  N   LIG    1       -1.041   0.787  -2.612  0.00  0.00    -0.820 N 
ATOM     31  H   LIG    1       -1.061   1.280  -3.448  0.00  0.00    +0.420 HD
ATOM     32  H   LIG    1       -0.326   0.941  -1.976  0.00  0.00    +0.400 HD
ENDBRANCH   1  30
TORSDOF 4
