REMARK  Name = ZINCqH0000006XFj.0
REMARK                            x       y       z     vdW  Elec       q    Type
REMARK                         _______ _______ _______ _____ _____    ______ ____
ROOT
ATOM      1  C   LIG    1        1.113   7.613   2.942  0.00  0.00    +0.180 A 
ATOM      2  C   LIG    1        0.280   7.381   1.868  0.00  0.00    -0.050 A 
ATOM      3  C   LIG    1        0.672   6.473   0.877  0.00  0.00    +0.210 A 
ATOM      4  N   LIG    1       -0.102   6.207  -0.187  0.00  0.00    -0.530 NA
ATOM      5  C   LIG    1        0.293   5.352  -1.099  0.00  0.00    +0.530 A 
ATOM      6  N   LIG    1        1.449   4.712  -1.033  0.00  0.00    -0.560 NA
ATOM      7  C   LIG    1        2.290   4.901  -0.024  0.00  0.00    +0.410 A 
ATOM      8  C   LIG    1        1.920   5.813   0.993  0.00  0.00    -0.190 A 
ATOM      9  C   LIG    1        2.747   6.073   2.092  0.00  0.00    +0.140 A 
ATOM     10  C   LIG    1        2.345   6.960   3.045  0.00  0.00    -0.070 A 
ATOM     11 CL   LIG    1        3.373   7.280   4.407  0.00  0.00    -0.040 Cl
ENDROOT
BRANCH   7  12
ATOM     12  N   LIG    1        3.492   4.228   0.032  0.00  0.00    -0.460 N 
ATOM     13  C   LIG    1        3.569   3.190  -1.025  0.00  0.00    +0.200 C 
ATOM     14  C   LIG    1        4.842   3.548  -1.853  0.00  0.00    +0.190 C 
ATOM     15  C   LIG    1        5.739   4.149  -0.712  0.00  0.00    +0.080 C 
ATOM     16  N   LIG    1        4.449   4.776  -2.614  0.00  0.00    -0.470 N 
ATOM     17  C   LIG    1        4.266   5.844  -1.601  0.00  0.00    +0.170 C 
ATOM     18  C   LIG    1        4.639   5.156  -0.217  0.00  0.00    +0.190 C 
BRANCH  16  19
ATOM     19  C   LIG    1        3.272   4.563  -3.335  0.00  0.00    +0.120 A 
ATOM     20  C   LIG    1        2.972   3.296  -3.818  0.00  0.00    -0.030 A 
ATOM     21  C   LIG    1        1.805   3.088  -4.527  0.00  0.00    +0.030 A 
ATOM     22  C   LIG    1        0.941   4.141  -4.764  0.00  0.00    -0.020 A 
ATOM     23  C   LIG    1        1.239   5.405  -4.288  0.00  0.00    +0.030 A 
ATOM     24  C   LIG    1        2.402   5.619  -3.575  0.00  0.00    -0.030 A 
ENDBRANCH  16  19
ENDBRANCH   7  12
BRANCH   1  26
ATOM     25  C   LIG    1       -0.536   9.124   3.746  0.00  0.00    +0.250 C 
ATOM     26  O   LIG    1        0.734   8.489   3.908  0.00  0.00    -0.300 OA
ENDBRANCH   1  26
TORSDOF 3
