REMARK  Name = ZINCqH0000003IJs.1
REMARK                            x       y       z     vdW  Elec       q    Type
REMARK                         _______ _______ _______ _____ _____    ______ ____
ROOT
ATOM      1  C   LIG    1       -0.927   4.316   5.703  0.00  0.00    +0.180 A 
ATOM      2  C   LIG    1       -1.577   4.766   6.841  0.00  0.00    +0.050 A 
ATOM      3  C   LIG    1       -2.865   4.341   7.115  0.00  0.00    -0.020 A 
ATOM      4  C   LIG    1       -3.510   3.473   6.253  0.00  0.00    +0.020 A 
ATOM      5  C   LIG    1       -2.870   3.025   5.111  0.00  0.00    +0.010 A 
ATOM      6 CL   LIG    1       -3.675   4.899   8.546  0.00  0.00    -0.060 Cl
ATOM      7  C   LIG    1       -1.579   3.445   4.830  0.00  0.00    +0.060 A 
ENDROOT
BRANCH   7   8
ATOM      8  N   LIG    1       -0.930   2.992   3.675  0.00  0.00    -0.500 N 
ATOM      9  C   LIG    1       -0.806   1.528   3.680  0.00  0.00    +0.190 C 
ATOM     10  C   LIG    1       -0.023   1.080   2.444  0.00  0.00    +0.180 C 
ATOM     11  N   LIG    1       -0.717   1.542   1.234  0.00  0.00    -0.550 NA
ATOM     12  C   LIG    1       -0.841   3.007   1.228  0.00  0.00    +0.180 C 
ATOM     13  C   LIG    1       -0.036   1.067   0.022  0.00  0.00    +0.190 C 
ATOM     14  C   LIG    1       -1.624   3.454   2.465  0.00  0.00    +0.190 C 
ENDBRANCH   7   8
BRANCH   1  16
ATOM     15  C   LIG    1        0.767   5.987   5.755  0.00  0.00    +0.560 C 
ATOM     16  N   LIG    1        0.380   4.739   5.427  0.00  0.00    -0.660 N 
ATOM     17  H   LIG    1        1.006   4.133   4.999  0.00  0.00    +0.420 HD
ATOM     18  O   LIG    1        0.010   6.719   6.363  0.00  0.00    -0.520 OA
BRANCH  15  22
ATOM     19  C   LIG    1        4.633   7.366   4.666  0.00  0.00    +0.160 A 
ATOM     20  C   LIG    1        3.769   8.204   5.361  0.00  0.00    -0.020 A 
ATOM     21  C   LIG    1        2.515   7.760   5.716  0.00  0.00    +0.140 A 
ATOM     22  C   LIG    1        2.111   6.466   5.376  0.00  0.00    -0.180 A 
ATOM     23  C   LIG    1        2.985   5.625   4.682  0.00  0.00    +0.090 A 
ATOM     24  C   LIG    1        4.236   6.078   4.327  0.00  0.00    -0.080 A 
BRANCH  19  25
ATOM     25  O   LIG    1        5.869   7.806   4.318  0.00  0.00    -0.310 OA
BRANCH  25  27
ATOM     26  C   LIG    1        8.048   7.563   3.302  0.00  0.00    +0.070 C 
ATOM     27  C   LIG    1        6.706   6.894   3.605  0.00  0.00    +0.190 C 
ENDBRANCH  25  27
ENDBRANCH  19  25
ENDBRANCH  15  22
ENDBRANCH   1  16
TORSDOF 5
