REMARK  Name = ZINCtV00000L6kIg.0
REMARK                            x       y       z     vdW  Elec       q    Type
REMARK                         _______ _______ _______ _____ _____    ______ ____
ROOT
ATOM      1  P   LIG    1        2.495   2.703  -1.128  0.00  0.00    +2.680 P 
ATOM      2  N   LIG    1        2.115   3.727  -2.233  0.00  0.00    -1.180 NA
ENDROOT
BRANCH   1   3
ATOM      3  N   LIG    1        1.382   2.797   0.131  0.00  0.00    -0.910 NA
ATOM      4  C   LIG    1        0.049   2.323  -0.302  0.00  0.00    +0.250 C 
ATOM      5  C   LIG    1       -0.101   0.829  -0.200  0.00  0.00    -0.010 C 
ATOM      6  C   LIG    1       -0.735   0.494   1.167  0.00  0.00    +0.020 C 
ATOM      7  C   LIG    1        0.237   0.552   2.254  0.00  0.00    +0.000 C 
ATOM      8  C   LIG    1        0.852   1.958   2.411  0.00  0.00    +0.050 C 
ATOM      9  C   LIG    1        1.904   2.140   1.351  0.00  0.00    +0.180 C 
ENDBRANCH   1   3
BRANCH   1  10
ATOM     10  C   LIG    1        2.480   1.028  -1.824  0.00  0.00    -0.700 A 
ATOM     11  C   LIG    1        3.648   0.285  -1.911  0.00  0.00    +0.020 A 
ATOM     12  C   LIG    1        3.597  -0.989  -2.443  0.00  0.00    +0.250 A 
ATOM     13  N   LIG    1        2.458  -1.495  -2.874  0.00  0.00    -0.450 NA
ATOM     14  C   LIG    1        1.329  -0.816  -2.811  0.00  0.00    +0.260 A 
ATOM     15  C   LIG    1        1.302   0.462  -2.287  0.00  0.00    +0.050 A 
ENDBRANCH   1  10
BRANCH   2  16
ATOM     16  C   LIG    1        2.818   3.783  -3.354  0.00  0.00    +0.280 A 
ATOM     17  C   LIG    1        3.627   2.687  -3.748  0.00  0.00    -0.170 A 
ATOM     18  C   LIG    1        4.340   2.757  -4.908  0.00  0.00    +0.070 A 
ATOM     19  C   LIG    1        4.287   3.900  -5.697  0.00  0.00    -0.050 A 
ATOM     20  C   LIG    1        3.503   4.984  -5.322  0.00  0.00    -0.130 A 
ATOM     21  C   LIG    1        2.774   4.942  -4.171  0.00  0.00    -0.010 A 
BRANCH  20  22
ATOM     22  C   LIG    1        3.459   6.213  -6.192  0.00  0.00    +0.500 C 
ATOM     23  F   LIG    1        2.212   6.834  -6.061  0.00  0.00    -0.180 F 
ATOM     24  F   LIG    1        3.659   5.847  -7.527  0.00  0.00    -0.180 F 
ATOM     25  F   LIG    1        4.465   7.101  -5.797  0.00  0.00    -0.180 F 
ENDBRANCH  20  22
ENDBRANCH   2  16
BRANCH   1  27
ATOM     26  C   LIG    1        4.618   1.966   0.445  0.00  0.00    +0.040 C 
ATOM     27  C   LIG    1        4.162   3.083  -0.495  0.00  0.00    -0.690 C 
ATOM     28  C   LIG    1        4.128   4.409   0.268  0.00  0.00    +0.080 C 
ATOM     29  C   LIG    1        5.139   3.195  -1.667  0.00  0.00    +0.070 C 
ENDBRANCH   1  27
TORSDOF 5
