REMARK  Name = ZINCpe00000Mz8Jr.0
REMARK                            x       y       z     vdW  Elec       q    Type
REMARK                         _______ _______ _______ _____ _____    ______ ____
ROOT
ATOM      1  C   LIG    1        3.759  -1.023   0.167  0.00  0.00    +0.230 C 
ATOM      2  C   LIG    1        2.610  -0.360   0.945  0.00  0.00    +0.340 C 
ATOM      3  N   LIG    1        1.391  -1.147   0.765  0.00  0.00    -0.470 N 
ATOM      4  C   LIG    1        0.265  -1.136   1.506  0.00  0.00    +0.190 A 
ATOM      5  N   LIG    1       -0.561  -1.993   0.964  0.00  0.00    -0.290 NA
ATOM      6  N   LIG    1       -0.011  -2.536  -0.068  0.00  0.00    -0.270 NA
ATOM      7  C   LIG    1        0.007  -0.294   2.729  0.00  0.00    +0.200 C 
ATOM      8  C   LIG    1        1.183  -2.053  -0.225  0.00  0.00    +0.150 A 
ATOM      9  C   LIG    1        2.205  -2.388  -1.284  0.00  0.00    +0.440 C 
ATOM     10  N   LIG    1        3.281  -1.385  -1.176  0.00  0.00    -0.610 N 
ATOM     11  C   LIG    1        3.815  -0.821  -2.278  0.00  0.00    +0.570 C 
ATOM     12  O   LIG    1        4.782  -0.090  -2.178  0.00  0.00    -0.490 OA
ENDROOT
BRANCH  11  13
ATOM     13  C   LIG    1        3.228  -1.091  -3.604  0.00  0.00    -0.110 A 
ATOM     14  C   LIG    1        3.937  -1.861  -4.537  0.00  0.00    +0.030 A 
ATOM     15  C   LIG    1        3.407  -2.112  -5.767  0.00  0.00    +0.060 A 
ATOM     16  C   LIG    1        2.145  -1.610  -6.100  0.00  0.00    -0.090 A 
ATOM     17  C   LIG    1        1.305  -1.692  -7.295  0.00  0.00    -0.060 A 
ATOM     18  C   LIG    1        0.182  -0.999  -7.035  0.00  0.00    +0.250 A 
ATOM     19  N   LIG    1        0.235  -0.481  -5.772  0.00  0.00    -0.590 N 
ATOM     20  H   LIG    1       -0.460   0.056  -5.361  0.00  0.00    +0.420 HD
ATOM     21  C   LIG    1        1.423  -0.835  -5.170  0.00  0.00    +0.090 A 
ATOM     22  C   LIG    1        1.972  -0.580  -3.923  0.00  0.00    +0.030 A 
ENDBRANCH  11  13
BRANCH   1  26
ATOM     23  C   LIG    1        7.230   0.442  -0.513  0.00  0.00    +0.290 C 
ATOM     24  N   LIG    1        6.108  -0.494  -0.397  0.00  0.00    -0.710 N 
ATOM     25  H   LIG    1        6.227  -1.425  -0.641  0.00  0.00    +0.400 HD
ATOM     26  C   LIG    1        4.912  -0.061   0.048  0.00  0.00    +0.550 C 
ATOM     27  O   LIG    1        4.764   1.104   0.353  0.00  0.00    -0.530 OA
ENDBRANCH   1  26
TORSDOF 2
