REMARK  Name = ZINCrH000004nQBu.0
REMARK                            x       y       z     vdW  Elec       q    Type
REMARK                         _______ _______ _______ _____ _____    ______ ____
ROOT
ATOM      1  C   LIG    1       -1.413  -2.063   0.004  0.00  0.00    +0.350 C 
ENDROOT
BRANCH   1   2
ATOM      2  C   LIG    1       -2.822  -2.584  -0.109  0.00  0.00    +0.270 A 
ATOM      3  N   LIG    1       -3.797  -2.278   0.697  0.00  0.00    -0.470 NA
ATOM      4  C   LIG    1       -4.929  -2.917   0.307  0.00  0.00    +0.040 A 
ATOM      5  C   LIG    1       -6.237  -2.946   0.798  0.00  0.00    +0.070 A 
ATOM      6  C   LIG    1       -7.181  -3.712   0.174  0.00  0.00    +0.000 A 
ATOM      7  C   LIG    1       -6.856  -4.465  -0.945  0.00  0.00    +0.040 A 
ATOM      8  C   LIG    1       -5.572  -4.452  -1.446  0.00  0.00    +0.020 A 
ATOM      9  C   LIG    1       -4.599  -3.680  -0.827  0.00  0.00    +0.050 A 
ATOM     10  N   LIG    1       -3.259  -3.448  -1.065  0.00  0.00    -0.590 N 
ATOM     11  H   LIG    1       -2.728  -3.830  -1.781  0.00  0.00    +0.420 HD
ENDBRANCH   1   2
BRANCH   1  12
ATOM     12  N   LIG    1       -0.810  -2.550   1.248  0.00  0.00    -0.700 N 
ATOM     13  H   LIG    1       -1.375  -2.793   1.998  0.00  0.00    +0.420 HD
ATOM     14  C   LIG    1        0.529  -2.662   1.350  0.00  0.00    +0.580 C 
ATOM     15  O   LIG    1        1.237  -2.358   0.410  0.00  0.00    -0.520 OA
BRANCH  14  16
ATOM     16  C   LIG    1        1.138  -3.155   2.608  0.00  0.00    +0.050 A 
ATOM     17  N   LIG    1        0.363  -3.483   3.627  0.00  0.00    -0.390 NA
ATOM     18  C   LIG    1        0.913  -3.927   4.758  0.00  0.00    +0.080 A 
ATOM     19  C   LIG    1        0.114  -4.286   5.861  0.00  0.00    +0.080 A 
ATOM     20  C   LIG    1        0.703  -4.736   7.001  0.00  0.00    +0.040 A 
ATOM     21  C   LIG    1        2.090  -4.847   7.097  0.00  0.00    +0.060 A 
ATOM     22  C   LIG    1        2.895  -4.510   6.053  0.00  0.00    +0.060 A 
ATOM     23  C   LIG    1        2.325  -4.042   4.857  0.00  0.00    +0.100 A 
ATOM     24  N   LIG    1        3.093  -3.703   3.814  0.00  0.00    -0.420 NA
ATOM     25  C   LIG    1        2.536  -3.274   2.706  0.00  0.00    +0.320 A 
ENDBRANCH  14  16
ENDBRANCH   1  12
BRANCH   1  26
ATOM     26  C   LIG    1       -1.433  -0.534   0.013  0.00  0.00    +0.070 C 
BRANCH  26  27
ATOM     27  C   LIG    1        0.002  -0.004   0.002  0.00  0.00    +0.090 C 
BRANCH  27  29
ATOM     28  C   LIG    1        1.739   2.242  -0.003  0.00  0.00    +0.140 C 
ATOM     29  S   LIG    1       -0.022   1.810   0.012  0.00  0.00    -0.270 S 
ENDBRANCH  27  29
ENDBRANCH  26  27
ENDBRANCH   1  26
TORSDOF 6
