REMARK  Name = ZINCnE000001D7GO.0
REMARK                            x       y       z     vdW  Elec       q    Type
REMARK                         _______ _______ _______ _____ _____    ______ ____
ROOT
ATOM      1  C   LIG    1       -1.259   3.416   0.128  0.00  0.00    +0.510 C 
ATOM      2  N   LIG    1       -1.239   2.073   0.019  0.00  0.00    -0.670 N 
ATOM      3  H   LIG    1       -2.071   1.580  -0.060  0.00  0.00    +0.410 HD
ATOM      4  O   LIG    1       -0.219   4.040   0.127  0.00  0.00    -0.490 OA
ENDROOT
BRANCH   2   5
ATOM      5  C   LIG    1       -0.017   1.388   0.021  0.00  0.00    +0.100 A 
ATOM      6  C   LIG    1        1.092   1.953   0.625  0.00  0.00    +0.090 A 
ATOM      7  C   LIG    1        2.310   1.269   0.619  0.00  0.00    -0.120 A 
ATOM      8  C   LIG    1        2.401   0.018   0.003  0.00  0.00    +0.060 A 
ATOM      9  C   LIG    1        1.290  -0.538  -0.597  0.00  0.00    -0.020 A 
ATOM     10  C   LIG    1        0.083   0.140  -0.591  0.00  0.00    +0.050 A 
ATOM     11  F   LIG    1       -1.001  -0.410  -1.180  0.00  0.00    -0.150 F 
BRANCH   7  12
ATOM     12  C   LIG    1        3.496   1.865   1.260  0.00  0.00    +0.520 C 
ATOM     13  O   LIG    1        3.415   2.960   1.799  0.00  0.00    -0.680 OA
ATOM     14  O   LIG    1        4.562   1.264   1.254  0.00  0.00    -0.690 OA
ENDBRANCH   7  12
ENDBRANCH   2   5
BRANCH   1  15
ATOM     15  C   LIG    1       -2.574   4.142   0.252  0.00  0.00    +0.160 C 
BRANCH  15  18
ATOM     16  C   LIG    1       -2.021   7.523   1.479  0.00  0.00    +0.070 A 
ATOM     17  N   LIG    1       -2.247   6.253   1.514  0.00  0.00    -0.460 NA
ATOM     18  C   LIG    1       -2.321   5.624   0.359  0.00  0.00    +0.090 A 
ATOM     19  C   LIG    1       -2.159   6.409  -0.711  0.00  0.00    -0.080 A 
ATOM     20  S   LIG    1       -1.889   8.054  -0.141  0.00  0.00    +0.120 S 
BRANCH  16  22
ATOM     21  C   LIG    1       -0.735   7.929   3.560  0.00  0.00    +0.050 C 
ATOM     22  C   LIG    1       -1.898   8.411   2.691  0.00  0.00    +0.010 C 
ATOM     23  C   LIG    1       -3.196   8.355   3.498  0.00  0.00    +0.050 C 
ATOM     24  C   LIG    1       -1.637   9.851   2.243  0.00  0.00    +0.040 C 
ENDBRANCH  16  22
ENDBRANCH  15  18
ENDBRANCH   1  15
TORSDOF 5
