REMARK  Name = ZINCqH0000038job.0
REMARK                            x       y       z     vdW  Elec       q    Type
REMARK                         _______ _______ _______ _____ _____    ______ ____
ROOT
ATOM      1  C   LIG    1        2.173   0.029  -0.604  0.00  0.00    +0.550 C 
ATOM      2  N   LIG    1        1.178  -0.662  -0.013  0.00  0.00    -0.660 N 
ATOM      3  H   LIG    1        0.488  -0.192   0.480  0.00  0.00    +0.410 HD
ATOM      4  O   LIG    1        3.083  -0.564  -1.150  0.00  0.00    -0.490 OA
ENDROOT
BRANCH   1  10
ATOM      5  C   LIG    1        4.275   4.382  -1.841  0.00  0.00    +0.110 C 
ATOM      6  C   LIG    1        3.165   3.605  -1.181  0.00  0.00    -0.040 A 
ATOM      7  C   LIG    1        2.127   4.276  -0.559  0.00  0.00    +0.070 A 
ATOM      8  C   LIG    1        1.104   3.570   0.049  0.00  0.00    +0.070 A 
ATOM      9  C   LIG    1        1.113   2.190   0.037  0.00  0.00    +0.070 A 
ATOM     10  C   LIG    1        2.157   1.507  -0.589  0.00  0.00    -0.090 A 
ATOM     11  C   LIG    1        3.189   2.225  -1.195  0.00  0.00    +0.030 A 
BRANCH  11  12
ATOM     12  N   LIG    1        4.303   1.509  -1.856  0.00  0.00    +0.030 N 
ATOM     13  O   LIG    1        5.298   1.211  -1.219  0.00  0.00    -0.130 OA
ATOM     14  O   LIG    1        4.225   1.218  -3.036  0.00  0.00    -0.130 OA
ENDBRANCH  11  12
ENDBRANCH   1  10
BRANCH   2  15
ATOM     15  C   LIG    1        1.141  -2.057  -0.110  0.00  0.00    +0.180 A 
ATOM     16  C   LIG    1       -0.078  -2.716  -0.192  0.00  0.00    -0.050 A 
ATOM     17  C   LIG    1       -0.114  -4.093  -0.293  0.00  0.00    +0.070 A 
ATOM     18  C   LIG    1        1.062  -4.819  -0.302  0.00  0.00    -0.090 A 
ATOM     19  C   LIG    1        2.283  -4.166  -0.216  0.00  0.00    +0.150 A 
ATOM     20  C   LIG    1        2.324  -2.784  -0.119  0.00  0.00    +0.000 A 
BRANCH  19  21
ATOM     21  O   LIG    1        3.439  -4.881  -0.225  0.00  0.00    -0.300 OA
BRANCH  21  22
ATOM     22  C   LIG    1        3.322  -6.301  -0.326  0.00  0.00    +0.220 C 
BRANCH  22  23
ATOM     23  C   LIG    1        4.717  -6.930  -0.321  0.00  0.00    +0.160 C 
ATOM     24  C   LIG    1        4.622  -8.454  -0.555  0.00  0.00    +0.010 C 
ATOM     25  C   LIG    1        5.723  -9.043   0.353  0.00  0.00    +0.000 C 
ATOM     26  C   LIG    1        6.354  -7.806   1.029  0.00  0.00    +0.190 C 
ATOM     27  O   LIG    1        5.324  -6.794   0.983  0.00  0.00    -0.360 OA
ENDBRANCH  22  23
ENDBRANCH  21  22
ENDBRANCH  19  21
ENDBRANCH   2  15
TORSDOF 6
