REMARK  Name = ZINCrD000000AkYF.0
REMARK                            x       y       z     vdW  Elec       q    Type
REMARK                         _______ _______ _______ _____ _____    ______ ____
ROOT
ATOM      1  N   LIG    1        0.004  -0.007   0.002  0.00  0.00    -0.570 N 
ATOM      2  C   LIG    1       -0.018   1.333   0.018  0.00  0.00    +0.710 C 
ATOM      3  N   LIG    1        1.220   1.867   0.007  0.00  0.00    -0.710 N 
ATOM      4  H   LIG    1        1.448   2.809   0.014  0.00  0.00    +0.440 HD
ATOM      5  C   LIG    1        2.151   0.738  -0.019  0.00  0.00    +0.170 C 
ATOM      6  C   LIG    1        3.045   0.777  -1.264  0.00  0.00    +0.080 C 
ATOM      7  C   LIG    1        4.360   0.157  -0.741  0.00  0.00    +0.090 C 
ATOM      8  C   LIG    1        4.357   0.418   0.751  0.00  0.00    -0.070 A 
ATOM      9  C   LIG    1        5.389   0.367   1.672  0.00  0.00    +0.020 A 
ATOM     10  C   LIG    1        5.149   0.643   3.004  0.00  0.00    +0.030 A 
ATOM     11  C   LIG    1        3.872   0.972   3.419  0.00  0.00    +0.010 A 
ATOM     12  C   LIG    1        2.841   1.026   2.502  0.00  0.00    +0.040 A 
ATOM     13  C   LIG    1        3.078   0.750   1.166  0.00  0.00    -0.120 A 
ATOM     14  O   LIG    1       -1.039   1.992   0.034  0.00  0.00    -0.530 OA
ATOM     15  C   LIG    1        1.268  -0.483  -0.020  0.00  0.00    +0.550 C 
ATOM     16  O   LIG    1        1.616  -1.644  -0.038  0.00  0.00    -0.450 OA
ENDROOT
BRANCH   1  17
ATOM     17  C   LIG    1       -1.194  -0.850   0.010  0.00  0.00    +0.370 C 
BRANCH  17  19
ATOM     18  O   LIG    1       -0.993  -0.660  -2.334  0.00  0.00    -0.500 OA
ATOM     19  C   LIG    1       -1.625  -1.124  -1.408  0.00  0.00    +0.500 C 
ATOM     20  N   LIG    1       -2.712  -1.884  -1.648  0.00  0.00    -0.670 N 
ATOM     21  H   LIG    1       -3.178  -2.310  -0.911  0.00  0.00    +0.420 HD
BRANCH  20  22
ATOM     22  C   LIG    1       -3.168  -2.059  -2.959  0.00  0.00    +0.170 A 
ATOM     23  C   LIG    1       -4.529  -2.164  -3.214  0.00  0.00    +0.020 A 
ATOM     24  C   LIG    1       -4.977  -2.331  -4.511  0.00  0.00    -0.010 A 
ATOM     25  C   LIG    1       -4.070  -2.405  -5.553  0.00  0.00    +0.030 A 
ATOM     26  C   LIG    1       -2.713  -2.305  -5.302  0.00  0.00    -0.010 A 
ATOM     27 CL   LIG    1       -1.579  -2.398  -6.613  0.00  0.00    -0.050 Cl
ATOM     28 CL   LIG    1       -6.679  -2.457  -4.830  0.00  0.00    -0.050 Cl
ATOM     29  C   LIG    1       -2.260  -2.133  -4.007  0.00  0.00    +0.050 A 
ENDBRANCH  20  22
ENDBRANCH  17  19
ENDBRANCH   1  17
TORSDOF 3
