REMARK  Name = ZINCvU0000000GE7.0
REMARK                            x       y       z     vdW  Elec       q    Type
REMARK                         _______ _______ _______ _____ _____    ______ ____
ROOT
ATOM      1  C   LIG    1       -4.170   6.076   0.070  0.00  0.00    +0.320 A 
ATOM      2  N   LIG    1       -3.307   7.060   0.068  0.00  0.00    -0.440 NA
ATOM      3  C   LIG    1       -3.707   8.354   0.078  0.00  0.00    +0.150 A 
ATOM      4  C   LIG    1       -2.786   9.404   0.075  0.00  0.00    +0.040 A 
ATOM      5  C   LIG    1       -3.235  10.705   0.086  0.00  0.00    +0.060 A 
ATOM      6  C   LIG    1       -4.595  10.988   0.101  0.00  0.00    -0.010 A 
ATOM      7  C   LIG    1       -5.523   9.970   0.103  0.00  0.00    +0.100 A 
ATOM      8  C   LIG    1       -5.090   8.646   0.092  0.00  0.00    -0.190 A 
ATOM      9  C   LIG    1       -6.036   7.521   0.094  0.00  0.00    +0.560 A 
ATOM     10  O   LIG    1       -7.239   7.709   0.105  0.00  0.00    -0.510 OA
ATOM     11  N   LIG    1       -5.521   6.270   0.078  0.00  0.00    -0.530 N 
ENDROOT
BRANCH   1  12
ATOM     12  S   LIG    1       -3.559   4.423   0.056  0.00  0.00    +0.180 S 
BRANCH  12  17
ATOM     13  C   LIG    1        0.002  -0.004   0.002  0.00  0.00    +0.160 C 
ATOM     14  C   LIG    1       -0.018   1.503   0.010  0.00  0.00    -0.160 A 
ATOM     15  C   LIG    1       -1.118   2.231   0.019  0.00  0.00    -0.090 A 
ATOM     16  C   LIG    1       -0.898   3.665   0.029  0.00  0.00    -0.150 A 
ATOM     17  C   LIG    1       -1.825   4.738   0.043  0.00  0.00    +0.170 A 
ATOM     18  N   LIG    1       -1.367   5.981   0.044  0.00  0.00    -0.440 NA
ATOM     19  C   LIG    1       -0.071   6.232   0.034  0.00  0.00    +0.520 A 
ATOM     20  N   LIG    1        0.827   5.274   0.020  0.00  0.00    -0.480 NA
ATOM     21  C   LIG    1        0.462   3.986   0.018  0.00  0.00    +0.090 A 
ATOM     22  C   LIG    1       -2.496   1.621   0.022  0.00  0.00    +0.140 C 
ATOM     23  S   LIG    1        1.417   2.511   0.002  0.00  0.00    +0.180 S 
ENDBRANCH  12  17
ENDBRANCH   1  12
BRANCH  11  24
ATOM     24  C   LIG    1       -6.421   5.114   0.074  0.00  0.00    +0.350 C 
BRANCH  24  25
ATOM     25  C   LIG    1       -6.724   4.707   1.493  0.00  0.00    -0.130 A 
ATOM     26  C   LIG    1       -5.920   3.781   2.132  0.00  0.00    +0.070 A 
ATOM     27  C   LIG    1       -6.193   3.412   3.436  0.00  0.00    -0.010 A 
ATOM     28  C   LIG    1       -7.278   3.961   4.098  0.00  0.00    +0.110 A 
ATOM     29  C   LIG    1       -8.085   4.885   3.454  0.00  0.00    -0.020 A 
ATOM     30  F   LIG    1       -7.550   3.596   5.370  0.00  0.00    -0.140 F 
ATOM     31  C   LIG    1       -7.807   5.257   2.153  0.00  0.00    +0.080 A 
ENDBRANCH  24  25
ENDBRANCH  11  24
TORSDOF 4
