REMARK  Name = ZINCnE000001McDl.1
REMARK                            x       y       z     vdW  Elec       q    Type
REMARK                         _______ _______ _______ _____ _____    ______ ____
ROOT
ATOM      1  C   LIG    1       -0.015   1.292   0.009  0.00  0.00    +0.380 A 
ATOM      2  N   LIG    1        0.002  -0.004   0.002  0.00  0.00    -0.550 NA
ATOM      3  C   LIG    1        1.191  -0.590  -0.013  0.00  0.00    +0.120 A 
ATOM      4  C   LIG    1        2.245   0.245  -0.018  0.00  0.00    -0.180 A 
ATOM      5  S   LIG    1        1.638   1.899  -0.003  0.00  0.00    +0.000 S 
ENDROOT
BRANCH   3   6
ATOM      6  C   LIG    1        1.348  -2.065  -0.022  0.00  0.00    +0.030 A 
ATOM      7  C   LIG    1        2.621  -2.632  -0.044  0.00  0.00    +0.050 A 
ATOM      8  C   LIG    1        2.764  -4.005  -0.047  0.00  0.00    +0.010 A 
ATOM      9  C   LIG    1        1.645  -4.820  -0.040  0.00  0.00    +0.050 A 
ATOM     10  C   LIG    1        0.374  -4.261  -0.025  0.00  0.00    +0.070 A 
ATOM     11  F   LIG    1       -0.715  -5.060  -0.019  0.00  0.00    -0.130 F 
ATOM     12  F   LIG    1        1.789  -6.163  -0.048  0.00  0.00    -0.140 F 
ATOM     13  C   LIG    1        0.223  -2.888  -0.016  0.00  0.00    +0.060 A 
ENDBRANCH   3   6
BRANCH   1  15
ATOM     14  C   LIG    1       -1.054   3.424   0.026  0.00  0.00    +0.450 C 
ATOM     15  N   LIG    1       -1.160   2.080   0.019  0.00  0.00    -0.640 NA
ATOM     16  O   LIG    1        0.041   3.945   0.023  0.00  0.00    -0.590 OA
BRANCH  14  18
ATOM     17  C   LIG    1       -3.130   3.979  -1.210  0.00  0.00    +0.070 C 
ATOM     18  C   LIG    1       -2.295   4.278   0.036  0.00  0.00    +0.280 C 
BRANCH  18  19
ATOM     19  N   LIG    1       -1.915   5.692   0.042  0.00  0.00    -0.350 N 
ATOM     20  C   LIG    1       -0.848   6.230  -0.586  0.00  0.00    +0.290 A 
ATOM     21  C   LIG    1       -0.849   7.560  -0.335  0.00  0.00    -0.170 A 
ATOM     22  C   LIG    1       -1.954   7.845   0.473  0.00  0.00    +0.220 A 
ATOM     23  N   LIG    1       -2.597   6.727   0.696  0.00  0.00    -0.310 NA
ENDBRANCH  18  19
ENDBRANCH  14  18
ENDBRANCH   1  15
TORSDOF 4
