REMARK  Name = ZINCpk00000y6yjR.0
REMARK                            x       y       z     vdW  Elec       q    Type
REMARK                         _______ _______ _______ _____ _____    ______ ____
ROOT
ATOM      1  C   LIG    1        1.636   4.660  -2.663  0.00  0.00    +0.600 C 
ATOM      2  N   LIG    1        1.742   3.463  -2.054  0.00  0.00    -0.720 N 
ATOM      3  H   LIG    1        2.432   2.838  -2.329  0.00  0.00    +0.400 HD
ATOM      4  O   LIG    1        0.771   5.443  -2.319  0.00  0.00    -0.530 OA
ENDROOT
BRANCH   1  10
ATOM      5  C   LIG    1        1.634   7.391  -4.280  0.00  0.00    +0.180 C 
ATOM      6  C   LIG    1        2.578   6.233  -4.475  0.00  0.00    +0.140 A 
ATOM      7  N   LIG    1        3.549   6.173  -5.346  0.00  0.00    -0.290 NA
ATOM      8  N   LIG    1        4.196   4.939  -5.219  0.00  0.00    -0.300 N 
ATOM      9  C   LIG    1        3.595   4.241  -4.238  0.00  0.00    +0.280 A 
ATOM     10  C   LIG    1        2.567   5.021  -3.748  0.00  0.00    -0.280 A 
BRANCH   8  11
ATOM     11  C   LIG    1        5.289   4.505  -5.982  0.00  0.00    +0.150 A 
ATOM     12  C   LIG    1        5.845   3.254  -5.752  0.00  0.00    -0.010 A 
ATOM     13  C   LIG    1        6.919   2.828  -6.508  0.00  0.00    +0.050 A 
ATOM     14  C   LIG    1        7.447   3.649  -7.487  0.00  0.00    +0.010 A 
ATOM     15  C   LIG    1        6.899   4.898  -7.715  0.00  0.00    +0.040 A 
ATOM     16  C   LIG    1        5.821   5.328  -6.965  0.00  0.00    +0.030 A 
ENDBRANCH   8  11
ENDBRANCH   1  10
BRANCH   2  17
ATOM     17  C   LIG    1        0.817   3.104  -0.977  0.00  0.00    +0.260 C 
ATOM     18  C   LIG    1       -0.223   2.046  -1.382  0.00  0.00    +0.010 C 
ATOM     19  C   LIG    1       -0.017   1.425   0.010  0.00  0.00    +0.180 C 
ATOM     20  C   LIG    1        1.383   2.060  -0.000  0.00  0.00    +0.270 C 
BRANCH  20  21
ATOM     21  N   LIG    1        1.782   2.621   1.293  0.00  0.00    -0.360 N 
ATOM     22  C   LIG    1        0.962   2.884   2.332  0.00  0.00    +0.220 A 
ATOM     23  C   LIG    1        1.715   3.392   3.334  0.00  0.00    -0.120 A 
ATOM     24  C   LIG    1        3.041   3.442   2.893  0.00  0.00    +0.230 A 
ATOM     25  N   LIG    1        3.084   2.975   1.672  0.00  0.00    -0.290 NA
ENDBRANCH  20  21
BRANCH  19  26
ATOM     26  O   LIG    1        0.002  -0.004   0.002  0.00  0.00    -0.550 OA
ATOM     27  H   LIG    1       -0.876  -0.409   0.008  0.00  0.00    +0.390 HD
ENDBRANCH  19  26
ENDBRANCH   2  17
TORSDOF 5
