REMARK  Name = ZINCqH0000001Pl0.0
REMARK                            x       y       z     vdW  Elec       q    Type
REMARK                         _______ _______ _______ _____ _____    ______ ____
ROOT
ATOM      1  C   LIG    1        1.178   1.751  -0.128  0.00  0.00    +0.200 A 
ATOM      2  N   LIG    1       -0.037   1.283  -0.072  0.00  0.00    -0.280 NA
ATOM      3  N   LIG    1       -0.015  -0.002  -0.069  0.00  0.00    -0.290 NA
ATOM      4  C   LIG    1        1.226  -0.427  -0.122  0.00  0.00    +0.140 A 
ATOM      5  N   LIG    1        2.026   0.678  -0.161  0.00  0.00    -0.460 N 
ENDROOT
BRANCH   1   7
ATOM      6  C   LIG    1        0.960   3.882  -1.377  0.00  0.00    +0.060 C 
ATOM      7  C   LIG    1        1.575   3.204  -0.151  0.00  0.00    +0.070 C 
ATOM      8  C   LIG    1        1.070   3.891   1.119  0.00  0.00    +0.060 C 
ENDBRANCH   1   7
BRANCH   4   9
ATOM      9  S   LIG    1        1.757  -2.107  -0.140  0.00  0.00    +0.090 S 
BRANCH   9  10
ATOM     10  C   LIG    1        0.155  -2.945  -0.066  0.00  0.00    +0.110 C 
BRANCH  10  11
ATOM     11  C   LIG    1        0.367  -4.437  -0.070  0.00  0.00    +0.540 C 
ATOM     12  N   LIG    1       -0.692  -5.269  -0.020  0.00  0.00    -0.570 N 
ATOM     13  C   LIG    1       -2.042  -4.726   0.155  0.00  0.00    +0.300 C 
ATOM     14  O   LIG    1        1.492  -4.889  -0.118  0.00  0.00    -0.510 OA
BRANCH  12  15
ATOM     15  C   LIG    1       -0.503  -6.650  -0.135  0.00  0.00    +0.130 A 
ATOM     16  C   LIG    1       -0.985  -7.328  -1.247  0.00  0.00    +0.010 A 
ATOM     17  C   LIG    1       -0.792  -8.691  -1.361  0.00  0.00    +0.020 A 
ATOM     18  C   LIG    1       -0.129  -9.382  -0.363  0.00  0.00    +0.010 A 
ATOM     19  C   LIG    1        0.348  -8.711   0.748  0.00  0.00    +0.020 A 
ATOM     20  C   LIG    1        0.163  -7.347   0.865  0.00  0.00    +0.020 A 
ENDBRANCH  12  15
ENDBRANCH  10  11
ENDBRANCH   9  10
ENDBRANCH   4   9
BRANCH   5  21
ATOM     21  C   LIG    1        3.489   0.709  -0.227  0.00  0.00    +0.440 C 
BRANCH  21  22
ATOM     22  C   LIG    1        3.928   0.714  -1.668  0.00  0.00    -0.060 A 
ATOM     23  C   LIG    1        4.133   1.808  -2.424  0.00  0.00    -0.020 A 
ATOM     24  C   LIG    1        4.532   1.353  -3.702  0.00  0.00    -0.070 A 
ATOM     25  C   LIG    1        4.546   0.009  -3.651  0.00  0.00    +0.190 A 
ATOM     26  O   LIG    1        4.185  -0.372  -2.415  0.00  0.00    -0.160 OA
ENDBRANCH  21  22
ENDBRANCH   5  21
TORSDOF 7
