REMARK  Name = ZINCtV00001bB3iW.0
REMARK                            x       y       z     vdW  Elec       q    Type
REMARK                         _______ _______ _______ _____ _____    ______ ____
ROOT
ATOM      1  C   LIG    1       -0.227   1.397  -0.392  0.00  0.00    +0.550 C 
ATOM      2  N   LIG    1       -0.073   0.095  -0.077  0.00  0.00    -0.600 N 
ATOM      3  O   LIG    1       -1.337   1.845  -0.601  0.00  0.00    -0.530 OA
ENDROOT
BRANCH   1   5
ATOM      4  C   LIG    1        0.800   3.558  -0.798  0.00  0.00    +0.160 C 
ATOM      5  C   LIG    1        0.951   2.273  -0.487  0.00  0.00    -0.100 C 
ENDBRANCH   1   5
BRANCH   2   6
ATOM      6  C   LIG    1       -1.251  -0.754   0.120  0.00  0.00    +0.280 C 
ATOM      7  C   LIG    1       -2.179  -0.629  -1.089  0.00  0.00    +0.060 C 
BRANCH   6   8
ATOM      8  C   LIG    1       -1.983  -0.316   1.363  0.00  0.00    -0.030 A 
ATOM      9  C   LIG    1       -1.839   0.977   1.830  0.00  0.00    +0.060 A 
ATOM     10  C   LIG    1       -2.515   1.380   2.966  0.00  0.00    +0.060 A 
ATOM     11  C   LIG    1       -3.327   0.487   3.642  0.00  0.00    -0.040 A 
ATOM     12  C   LIG    1       -3.466  -0.809   3.177  0.00  0.00    +0.080 A 
ATOM     13 CL   LIG    1       -4.171   0.992   5.072  0.00  0.00    -0.060 Cl
ATOM     14  C   LIG    1       -2.794  -1.210   2.038  0.00  0.00    -0.170 A 
BRANCH  14  15
ATOM     15  C   LIG    1       -2.945  -2.621   1.532  0.00  0.00    +0.510 C 
ATOM     16  F   LIG    1       -1.694  -3.247   1.514  0.00  0.00    -0.160 F 
ATOM     17  F   LIG    1       -3.473  -2.598   0.237  0.00  0.00    -0.170 F 
ATOM     18  F   LIG    1       -3.808  -3.329   2.375  0.00  0.00    -0.170 F 
ENDBRANCH  14  15
ENDBRANCH   6   8
ENDBRANCH   2   6
BRANCH   2  19
ATOM     19  C   LIG    1        1.270  -0.471   0.067  0.00  0.00    +0.340 C 
BRANCH  19  20
ATOM     20  C   LIG    1        1.723  -0.332   1.497  0.00  0.00    -0.100 A 
ATOM     21  C   LIG    1        1.275  -1.229   2.458  0.00  0.00    +0.070 A 
ATOM     22  O   LIG    1        0.453  -2.297   2.417  0.00  0.00    -0.180 OA
ATOM     23  C   LIG    1        0.326  -2.852   3.635  0.00  0.00    +0.050 A 
ATOM     24  C   LIG    1        1.068  -2.181   4.527  0.00  0.00    -0.060 A 
ATOM     25  C   LIG    1       -0.516  -4.061   3.949  0.00  0.00    +0.180 C 
ATOM     26  C   LIG    1        1.710  -1.089   3.787  0.00  0.00    -0.120 A 
ATOM     27  C   LIG    1        2.575  -0.052   4.134  0.00  0.00    +0.060 A 
ATOM     28  C   LIG    1        3.004   0.830   3.167  0.00  0.00    +0.000 A 
ATOM     29  C   LIG    1        2.579   0.689   1.854  0.00  0.00    +0.050 A 
ENDBRANCH  19  20
ENDBRANCH   2  19
TORSDOF 6
