REMARK  Name = ZINCpk000000oNPT.0
REMARK                            x       y       z     vdW  Elec       q    Type
REMARK                         _______ _______ _______ _____ _____    ______ ____
ROOT
ATOM      1  N   LIG    1        1.048  -2.147  -8.069  0.00  0.00    -0.750 N 
ATOM      2  H   LIG    1        1.740  -2.067  -7.395  0.00  0.00    +0.390 HD
ATOM      3  C   LIG    1       -0.235  -1.885  -7.752  0.00  0.00    +0.710 C 
ATOM      4  N   LIG    1       -0.544  -1.413  -6.527  0.00  0.00    -0.630 N 
ATOM      5  C   LIG    1       -1.922  -1.019  -6.204  0.00  0.00    +0.300 C 
ATOM      6  C   LIG    1       -1.911   0.429  -5.699  0.00  0.00    +0.290 C 
ATOM      7  N   LIG    1       -0.876   0.558  -4.664  0.00  0.00    -0.610 N 
ATOM      8  C   LIG    1        0.503   0.169  -4.989  0.00  0.00    +0.270 C 
ATOM      9  C   LIG    1       -1.185   1.030  -3.439  0.00  0.00    +0.520 C 
ATOM     10  O   LIG    1       -2.325   1.353  -3.184  0.00  0.00    -0.510 OA
ATOM     11  C   LIG    1        0.491  -1.285  -5.493  0.00  0.00    +0.270 C 
ATOM     12  O   LIG    1       -1.115  -2.075  -8.570  0.00  0.00    -0.580 OA
ENDROOT
BRANCH   1  14
ATOM     13  C   LIG    1        2.906  -2.788  -9.524  0.00  0.00    +0.030 C 
ATOM     14  C   LIG    1        1.397  -2.554  -9.432  0.00  0.00    +0.270 C 
ENDBRANCH   1  14
BRANCH   9  15
ATOM     15  C   LIG    1       -0.112   1.157  -2.388  0.00  0.00    +0.160 C 
ATOM     16  C   LIG    1        0.916   2.199  -2.832  0.00  0.00    +0.040 C 
BRANCH  15  17
ATOM     17  O   LIG    1       -0.702   1.565  -1.153  0.00  0.00    -0.350 OA
BRANCH  17  18
ATOM     18  C   LIG    1       -0.012   1.092   0.006  0.00  0.00    +0.230 C 
BRANCH  18  19
ATOM     19  C   LIG    1       -0.717   1.579   1.245  0.00  0.00    -0.050 A 
ATOM     20  C   LIG    1       -0.357   2.787   1.815  0.00  0.00    +0.000 A 
ATOM     21  C   LIG    1       -1.006   3.239   2.949  0.00  0.00    +0.050 A 
ATOM     22  C   LIG    1       -2.008   2.480   3.522  0.00  0.00    -0.070 A 
ATOM     23  C   LIG    1       -2.367   1.266   2.956  0.00  0.00    +0.120 A 
ATOM     24  C   LIG    1       -1.718   0.817   1.815  0.00  0.00    +0.000 A 
BRANCH  23  25
ATOM     25  O   LIG    1       -3.352   0.517   3.518  0.00  0.00    -0.320 OA
ATOM     26  C   LIG    1       -3.976   1.042   4.691  0.00  0.00    +0.250 C 
ENDBRANCH  23  25
ENDBRANCH  18  19
ENDBRANCH  17  18
ENDBRANCH  15  17
ENDBRANCH   9  15
TORSDOF 6
