REMARK  Name = ZINCpk00000KfLjj.0
REMARK                            x       y       z     vdW  Elec       q    Type
REMARK                         _______ _______ _______ _____ _____    ______ ____
ROOT
ATOM      1  C   LIG    1        0.367   6.052  -3.411  0.00  0.00    +0.110 C 
ATOM      2  C   LIG    1        0.696   5.232  -2.162  0.00  0.00    +0.190 C 
ATOM      3  O   LIG    1       -0.450   4.466  -1.781  0.00  0.00    -0.290 OA
ATOM      4  C   LIG    1       -0.249   3.477  -0.874  0.00  0.00    +0.130 A 
ATOM      5  C   LIG    1        0.963   2.789  -0.863  0.00  0.00    +0.090 A 
ATOM      6  N   LIG    1        1.954   3.135  -1.794  0.00  0.00    -0.660 N 
ATOM      7  H   LIG    1        2.704   2.541  -1.958  0.00  0.00    +0.420 HD
ATOM      8  C   LIG    1        1.180   1.779   0.058  0.00  0.00    +0.040 A 
ATOM      9  C   LIG    1        0.193   1.448   0.972  0.00  0.00    +0.030 A 
ATOM     10  C   LIG    1       -1.013   2.114   0.969  0.00  0.00    +0.060 A 
ATOM     11  C   LIG    1       -1.245   3.141   0.049  0.00  0.00    -0.120 A 
ATOM     12  C   LIG    1        1.848   4.306  -2.459  0.00  0.00    +0.490 C 
ATOM     13  O   LIG    1        2.676   4.611  -3.291  0.00  0.00    -0.500 OA
ENDROOT
BRANCH  11  14
ATOM     14  C   LIG    1       -2.533   3.861   0.047  0.00  0.00    +0.580 C 
ATOM     15  N   LIG    1       -3.688   3.175  -0.048  0.00  0.00    -0.610 N 
ATOM     16  C   LIG    1       -3.688   1.705  -0.058  0.00  0.00    +0.270 C 
ATOM     17  C   LIG    1       -4.455   1.220  -1.292  0.00  0.00    +0.030 C 
ATOM     18  C   LIG    1       -5.851   1.848  -1.299  0.00  0.00    +0.030 C 
ATOM     19  C   LIG    1       -5.726   3.371  -1.376  0.00  0.00    +0.260 C 
ATOM     20  C   LIG    1       -4.974   3.881  -0.137  0.00  0.00    +0.300 C 
ATOM     21  O   LIG    1       -2.551   5.074   0.131  0.00  0.00    -0.510 OA
BRANCH  19  22
ATOM     22  N   LIG    1       -7.063   3.970  -1.414  0.00  0.00    -0.370 N 
ATOM     23  C   LIG    1       -7.845   4.263  -0.361  0.00  0.00    +0.470 A 
ATOM     24  N   LIG    1       -8.956   4.786  -0.813  0.00  0.00    -0.540 NA
ATOM     25  C   LIG    1       -8.923   4.834  -2.144  0.00  0.00    +0.420 A 
ATOM     26  N   LIG    1       -7.784   4.346  -2.559  0.00  0.00    -0.320 NA
ENDBRANCH  19  22
ENDBRANCH  11  14
TORSDOF 2
