REMARK  Name = ZINCpe000000Uq37.0
REMARK                            x       y       z     vdW  Elec       q    Type
REMARK                         _______ _______ _______ _____ _____    ______ ____
ROOT
ATOM      1  S   LIG    1       -3.290   1.502  -0.435  0.00  0.00    +2.690 S 
ATOM      2  O   LIG    1       -2.470   2.642  -0.657  0.00  0.00    -0.940 OA
ATOM      3  O   LIG    1       -3.012   0.225  -0.991  0.00  0.00    -0.940 OA
ENDROOT
BRANCH   1   4
ATOM      4  C   LIG    1       -4.908   1.940  -0.977  0.00  0.00    -0.700 A 
ATOM      5  C   LIG    1       -5.312   3.262  -0.951  0.00  0.00    +0.190 A 
ATOM      6  C   LIG    1       -6.579   3.607  -1.381  0.00  0.00    +0.000 A 
ATOM      7  C   LIG    1       -7.445   2.628  -1.834  0.00  0.00    +0.190 A 
ATOM      8  C   LIG    1       -7.043   1.306  -1.855  0.00  0.00    -0.700 A 
ATOM      9  C   LIG    1       -5.776   0.961  -1.424  0.00  0.00    +0.240 A 
BRANCH   8  10
ATOM     10  S   LIG    1       -8.147   0.059  -2.432  0.00  0.00    +2.700 S 
ATOM     11  O   LIG    1       -9.459   0.579  -2.271  0.00  0.00    -0.960 OA
ATOM     12  O   LIG    1       -7.717  -1.161  -1.843  0.00  0.00    -0.950 OA
BRANCH  10  13
ATOM     13  N   LIG    1       -7.902  -0.096  -4.062  0.00  0.00    -1.250 NA
ATOM     14  H   LIG    1       -8.420  -0.740  -4.571  0.00  0.00    +0.420 HD
ATOM     15  H   LIG    1       -7.241   0.456  -4.508  0.00  0.00    +0.420 HD
ENDBRANCH  10  13
ENDBRANCH   8  10
ENDBRANCH   1   4
BRANCH   1  16
ATOM     16  N   LIG    1       -3.363   1.292   1.206  0.00  0.00    -1.050 N 
ATOM     17  H   LIG    1       -3.146   0.429   1.595  0.00  0.00    +0.430 HD
BRANCH  16  22
ATOM     18  C   LIG    1       -5.023   3.217   3.873  0.00  0.00    -0.110 A 
ATOM     19  C   LIG    1       -4.469   4.481   3.661  0.00  0.00    +0.040 A 
ATOM     20  C   LIG    1       -3.558   4.673   2.642  0.00  0.00    +0.040 A 
ATOM     21  C   LIG    1       -3.187   3.616   1.832  0.00  0.00    +0.030 A 
ATOM     22  C   LIG    1       -3.737   2.355   2.031  0.00  0.00    +0.140 A 
ATOM     23  C   LIG    1       -4.653   2.152   3.052  0.00  0.00    +0.060 A 
BRANCH  18  26
ATOM     24  C   LIG    1       -6.720   3.313   7.271  0.00  0.00    +0.290 C 
ATOM     25  N   LIG    1       -5.811   3.602   6.159  0.00  0.00    -0.620 N 
ATOM     26  C   LIG    1       -5.999   3.009   4.964  0.00  0.00    +0.560 C 
ATOM     27  O   LIG    1       -6.972   2.303   4.782  0.00  0.00    -0.530 OA
ATOM     28  C   LIG    1       -4.697   4.535   6.347  0.00  0.00    +0.290 C 
ENDBRANCH  18  26
ENDBRANCH  16  22
ENDBRANCH   1  16
TORSDOF 6
