REMARK  Name = ZINCpk000005nzyP.0
REMARK                            x       y       z     vdW  Elec       q    Type
REMARK                         _______ _______ _______ _____ _____    ______ ____
ROOT
ATOM      1  C   LIG    1       -7.513   0.432   3.481  0.00  0.00    +0.250 C 
ATOM      2  C   LIG    1       -7.409  -0.478   4.707  0.00  0.00    -0.010 C 
ATOM      3  C   LIG    1       -7.304  -1.936   4.255  0.00  0.00    +0.020 C 
ATOM      4  C   LIG    1       -8.566  -2.318   3.475  0.00  0.00    +0.270 C 
ATOM      5  N   LIG    1       -8.754  -1.358   2.379  0.00  0.00    -0.610 N 
ATOM      6  C   LIG    1       -8.899  -1.785   1.109  0.00  0.00    +0.540 C 
ATOM      7  O   LIG    1       -9.155  -0.992   0.228  0.00  0.00    -0.500 OA
ATOM      8  C   LIG    1       -6.165  -0.104   5.515  0.00  0.00    +0.030 C 
ATOM      9  C   LIG    1       -8.778   0.077   2.693  0.00  0.00    +0.240 C 
ATOM     10  C   LIG    1       -8.818   0.886   1.395  0.00  0.00    +0.050 C 
ENDROOT
BRANCH   6  11
ATOM     11  C   LIG    1       -8.743  -3.248   0.784  0.00  0.00    -0.050 C 
ATOM     12  C   LIG    1       -7.526  -3.662  -0.046  0.00  0.00    +0.120 C 
ATOM     13  C   LIG    1       -8.920  -3.671  -0.676  0.00  0.00    +0.230 C 
ATOM     14  F   LIG    1       -9.215  -2.669  -1.607  0.00  0.00    -0.140 F 
ATOM     15  F   LIG    1       -9.510  -4.915  -0.921  0.00  0.00    -0.150 F 
ENDBRANCH   6  11
BRANCH   1  17
ATOM     16  C   LIG    1       -5.205   0.927   2.880  0.00  0.00    +0.590 C 
ATOM     17  N   LIG    1       -6.337   0.241   2.629  0.00  0.00    -0.710 N 
ATOM     18  H   LIG    1       -6.374  -0.379   1.884  0.00  0.00    +0.390 HD
ATOM     19  O   LIG    1       -5.159   1.704   3.815  0.00  0.00    -0.500 OA
BRANCH  16  24
ATOM     20  C   LIG    1       -1.968   0.893   1.143  0.00  0.00    +0.260 A 
ATOM     21  N   LIG    1       -2.636   0.024   0.421  0.00  0.00    -0.310 NA
ATOM     22  N   LIG    1       -3.928  -0.100   0.946  0.00  0.00    -0.450 N 
ATOM     23  H   LIG    1       -4.631  -0.674   0.605  0.00  0.00    +0.440 HD
ATOM     24  C   LIG    1       -4.023   0.735   2.024  0.00  0.00    +0.050 A 
ATOM     25  C   LIG    1       -2.800   1.359   2.163  0.00  0.00    -0.010 A 
BRANCH  20  27
ATOM     26  C   LIG    1        0.005   0.670  -0.166  0.00  0.00    +0.250 C 
ATOM     27  O   LIG    1       -0.679   1.272   0.935  0.00  0.00    -0.290 OA
ENDBRANCH  20  27
ENDBRANCH  16  24
ENDBRANCH   1  17
TORSDOF 4
