REMARK  Name = ZINCrD00000F5Lz9.0
REMARK                            x       y       z     vdW  Elec       q    Type
REMARK                         _______ _______ _______ _____ _____    ______ ____
ROOT
ATOM      1  N   LIG    1        4.781   4.640   0.135  0.00  0.00    -1.000 NA
ENDROOT
BRANCH   1   2
ATOM      2  S   LIG    1        5.834   5.876   0.460  0.00  0.00    +2.770 S 
ATOM      3  O   LIG    1        5.679   6.183   1.839  0.00  0.00    -0.960 OA
ATOM      4  O   LIG    1        5.659   6.834  -0.574  0.00  0.00    -0.960 OA
BRANCH   2   5
ATOM      5  N   LIG    1        7.366   5.273   0.285  0.00  0.00    -1.000 NA
BRANCH   5   7
ATOM      6  C   LIG    1        8.912   6.589  -1.079  0.00  0.00    +0.010 C 
ATOM      7  C   LIG    1        8.034   5.337  -1.017  0.00  0.00    +0.280 C 
ENDBRANCH   5   7
BRANCH   5   8
ATOM      8  C   LIG    1        8.054   4.676   1.432  0.00  0.00    +0.280 C 
ATOM      9  C   LIG    1        7.850   3.160   1.417  0.00  0.00    +0.010 C 
ENDBRANCH   5   8
ENDBRANCH   2   5
ENDBRANCH   1   2
BRANCH   1  10
ATOM     10  C   LIG    1        4.325   3.762   1.216  0.00  0.00    +0.310 C 
BRANCH  10  11
ATOM     11  C   LIG    1        3.015   4.302   1.793  0.00  0.00    -0.030 C 
ATOM     12  C   LIG    1        3.192   5.776   2.165  0.00  0.00    +0.040 C 
ATOM     13  C   LIG    1        1.905   4.169   0.750  0.00  0.00    +0.030 C 
BRANCH  11  14
ATOM     14  C   LIG    1        2.646   3.514   3.024  0.00  0.00    -0.110 C 
ATOM     15  C   LIG    1        3.349   2.526   3.506  0.00  0.00    -0.050 C 
ATOM     16  C   LIG    1        2.702   1.952   4.745  0.00  0.00    +0.040 C 
ATOM     17  C   LIG    1        1.687   3.029   5.193  0.00  0.00    +0.010 C 
ATOM     18  C   LIG    1        1.413   3.764   3.861  0.00  0.00    +0.050 C 
ENDBRANCH  11  14
ENDBRANCH  10  11
ENDBRANCH   1  10
BRANCH   1  19
ATOM     19  C   LIG    1        4.305   4.423  -1.234  0.00  0.00    +0.430 C 
BRANCH  19  20
ATOM     20  C   LIG    1        3.093   5.283  -1.486  0.00  0.00    -0.060 A 
ATOM     21  C   LIG    1        2.991   6.619  -1.288  0.00  0.00    +0.000 A 
ATOM     22  C   LIG    1        1.665   6.921  -1.675  0.00  0.00    +0.010 A 
ATOM     23  N   LIG    1        1.126   5.796  -2.049  0.00  0.00    -0.350 NA
ATOM     24  O   LIG    1        1.905   4.877  -1.956  0.00  0.00    +0.110 OA
BRANCH  22  25
ATOM     25  C   LIG    1        1.006   8.276  -1.658  0.00  0.00    +0.280 C 
BRANCH  25  26
ATOM     26  O   LIG    1        1.935   9.251  -1.181  0.00  0.00    -0.380 OA
ATOM     27  C   LIG    1        1.408  10.578  -1.126  0.00  0.00    +0.220 C 
ENDBRANCH  25  26
ENDBRANCH  22  25
ENDBRANCH  19  20
ENDBRANCH   1  19
TORSDOF 11
