REMARK  Name = ZINCtV000002Mx7K.0
REMARK                            x       y       z     vdW  Elec       q    Type
REMARK                         _______ _______ _______ _____ _____    ______ ____
ROOT
ATOM      1  O   LIG    1       -3.687   6.233  -3.203  0.00  0.00    -0.490 OA
ATOM      2  C   LIG    1       -3.669   5.822  -2.062  0.00  0.00    +0.520 C 
ATOM      3  N   LIG    1       -2.493   5.615  -1.438  0.00  0.00    -0.670 N 
ATOM      4  H   LIG    1       -2.476   5.212  -0.556  0.00  0.00    +0.410 HD
ENDROOT
BRANCH   3   5
ATOM      5  C   LIG    1       -1.296   5.983  -2.062  0.00  0.00    +0.160 A 
ATOM      6  C   LIG    1       -1.292   6.983  -3.026  0.00  0.00    +0.020 A 
ATOM      7  C   LIG    1       -0.110   7.339  -3.645  0.00  0.00    +0.020 A 
ATOM      8  C   LIG    1        1.071   6.706  -3.301  0.00  0.00    -0.020 A 
ATOM      9  C   LIG    1        1.071   5.715  -2.337  0.00  0.00    +0.030 A 
ATOM     10  C   LIG    1       -0.107   5.353  -1.715  0.00  0.00    -0.110 A 
BRANCH  10  11
ATOM     11  C   LIG    1       -0.106   4.272  -0.665  0.00  0.00    +0.120 C 
BRANCH  11  12
ATOM     12  C   LIG    1       -0.458   2.953  -1.302  0.00  0.00    -0.080 A 
ATOM     13  C   LIG    1        0.541   2.141  -1.808  0.00  0.00    +0.010 A 
ATOM     14  C   LIG    1        0.218   0.930  -2.391  0.00  0.00    +0.000 A 
ATOM     15  C   LIG    1       -1.103   0.531  -2.468  0.00  0.00    +0.000 A 
ATOM     16  C   LIG    1       -2.102   1.344  -1.967  0.00  0.00    +0.000 A 
ATOM     17  C   LIG    1       -1.779   2.553  -1.380  0.00  0.00    +0.000 A 
ENDBRANCH  11  12
ENDBRANCH  10  11
ENDBRANCH   3   5
BRANCH   2  18
ATOM     18  C   LIG    1       -4.963   5.542  -1.342  0.00  0.00    +0.150 C 
BRANCH  18  19
ATOM     19  C   LIG    1       -6.122   5.853  -2.254  0.00  0.00    +0.080 A 
ATOM     20  C   LIG    1       -7.067   4.949  -2.534  0.00  0.00    -0.090 A 
ATOM     21  S   LIG    1       -8.237   5.694  -3.622  0.00  0.00    +0.150 S 
ATOM     22  C   LIG    1       -7.303   7.188  -3.595  0.00  0.00    +0.100 A 
ATOM     23  N   LIG    1       -6.264   7.026  -2.826  0.00  0.00    -0.430 NA
BRANCH  22  24
ATOM     24  C   LIG    1       -7.643   8.425  -4.329  0.00  0.00    -0.010 A 
ATOM     25  C   LIG    1       -6.824   9.550  -4.224  0.00  0.00    +0.090 A 
ATOM     26  C   LIG    1       -7.144  10.700  -4.915  0.00  0.00    +0.030 A 
ATOM     27  C   LIG    1       -8.280  10.744  -5.703  0.00  0.00    +0.050 A 
ATOM     28  C   LIG    1       -9.100   9.635  -5.808  0.00  0.00    +0.030 A 
ATOM     29  C   LIG    1       -8.789   8.476  -5.126  0.00  0.00    -0.030 A 
ATOM     30 CL   LIG    1       -9.819   7.085  -5.258  0.00  0.00    -0.030 Cl
ENDBRANCH  22  24
ENDBRANCH  18  19
ENDBRANCH   2  18
TORSDOF 6
