REMARK  Name = ZINCtV000002AWur.0
REMARK                            x       y       z     vdW  Elec       q    Type
REMARK                         _______ _______ _______ _____ _____    ______ ____
ROOT
ATOM      1  C   LIG    1        1.128  -4.909   0.119  0.00  0.00    -0.120 A 
ATOM      2  C   LIG    1        2.358  -4.256   0.216  0.00  0.00    +0.050 A 
ATOM      3  C   LIG    1        3.516  -4.993   0.364  0.00  0.00    +0.020 A 
ATOM      4  C   LIG    1        3.459  -6.374   0.415  0.00  0.00    +0.050 A 
ATOM      5  C   LIG    1        2.243  -7.027   0.319  0.00  0.00    +0.030 A 
ATOM      6  C   LIG    1        1.077  -6.303   0.177  0.00  0.00    -0.020 A 
ENDROOT
BRANCH   1   9
ATOM      7  N   LIG    1       -0.057  -2.787  -0.176  0.00  0.00    -0.660 N 
ATOM      8  H   LIG    1        0.803  -2.343  -0.241  0.00  0.00    +0.420 HD
ATOM      9  C   LIG    1       -0.116  -4.126  -0.039  0.00  0.00    +0.560 C 
ATOM     10  O   LIG    1       -1.193  -4.691  -0.045  0.00  0.00    -0.500 OA
BRANCH   7  17
ATOM     11  C   LIG    1       -1.274  -0.755   0.326  0.00  0.00    +0.110 A 
ATOM     12  C   LIG    1       -2.446  -0.018   0.282  0.00  0.00    -0.040 A 
ATOM     13  C   LIG    1       -3.574  -0.548  -0.317  0.00  0.00    +0.060 A 
ATOM     14  C   LIG    1       -3.540  -1.819  -0.863  0.00  0.00    -0.050 A 
ATOM     15  C   LIG    1       -2.375  -2.563  -0.818  0.00  0.00    +0.080 A 
ATOM     16 CL   LIG    1       -4.962  -2.480  -1.608  0.00  0.00    -0.060 Cl
ATOM     17  C   LIG    1       -1.238  -2.035  -0.224  0.00  0.00    +0.130 A 
BRANCH  11  19
ATOM     18  C   LIG    1       -0.273   1.084   1.453  0.00  0.00    +0.250 C 
ATOM     19  O   LIG    1       -0.163  -0.233   0.911  0.00  0.00    -0.320 OA
ENDBRANCH  11  19
ENDBRANCH   7  17
ENDBRANCH   1   9
BRANCH   6  20
ATOM     20  C   LIG    1       -0.247  -7.015   0.079  0.00  0.00    +0.160 C 
BRANCH  20  21
ATOM     21  S   LIG    1       -0.720  -7.172  -1.661  0.00  0.00    +0.080 S 
BRANCH  21  22
ATOM     22  C   LIG    1       -2.257  -8.015  -1.485  0.00  0.00    +0.220 A 
ATOM     23  N   LIG    1       -2.790  -8.375  -0.344  0.00  0.00    -0.480 NA
ATOM     24  C   LIG    1       -3.974  -8.998  -0.592  0.00  0.00    +0.030 A 
ATOM     25  C   LIG    1       -4.949  -9.573   0.223  0.00  0.00    +0.080 A 
ATOM     26  C   LIG    1       -6.066 -10.146  -0.346  0.00  0.00    +0.020 A 
ATOM     27  C   LIG    1       -6.224 -10.154  -1.723  0.00  0.00    +0.040 A 
ATOM     28  C   LIG    1       -5.267  -9.587  -2.542  0.00  0.00    +0.050 A 
ATOM     29  C   LIG    1       -4.139  -9.007  -1.985  0.00  0.00    +0.010 A 
ATOM     30  O   LIG    1       -3.053  -8.388  -2.503  0.00  0.00    -0.200 OA
ENDBRANCH  21  22
ENDBRANCH  20  21
ENDBRANCH   6  20
TORSDOF 6
