REMARK  Name = ZINCpk00000ebvcL.0
REMARK                            x       y       z     vdW  Elec       q    Type
REMARK                         _______ _______ _______ _____ _____    ______ ____
ROOT
ATOM      1  C   LIG    1        2.107   0.881  -0.942  0.00  0.00    +0.260 C 
ATOM      2  C   LIG    1        1.477   1.939  -0.002  0.00  0.00    +0.050 C 
ATOM      3  C   LIG    1       -0.019   1.538   0.011  0.00  0.00    +0.000 C 
ATOM      4  C   LIG    1        0.002  -0.004   0.002  0.00  0.00    +0.000 C 
ATOM      5  C   LIG    1        1.353  -0.422  -0.604  0.00  0.00    +0.150 C 
ENDROOT
BRANCH   1   8
ATOM      6  O   LIG    1        3.909  -0.128  -2.674  0.00  0.00    -0.490 OA
ATOM      7  C   LIG    1        4.356   0.216  -1.601  0.00  0.00    +0.510 C 
ATOM      8  N   LIG    1        3.537   0.734  -0.664  0.00  0.00    -0.730 N 
ATOM      9  H   LIG    1        3.895   1.008   0.195  0.00  0.00    +0.400 HD
BRANCH   7  10
ATOM     10  C   LIG    1        5.828   0.064  -1.314  0.00  0.00    +0.200 C 
BRANCH  10  11
ATOM     11  O   LIG    1        6.479  -0.503  -2.453  0.00  0.00    -0.360 OA
BRANCH  11  12
ATOM     12  C   LIG    1        7.886  -0.690  -2.285  0.00  0.00    +0.240 C 
BRANCH  12  13
ATOM     13  C   LIG    1        8.466  -1.290  -3.540  0.00  0.00    -0.150 A 
ATOM     14  C   LIG    1        8.544  -2.666  -3.689  0.00  0.00    +0.090 A 
ATOM     15  C   LIG    1        9.080  -3.174  -4.863  0.00  0.00    -0.040 A 
ATOM     16  C   LIG    1        9.527  -2.297  -5.833  0.00  0.00    +0.270 A 
ATOM     17  N   LIG    1        9.441  -0.993  -5.655  0.00  0.00    -0.490 NA
ATOM     18  C   LIG    1        8.932  -0.475  -4.555  0.00  0.00    +0.280 A 
ENDBRANCH  12  13
ENDBRANCH  11  12
ENDBRANCH  10  11
ENDBRANCH   7  10
ENDBRANCH   1   8
BRANCH   5  19
ATOM     19  O   LIG    1        1.141  -1.188  -1.792  0.00  0.00    -0.550 OA
ATOM     20  H   LIG    1        0.653  -2.010  -1.648  0.00  0.00    +0.380 HD
ENDBRANCH   5  19
BRANCH   3  21
ATOM     21  C   LIG    1       -0.702   2.058   1.277  0.00  0.00    +0.330 C 
BRANCH  21  22
ATOM     22  N   LIG    1       -2.120   1.693   1.252  0.00  0.00    -0.360 N 
ATOM     23  C   LIG    1       -2.780   1.003   2.207  0.00  0.00    +0.250 A 
ATOM     24  C   LIG    1       -4.068   0.877   1.809  0.00  0.00    -0.190 A 
ATOM     25  C   LIG    1       -4.197   1.503   0.565  0.00  0.00    +0.250 A 
ATOM     26 CL   LIG    1       -5.334   0.074   2.685  0.00  0.00    -0.040 Cl
ATOM     27  N   LIG    1       -3.030   1.992   0.230  0.00  0.00    -0.280 NA
ENDBRANCH  21  22
ENDBRANCH   3  21
TORSDOF 8
