REMARK  Name = ZINCqH0000002SYZ.0
REMARK                            x       y       z     vdW  Elec       q    Type
REMARK                         _______ _______ _______ _____ _____    ______ ____
ROOT
ATOM      1  C   LIG    1        2.810   3.385   7.922  0.00  0.00    +0.240 A 
ATOM      2  N   LIG    1        2.796   2.906   6.705  0.00  0.00    -0.440 NA
ATOM      3  C   LIG    1        1.509   2.709   6.367  0.00  0.00    +0.160 A 
ATOM      4  N   LIG    1        0.761   3.078   7.385  0.00  0.00    -0.270 NA
ATOM      5  N   LIG    1        1.530   3.483   8.336  0.00  0.00    -0.250 N 
ENDROOT
BRANCH   5   6
ATOM      6  C   LIG    1        1.108   3.954   9.588  0.00  0.00    +0.080 A 
ATOM      7  C   LIG    1        1.696   3.470  10.748  0.00  0.00    +0.070 A 
ATOM      8  C   LIG    1        1.282   3.940  11.979  0.00  0.00    +0.040 A 
ATOM      9  C   LIG    1        0.274   4.883  12.058  0.00  0.00    +0.080 A 
ATOM     10  C   LIG    1       -0.319   5.365  10.905  0.00  0.00    +0.010 A 
ATOM     11  C   LIG    1        0.095   4.904   9.669  0.00  0.00    +0.130 A 
ATOM     12  F   LIG    1       -0.484   5.374   8.543  0.00  0.00    -0.120 F 
ENDBRANCH   5   6
BRANCH   3  13
ATOM     13  C   LIG    1        1.020   2.178   5.077  0.00  0.00    +0.610 C 
ATOM     14  N   LIG    1       -0.303   2.143   4.821  0.00  0.00    -0.510 N 
ATOM     15  O   LIG    1        1.810   1.773   4.247  0.00  0.00    -0.430 OA
BRANCH  14  16
ATOM     16  C   LIG    1       -0.758   1.736   3.574  0.00  0.00    +0.280 A 
ATOM     17  N   LIG    1        0.001   1.369   2.589  0.00  0.00    -0.480 NA
ATOM     18  C   LIG    1       -0.601   1.011   1.471  0.00  0.00    +0.100 A 
ATOM     19  C   LIG    1       -1.933   1.082   1.511  0.00  0.00    -0.100 A 
ATOM     20  C   LIG    1        0.154   0.564   0.246  0.00  0.00    +0.160 C 
ATOM     21  S   LIG    1       -2.402   1.643   3.114  0.00  0.00    +0.130 S 
ENDBRANCH  14  16
BRANCH  14  22
ATOM     22  C   LIG    1       -1.261   2.535   5.859  0.00  0.00    +0.300 C 
ATOM     23  C   LIG    1       -1.533   1.342   6.777  0.00  0.00    +0.040 C 
ENDBRANCH  14  22
ENDBRANCH   3  13
BRANCH   1  24
ATOM     24  C   LIG    1        4.035   3.758   8.718  0.00  0.00    +0.150 C 
BRANCH  24  26
ATOM     25  C   LIG    1        5.701   5.564   9.169  0.00  0.00    +0.030 C 
ATOM     26  C   LIG    1        4.458   5.185   8.362  0.00  0.00    +0.020 C 
ENDBRANCH  24  26
ENDBRANCH   1  24
TORSDOF 6
