REMARK  Name = ZINCkj00000y7BYV.0
REMARK                            x       y       z     vdW  Elec       q    Type
REMARK                         _______ _______ _______ _____ _____    ______ ____
ROOT
ATOM      1  C   LIG    1       -1.748   2.920   0.867  0.00  0.00    +0.140 C 
ATOM      2  C   LIG    1       -1.457   3.232  -0.616  0.00  0.00    +0.080 C 
ATOM      3  C   LIG    1       -1.145   1.834  -1.213  0.00  0.00    +0.080 C 
ATOM      4  C   LIG    1       -0.407   1.149  -0.036  0.00  0.00    +0.260 C 
ATOM      5  N   LIG    1       -1.099   1.631   1.179  0.00  0.00    -0.380 N 
ATOM      6  H   LIG    1       -1.796   0.959   1.461  0.00  0.00    +0.430 HD
ENDROOT
BRANCH   1   7
ATOM      7  C   LIG    1       -1.170   4.024   1.754  0.00  0.00    +0.300 C 
BRANCH   7  10
ATOM      8  C   LIG    1       -3.480   4.752   3.230  0.00  0.00    +0.090 C 
ATOM      9  C   LIG    1       -2.909   5.675   2.184  0.00  0.00    +0.510 C 
ATOM     10  N   LIG    1       -1.842   5.291   1.457  0.00  0.00    -0.590 N 
ATOM     11  O   LIG    1       -3.411   6.763   1.997  0.00  0.00    -0.500 OA
BRANCH  10  12
ATOM     12  C   LIG    1       -1.353   6.141   0.368  0.00  0.00    +0.180 C 
ATOM     13  C   LIG    1        0.153   6.403   0.298  0.00  0.00    +0.030 C 
ATOM     14  C   LIG    1       -0.797   7.517   0.742  0.00  0.00    +0.050 C 
ENDBRANCH  10  12
ENDBRANCH   7  10
ENDBRANCH   1   7
BRANCH   5  15
ATOM     15  C   LIG    1       -0.125   1.815   2.263  0.00  0.00    +0.350 C 
BRANCH  15  16
ATOM     16  C   LIG    1        0.458   0.480   2.647  0.00  0.00    -0.320 A 
ATOM     17  C   LIG    1        1.561  -0.092   2.112  0.00  0.00    +0.280 A 
ATOM     18  N   LIG    1        1.748  -1.280   2.725  0.00  0.00    -0.350 N 
ATOM     19  N   LIG    1        0.725  -1.444   3.668  0.00  0.00    -0.270 NA
ATOM     20  C   LIG    1        2.829  -2.230   2.451  0.00  0.00    +0.380 C 
ATOM     21  C   LIG    1       -0.044  -0.386   3.624  0.00  0.00    +0.260 A 
ENDBRANCH  15  16
ENDBRANCH   5  15
TORSDOF 5
