REMARK  Name = ZINCkj00000y7BYV.1
REMARK                            x       y       z     vdW  Elec       q    Type
REMARK                         _______ _______ _______ _____ _____    ______ ____
ROOT
ATOM      1  C   LIG    1       -1.253   0.943   4.400  0.00  0.00    +0.150 C 
ATOM      2  C   LIG    1       -2.360   1.286   5.414  0.00  0.00    +0.080 C 
ATOM      3  C   LIG    1       -3.612   0.528   4.917  0.00  0.00    +0.080 C 
ATOM      4  C   LIG    1       -3.010  -0.598   4.040  0.00  0.00    +0.260 C 
ATOM      5  N   LIG    1       -1.861   0.067   3.375  0.00  0.00    -0.390 N 
ATOM      6  H   LIG    1       -2.183   0.617   2.593  0.00  0.00    +0.430 HD
ENDROOT
BRANCH   1   7
ATOM      7  C   LIG    1       -0.729   2.223   3.746  0.00  0.00    +0.320 C 
BRANCH   7  10
ATOM      8  C   LIG    1        0.863   1.315   0.388  0.00  0.00    +0.120 C 
ATOM      9  C   LIG    1       -0.123   1.780   1.428  0.00  0.00    +0.510 C 
ATOM     10  N   LIG    1        0.256   1.879   2.718  0.00  0.00    -0.600 N 
ATOM     11  O   LIG    1       -1.256   2.065   1.105  0.00  0.00    -0.540 OA
BRANCH  10  12
ATOM     12  C   LIG    1        1.653   1.643   3.092  0.00  0.00    +0.180 C 
ATOM     13  C   LIG    1        2.005   1.700   4.580  0.00  0.00    +0.040 C 
ATOM     14  C   LIG    1        2.446   2.828   3.644  0.00  0.00    +0.030 C 
ENDBRANCH  10  12
ENDBRANCH   7  10
ENDBRANCH   1   7
BRANCH   5  15
ATOM     15  C   LIG    1       -0.887  -0.937   2.924  0.00  0.00    +0.350 C 
BRANCH  15  16
ATOM     16  C   LIG    1       -1.476  -1.733   1.788  0.00  0.00    -0.320 A 
ATOM     17  C   LIG    1       -1.377  -1.435   0.472  0.00  0.00    +0.280 A 
ATOM     18  N   LIG    1       -2.036  -2.390  -0.217  0.00  0.00    -0.350 N 
ATOM     19  N   LIG    1       -2.556  -3.306   0.707  0.00  0.00    -0.270 NA
ATOM     20  C   LIG    1       -2.181  -2.458  -1.673  0.00  0.00    +0.380 C 
ATOM     21  C   LIG    1       -2.215  -2.914   1.907  0.00  0.00    +0.260 A 
ENDBRANCH  15  16
ENDBRANCH   5  15
TORSDOF 5
