REMARK  Name = ZINCpk00000xWFNn.0
REMARK                            x       y       z     vdW  Elec       q    Type
REMARK                         _______ _______ _______ _____ _____    ______ ____
ROOT
ATOM      1  O   LIG    1        3.556   2.014   0.080  0.00  0.00    -0.490 OA
ATOM      2  C   LIG    1        3.538   3.227   0.086  0.00  0.00    +0.520 C 
ATOM      3  N   LIG    1        2.365   3.884  -0.000  0.00  0.00    -0.660 N 
ATOM      4  H   LIG    1        2.355   4.851  -0.072  0.00  0.00    +0.420 HD
ENDROOT
BRANCH   3   5
ATOM      5  C   LIG    1        1.160   3.170   0.014  0.00  0.00    +0.170 A 
ATOM      6  C   LIG    1        1.052   2.004   0.759  0.00  0.00    +0.060 A 
ATOM      7  C   LIG    1       -0.136   1.299   0.774  0.00  0.00    +0.090 A 
ATOM      8  C   LIG    1       -1.221   1.750   0.040  0.00  0.00    +0.010 A 
ATOM      9  O   LIG    1       -2.481   1.244  -0.115  0.00  0.00    -0.280 OA
ATOM     10  C   LIG    1       -3.013   1.891  -1.286  0.00  0.00    +0.570 C 
ATOM     11  O   LIG    1       -2.312   3.152  -1.324  0.00  0.00    -0.280 OA
ATOM     12  F   LIG    1       -4.389   2.101  -1.150  0.00  0.00    -0.110 F 
ATOM     13  F   LIG    1       -2.744   1.134  -2.431  0.00  0.00    -0.150 F 
ATOM     14  C   LIG    1       -1.118   2.923  -0.705  0.00  0.00    +0.050 A 
ATOM     15  C   LIG    1        0.073   3.629  -0.719  0.00  0.00    +0.040 A 
ENDBRANCH   3   5
BRANCH   2  16
ATOM     16  C   LIG    1        4.829   3.999   0.191  0.00  0.00    +0.280 C 
BRANCH  16  17
ATOM     17  O   LIG    1        5.943   3.071   0.272  0.00  0.00    -0.320 OA
BRANCH  17  18
ATOM     18  C   LIG    1        7.176   3.603   0.371  0.00  0.00    +0.520 C 
ATOM     19  O   LIG    1        7.317   4.810   0.389  0.00  0.00    -0.480 OA
BRANCH  18  20
ATOM     20  C   LIG    1        8.358   2.720   0.456  0.00  0.00    -0.090 C 
ATOM     21  C   LIG    1        8.217   1.327   0.442  0.00  0.00    +0.120 C 
ATOM     22  C   LIG    1        9.348   0.539   0.519  0.00  0.00    +0.260 C 
ATOM     23  N   LIG    1       10.547   1.083   0.615  0.00  0.00    -0.100 NA
ATOM     24  C   LIG    1       10.724   2.391   0.637  0.00  0.00    +0.260 C 
ATOM     25  O   LIG    1       11.679   0.236   0.697  0.00  0.00    -0.520 OA
ATOM     26  C   LIG    1        9.648   3.252   0.560  0.00  0.00    +0.120 C 
ENDBRANCH  18  20
ENDBRANCH  17  18
ENDBRANCH  16  17
ENDBRANCH   2  16
TORSDOF 5
