REMARK  Name = ZINCqH0000002jn1.0
REMARK                            x       y       z     vdW  Elec       q    Type
REMARK                         _______ _______ _______ _____ _____    ______ ____
ROOT
ATOM      1  N   LIG    1       -2.583   3.483   0.320  0.00  0.00    -0.740 N 
ATOM      2  H   LIG    1       -2.650   4.450   0.366  0.00  0.00    +0.410 HD
ENDROOT
BRANCH   1   7
ATOM      3  C   LIG    1        1.062   3.038   0.107  0.00  0.00    +0.190 A 
ATOM      4  C   LIG    1        1.151   1.653   0.041  0.00  0.00    -0.030 A 
ATOM      5  C   LIG    1        0.004   0.883   0.067  0.00  0.00    +0.070 A 
ATOM      6  C   LIG    1       -1.235   1.488   0.154  0.00  0.00    -0.090 A 
ATOM      7  C   LIG    1       -1.331   2.873   0.227  0.00  0.00    +0.230 A 
ATOM      8  C   LIG    1       -0.180   3.648   0.200  0.00  0.00    -0.180 A 
ATOM      9  C   LIG    1       -0.280   5.150   0.272  0.00  0.00    +0.080 C 
BRANCH   3  11
ATOM     10  C   LIG    1        3.351   3.366   0.667  0.00  0.00    +0.510 C 
ATOM     11  N   LIG    1        2.225   3.816   0.079  0.00  0.00    -0.670 N 
ATOM     12  H   LIG    1        2.220   4.679  -0.363  0.00  0.00    +0.410 HD
ATOM     13  O   LIG    1        3.382   2.252   1.146  0.00  0.00    -0.510 OA
BRANCH  10  14
ATOM     14  C   LIG    1        4.572   4.247   0.728  0.00  0.00    +0.060 C 
BRANCH  14  16
ATOM     15  C   LIG    1        6.942   4.397   1.504  0.00  0.00    +0.030 C 
ATOM     16  C   LIG    1        5.703   3.502   1.441  0.00  0.00    +0.030 C 
ENDBRANCH  14  16
ENDBRANCH  10  14
ENDBRANCH   3  11
ENDBRANCH   1   7
BRANCH   1  17
ATOM     17  C   LIG    1       -3.797   2.664   0.348  0.00  0.00    +0.310 C 
BRANCH  17  18
ATOM     18  C   LIG    1       -5.005   3.559   0.452  0.00  0.00    +0.510 C 
ATOM     19  N   LIG    1       -6.241   3.022   0.494  0.00  0.00    -0.670 N 
ATOM     20  H   LIG    1       -6.349   2.059   0.543  0.00  0.00    +0.420 HD
ATOM     21  O   LIG    1       -4.866   4.763   0.498  0.00  0.00    -0.510 OA
BRANCH  19  22
ATOM     22  C   LIG    1       -7.366   3.852   0.467  0.00  0.00    +0.180 A 
ATOM     23  C   LIG    1       -8.562   3.421   1.026  0.00  0.00    -0.060 A 
ATOM     24  C   LIG    1       -9.672   4.243   1.004  0.00  0.00    +0.070 A 
ATOM     25  C   LIG    1       -9.599   5.492   0.417  0.00  0.00    -0.100 A 
ATOM     26  C   LIG    1       -8.408   5.926  -0.148  0.00  0.00    +0.150 A 
ATOM     27  C   LIG    1       -7.290   5.106  -0.123  0.00  0.00    -0.010 A 
BRANCH  26  28
ATOM     28  O   LIG    1       -8.337   7.154  -0.725  0.00  0.00    -0.310 OA
ATOM     29  C   LIG    1       -9.527   7.946  -0.715  0.00  0.00    +0.250 C 
ENDBRANCH  26  28
ENDBRANCH  19  22
ENDBRANCH  17  18
ENDBRANCH   1  17
TORSDOF 8
