REMARK  Name = ZINCvU0000000Fwl.0
REMARK                            x       y       z     vdW  Elec       q    Type
REMARK                         _______ _______ _______ _____ _____    ______ ____
ROOT
ATOM      1  O   LIG    1       -2.403   6.062   0.860  0.00  0.00    -0.320 OA
ENDROOT
BRANCH   1   3
ATOM      2  O   LIG    1       -2.244   6.593  -1.289  0.00  0.00    -0.480 OA
ATOM      3  C   LIG    1       -2.243   5.729  -0.435  0.00  0.00    +0.520 C 
BRANCH   3   4
ATOM      4  C   LIG    1       -2.069   4.313  -0.818  0.00  0.00    -0.040 A 
ATOM      5  C   LIG    1       -3.163   3.516  -1.136  0.00  0.00    -0.100 A 
ATOM      6  C   LIG    1       -4.639   3.844  -1.159  0.00  0.00    +0.090 C 
ATOM      7  C   LIG    1       -5.290   2.714  -1.984  0.00  0.00    +0.050 C 
ATOM      8  C   LIG    1       -4.313   1.539  -1.774  0.00  0.00    +0.120 C 
ATOM      9  C   LIG    1       -2.969   2.182  -1.492  0.00  0.00    +0.160 A 
ATOM     10  N   LIG    1       -1.763   1.661  -1.545  0.00  0.00    -0.450 NA
ATOM     11  C   LIG    1       -0.667   2.367  -1.266  0.00  0.00    +0.140 A 
ATOM     12  C   LIG    1        0.611   1.782  -1.333  0.00  0.00    +0.060 A 
ATOM     13  C   LIG    1        1.712   2.529  -1.050  0.00  0.00    +0.040 A 
ATOM     14  C   LIG    1        1.597   3.869  -0.685  0.00  0.00    +0.030 A 
ATOM     15  C   LIG    1        0.376   4.468  -0.603  0.00  0.00    +0.020 A 
ATOM     16  C   LIG    1       -0.779   3.729  -0.889  0.00  0.00    -0.070 A 
ENDBRANCH   3   4
ENDBRANCH   1   3
BRANCH   1  17
ATOM     17  C   LIG    1       -2.569   7.473   1.163  0.00  0.00    +0.210 C 
BRANCH  17  18
ATOM     18  C   LIG    1       -1.219   8.097   1.405  0.00  0.00    -0.120 A 
ATOM     19  C   LIG    1       -0.259   7.411   2.126  0.00  0.00    +0.040 A 
ATOM     20  C   LIG    1        0.981   7.981   2.345  0.00  0.00    +0.010 A 
ATOM     21  C   LIG    1        1.258   9.242   1.851  0.00  0.00    +0.030 A 
ATOM     22  C   LIG    1        0.296   9.931   1.135  0.00  0.00    +0.010 A 
ATOM     23  C   LIG    1       -0.942   9.358   0.912  0.00  0.00    +0.040 A 
ENDBRANCH  17  18
BRANCH  17  24
ATOM     24  C   LIG    1       -3.422   7.625   2.396  0.00  0.00    +0.410 C 
ATOM     25  O   LIG    1       -3.536   6.700   3.172  0.00  0.00    -0.420 OA
BRANCH  24  26
ATOM     26  C   LIG    1       -4.116   8.896   2.658  0.00  0.00    -0.160 A 
ATOM     27  C   LIG    1       -4.079   9.925   1.713  0.00  0.00    +0.050 A 
ATOM     28  C   LIG    1       -4.735  11.111   1.964  0.00  0.00    +0.000 A 
ATOM     29  C   LIG    1       -5.422  11.288   3.153  0.00  0.00    +0.050 A 
ATOM     30  C   LIG    1       -5.459  10.276   4.096  0.00  0.00    +0.000 A 
ATOM     31  C   LIG    1       -4.811   9.082   3.857  0.00  0.00    +0.080 A 
ENDBRANCH  24  26
ENDBRANCH  17  24
ENDBRANCH   1  17
TORSDOF 6
