REMARK  Name = ZINCrH000004remF.0
REMARK                            x       y       z     vdW  Elec       q    Type
REMARK                         _______ _______ _______ _____ _____    ______ ____
ROOT
ATOM      1  C   LIG    1        4.481  -0.069  -3.090  0.00  0.00    +0.270 C 
ENDROOT
BRANCH   1   4
ATOM      2  N   LIG    1        2.903   0.815  -1.403  0.00  0.00    -0.720 N 
ATOM      3  H   LIG    1        2.346   1.127  -2.133  0.00  0.00    +0.410 HD
ATOM      4  C   LIG    1        4.056   0.169  -1.663  0.00  0.00    +0.520 C 
ATOM      5  O   LIG    1        4.753  -0.222  -0.750  0.00  0.00    -0.530 OA
BRANCH   2   6
ATOM      6  C   LIG    1        2.490   1.046  -0.016  0.00  0.00    +0.320 C 
BRANCH   6  11
ATOM      7  C   LIG    1       -2.555   3.867   0.047  0.00  0.00    +0.110 C 
ATOM      8  C   LIG    1       -1.240   3.132   0.031  0.00  0.00    -0.110 A 
ATOM      9  C   LIG    1       -1.220   1.750   0.017  0.00  0.00    +0.050 A 
ATOM     10  C   LIG    1       -0.013   1.076   0.008  0.00  0.00    +0.030 A 
ATOM     11  C   LIG    1        1.175   1.783   0.000  0.00  0.00    -0.090 A 
ATOM     12  C   LIG    1        1.158   3.165   0.007  0.00  0.00    +0.010 A 
ATOM     13  C   LIG    1       -0.050   3.841   0.023  0.00  0.00    +0.100 A 
ATOM     14  F   LIG    1       -0.068   5.192   0.029  0.00  0.00    -0.130 F 
ENDBRANCH   6  11
ENDBRANCH   2   6
ENDBRANCH   1   4
BRANCH   1  15
ATOM     15  N   LIG    1        5.759  -0.785  -3.106  0.00  0.00    -0.690 N 
ATOM     16  H   LIG    1        6.016  -1.336  -2.350  0.00  0.00    +0.420 HD
ATOM     17  C   LIG    1        6.578  -0.679  -4.171  0.00  0.00    +0.650 C 
ATOM     18  O   LIG    1        6.256   0.011  -5.118  0.00  0.00    -0.570 OA
BRANCH  17  19
ATOM     19  O   LIG    1        7.752  -1.337  -4.186  0.00  0.00    -0.360 OA
BRANCH  19  20
ATOM     20  C   LIG    1        8.583  -1.176  -5.365  0.00  0.00    +0.290 C 
BRANCH  20  21
ATOM     21  C   LIG    1        9.848  -1.980  -5.203  0.00  0.00    -0.100 A 
ATOM     22  C   LIG    1       10.964  -1.403  -4.627  0.00  0.00    +0.040 A 
ATOM     23  C   LIG    1       12.123  -2.142  -4.474  0.00  0.00    +0.010 A 
ATOM     24  C   LIG    1       12.167  -3.454  -4.905  0.00  0.00    +0.020 A 
ATOM     25  C   LIG    1       11.052  -4.029  -5.485  0.00  0.00    +0.010 A 
ATOM     26  C   LIG    1        9.892  -3.292  -5.634  0.00  0.00    +0.030 A 
ENDBRANCH  20  21
ENDBRANCH  19  20
ENDBRANCH  17  19
ENDBRANCH   1  15
BRANCH   1  27
ATOM     27  C   LIG    1        3.419  -0.906  -3.805  0.00  0.00    -0.010 C 
ATOM     28  C   LIG    1        3.260  -2.249  -3.090  0.00  0.00    +0.020 C 
ATOM     29  C   LIG    1        3.850  -1.148  -5.253  0.00  0.00    +0.030 C 
ENDBRANCH   1  27
TORSDOF 8
