REMARK  Name = ZINCtj0000000HWL.0
REMARK                            x       y       z     vdW  Elec       q    Type
REMARK                         _______ _______ _______ _____ _____    ______ ____
ROOT
ATOM      1  C   LIG    1       -2.490   0.943  -0.030  0.00  0.00    -0.170 A 
ATOM      2  C   LIG    1       -1.836   1.649  -1.019  0.00  0.00    +0.510 A 
ATOM      3  N   LIG    1       -1.752   3.019  -0.922  0.00  0.00    -0.530 N 
ATOM      4  C   LIG    1       -2.312   3.663   0.118  0.00  0.00    +0.710 A 
ATOM      5  N   LIG    1       -2.953   2.992   1.091  0.00  0.00    -0.660 N 
ATOM      6  H   LIG    1       -3.344   3.479   1.833  0.00  0.00    +0.440 HD
ATOM      7  O   LIG    1       -2.232   4.875   0.183  0.00  0.00    -0.520 OA
ATOM      8  C   LIG    1       -3.058   1.649   1.047  0.00  0.00    +0.580 A 
ATOM      9  O   LIG    1       -3.642   1.050   1.934  0.00  0.00    -0.520 OA
ENDROOT
BRANCH   1  10
ATOM     10  N   LIG    1       -2.587  -0.463  -0.097  0.00  0.00    -0.500 N 
ATOM     11  C   LIG    1       -3.789  -1.049  -0.276  0.00  0.00    +0.500 C 
ATOM     12  O   LIG    1       -4.797  -0.373  -0.288  0.00  0.00    -0.500 OA
BRANCH  10  14
ATOM     13  C   LIG    1       -1.213  -1.728   1.483  0.00  0.00    +0.040 C 
ATOM     14  C   LIG    1       -1.382  -1.287   0.027  0.00  0.00    +0.270 C 
ENDBRANCH  10  14
BRANCH  11  15
ATOM     15  C   LIG    1       -3.880  -2.541  -0.462  0.00  0.00    +0.290 C 
BRANCH  15  16
ATOM     16  N   LIG    1       -5.286  -2.929  -0.636  0.00  0.00    -0.360 N 
ATOM     17  C   LIG    1       -6.029  -2.636   0.596  0.00  0.00    +0.250 C 
ATOM     18  C   LIG    1       -7.510  -2.962   0.393  0.00  0.00    +0.060 C 
ATOM     19  C   LIG    1       -7.657  -4.446   0.047  0.00  0.00    +0.030 C 
ATOM     20  C   LIG    1       -6.819  -4.756  -1.197  0.00  0.00    +0.060 C 
ATOM     21  C   LIG    1       -5.364  -4.363  -0.935  0.00  0.00    +0.170 C 
ATOM     22  C   LIG    1       -4.827  -5.162   0.255  0.00  0.00    +0.090 C 
ATOM     23  H   LIG    1       -5.686  -2.405  -1.399  0.00  0.00    +0.430 HD
ENDBRANCH  15  16
ENDBRANCH  11  15
ENDBRANCH   1  10
BRANCH   2  24
ATOM     24  N   LIG    1       -1.269   0.992  -2.084  0.00  0.00    -0.830 N 
ATOM     25  H   LIG    1       -0.869   1.498  -2.809  0.00  0.00    +0.410 HD
ATOM     26  H   LIG    1       -1.274   0.022  -2.114  0.00  0.00    +0.420 HD
ENDBRANCH   2  24
BRANCH   3  27
ATOM     27  C   LIG    1       -1.056   3.781  -1.961  0.00  0.00    +0.380 C 
BRANCH  27  28
ATOM     28  C   LIG    1       -2.033   4.168  -3.041  0.00  0.00    -0.130 A 
ATOM     29  C   LIG    1       -2.234   3.330  -4.123  0.00  0.00    +0.000 A 
ATOM     30  C   LIG    1       -3.134   3.683  -5.112  0.00  0.00    +0.010 A 
ATOM     31  C   LIG    1       -3.825   4.876  -5.024  0.00  0.00    +0.030 A 
ATOM     32  C   LIG    1       -3.620   5.716  -3.945  0.00  0.00    +0.010 A 
ATOM     33  C   LIG    1       -2.724   5.362  -2.954  0.00  0.00    +0.050 A 
ENDBRANCH  27  28
ENDBRANCH   3  27
TORSDOF 7
