REMARK  Name = ZINCtj0000000HWL.1
REMARK                            x       y       z     vdW  Elec       q    Type
REMARK                         _______ _______ _______ _____ _____    ______ ____
ROOT
ATOM      1  C   LIG    1       -1.006   1.790   6.102  0.00  0.00    -0.180 A 
ATOM      2  C   LIG    1       -1.391   3.100   6.301  0.00  0.00    +0.520 A 
ATOM      3  N   LIG    1       -2.223   3.404   7.353  0.00  0.00    -0.530 N 
ATOM      4  C   LIG    1       -2.657   2.435   8.179  0.00  0.00    +0.710 A 
ATOM      5  N   LIG    1       -2.293   1.152   8.001  0.00  0.00    -0.660 N 
ATOM      6  H   LIG    1       -2.620   0.472   8.610  0.00  0.00    +0.440 HD
ATOM      7  O   LIG    1       -3.392   2.723   9.104  0.00  0.00    -0.510 OA
ATOM      8  C   LIG    1       -1.484   0.801   6.982  0.00  0.00    +0.570 A 
ATOM      9  O   LIG    1       -1.163  -0.365   6.827  0.00  0.00    -0.520 OA
ENDROOT
BRANCH   1  10
ATOM     10  N   LIG    1       -0.154   1.447   5.031  0.00  0.00    -0.490 N 
ATOM     11  C   LIG    1       -0.567   1.618   3.758  0.00  0.00    +0.490 C 
ATOM     12  O   LIG    1       -1.701   1.987   3.533  0.00  0.00    -0.510 OA
BRANCH  10  14
ATOM     13  C   LIG    1        2.188   2.053   5.390  0.00  0.00    +0.020 C 
ATOM     14  C   LIG    1        1.180   0.905   5.302  0.00  0.00    +0.280 C 
ENDBRANCH  10  14
BRANCH  11  15
ATOM     15  C   LIG    1        0.379   1.350   2.616  0.00  0.00    +0.290 C 
BRANCH  15  16
ATOM     16  N   LIG    1       -0.306   1.607   1.342  0.00  0.00    -0.370 N 
ATOM     17  C   LIG    1       -0.645   3.033   1.250  0.00  0.00    +0.240 C 
ATOM     18  C   LIG    1       -1.429   3.292  -0.037  0.00  0.00    +0.060 C 
ATOM     19  C   LIG    1       -0.572   2.891  -1.241  0.00  0.00    +0.040 C 
ATOM     20  C   LIG    1       -0.163   1.422  -1.097  0.00  0.00    +0.060 C 
ATOM     21  C   LIG    1        0.576   1.232   0.230  0.00  0.00    +0.170 C 
ATOM     22  C   LIG    1        0.988  -0.234   0.379  0.00  0.00    +0.080 C 
ATOM     23  H   LIG    1       -1.151   1.058   1.300  0.00  0.00    +0.430 HD
ENDBRANCH  15  16
ENDBRANCH  11  15
ENDBRANCH   1  10
BRANCH   2  24
ATOM     24  N   LIG    1       -0.948   4.091   5.457  0.00  0.00    -0.820 N 
ATOM     25  H   LIG    1       -1.200   5.013   5.617  0.00  0.00    +0.410 HD
ATOM     26  H   LIG    1       -0.383   3.867   4.700  0.00  0.00    +0.410 HD
ENDBRANCH   2  24
BRANCH   3  27
ATOM     27  C   LIG    1       -2.639   4.791   7.576  0.00  0.00    +0.380 C 
BRANCH  27  28
ATOM     28  C   LIG    1       -3.913   5.062   6.817  0.00  0.00    -0.130 A 
ATOM     29  C   LIG    1       -3.857   5.536   5.520  0.00  0.00    +0.010 A 
ATOM     30  C   LIG    1       -5.025   5.780   4.822  0.00  0.00    +0.010 A 
ATOM     31  C   LIG    1       -6.249   5.559   5.425  0.00  0.00    +0.030 A 
ATOM     32  C   LIG    1       -6.305   5.089   6.724  0.00  0.00    +0.010 A 
ATOM     33  C   LIG    1       -5.137   4.841   7.420  0.00  0.00    +0.050 A 
ENDBRANCH  27  28
ENDBRANCH   3  27
TORSDOF 7
