REMARK  Name = ZINCpe00000VVGGr.0
REMARK                            x       y       z     vdW  Elec       q    Type
REMARK                         _______ _______ _______ _____ _____    ______ ____
ROOT
ATOM      1  C   LIG    1       -2.517   4.044   0.047  0.00  0.00    +0.560 C 
ATOM      2  N   LIG    1       -2.502   5.388   0.156  0.00  0.00    -0.610 N 
ATOM      3  C   LIG    1       -1.232   6.130   0.156  0.00  0.00    +0.290 C 
ATOM      4  C   LIG    1       -1.329   7.251  -0.891  0.00  0.00    +0.170 C 
ATOM      5  N   LIG    1       -2.524   8.063  -0.622  0.00  0.00    -0.530 NA
ATOM      6  C   LIG    1       -3.751   7.269  -0.763  0.00  0.00    +0.170 C 
ATOM      7  C   LIG    1       -3.754   6.149   0.283  0.00  0.00    +0.300 C 
ATOM      8  O   LIG    1       -3.575   3.454  -0.041  0.00  0.00    -0.520 OA
ENDROOT
BRANCH   1  13
ATOM      9  C   LIG    1        2.381   1.122  -0.051  0.00  0.00    +0.330 C 
ATOM     10  N   LIG    1        1.124   1.874  -0.017  0.00  0.00    -0.500 N 
ATOM     11  C   LIG    1        0.422   2.053  -1.164  0.00  0.00    +0.310 A 
ATOM     12  C   LIG    1       -0.742   2.742  -1.168  0.00  0.00    -0.060 A 
ATOM     13  C   LIG    1       -1.241   3.286   0.035  0.00  0.00    -0.010 A 
ATOM     14  C   LIG    1       -0.525   3.097   1.202  0.00  0.00    -0.050 A 
ATOM     15  C   LIG    1        0.686   2.376   1.153  0.00  0.00    +0.510 A 
ATOM     16  O   LIG    1        1.334   2.203   2.172  0.00  0.00    -0.540 OA
ENDBRANCH   1  13
BRANCH   5  17
ATOM     17  C   LIG    1       -2.561   9.248  -1.490  0.00  0.00    +0.160 C 
BRANCH  17  18
ATOM     18  C   LIG    1       -1.182   9.911  -1.508  0.00  0.00    +0.260 C 
BRANCH  18  19
ATOM     19  C   LIG    1       -1.220  11.126  -2.398  0.00  0.00    -0.120 A 
ATOM     20  C   LIG    1       -1.656  12.338  -1.895  0.00  0.00    +0.010 A 
ATOM     21  C   LIG    1       -1.687  13.454  -2.711  0.00  0.00    +0.000 A 
ATOM     22  C   LIG    1       -1.291  13.355  -4.032  0.00  0.00    +0.000 A 
ATOM     23  C   LIG    1       -0.860  12.143  -4.536  0.00  0.00    +0.000 A 
ATOM     24  C   LIG    1       -0.825  11.028  -3.719  0.00  0.00    +0.010 A 
ENDBRANCH  18  19
BRANCH  18  25
ATOM     25  O   LIG    1       -0.825  10.303  -0.181  0.00  0.00    -0.540 OA
ATOM     26  H   LIG    1       -1.439  10.933   0.222  0.00  0.00    +0.380 HD
ENDBRANCH  18  25
ENDBRANCH  17  18
ENDBRANCH   5  17
TORSDOF 5
