REMARK  Name = ZINCtV00001bB382.0
REMARK                            x       y       z     vdW  Elec       q    Type
REMARK                         _______ _______ _______ _____ _____    ______ ____
ROOT
ATOM      1  C   LIG    1        1.228   1.808  -2.533  0.00  0.00    +0.080 C 
ATOM      2  C   LIG    1        1.442   0.292  -2.541  0.00  0.00    +0.040 C 
ATOM      3  C   LIG    1        0.188  -0.404  -2.007  0.00  0.00    +0.020 C 
ATOM      4  C   LIG    1       -0.062   0.041  -0.562  0.00  0.00    +0.280 C 
ATOM      5  N   LIG    1       -0.125   1.508  -0.524  0.00  0.00    -0.610 N 
ATOM      6  C   LIG    1       -1.187   2.136   0.019  0.00  0.00    +0.530 C 
ATOM      7  O   LIG    1       -2.137   1.492   0.410  0.00  0.00    -0.530 OA
ATOM      8  C   LIG    1        0.989   2.278  -1.094  0.00  0.00    +0.290 C 
ENDROOT
BRANCH   6   9
ATOM      9  C   LIG    1       -1.192   3.638   0.141  0.00  0.00    -0.010 C 
ATOM     10  C   LIG    1       -2.635   4.135   0.252  0.00  0.00    +0.050 C 
ATOM     11  C   LIG    1       -2.641   5.660   0.376  0.00  0.00    +0.040 C 
ATOM     12  C   LIG    1       -1.862   6.073   1.626  0.00  0.00    +0.030 C 
ATOM     13  C   LIG    1       -0.419   5.576   1.515  0.00  0.00    +0.290 C 
ATOM     14  F   LIG    1        0.293   5.954   2.659  0.00  0.00    -0.200 F 
ATOM     15  F   LIG    1        0.182   6.138   0.384  0.00  0.00    -0.200 F 
ATOM     16  C   LIG    1       -0.413   4.051   1.391  0.00  0.00    +0.040 C 
ENDBRANCH   6   9
BRANCH   1  20
ATOM     17  C   LIG    1        3.618   3.772  -4.484  0.00  0.00    +0.080 A 
ATOM     18  C   LIG    1        4.641   3.433  -3.695  0.00  0.00    -0.070 A 
ATOM     19  S   LIG    1        4.022   2.379  -2.427  0.00  0.00    +0.120 S 
ATOM     20  C   LIG    1        2.450   2.491  -3.090  0.00  0.00    +0.050 A 
ATOM     21  N   LIG    1        2.460   3.251  -4.132  0.00  0.00    -0.460 NA
BRANCH  17  27
ATOM     22  C   LIG    1        6.654   5.090  -8.203  0.00  0.00    +0.020 C 
ATOM     23  C   LIG    1        5.294   5.343  -7.548  0.00  0.00    -0.060 C 
ATOM     24  C   LIG    1        5.209   6.803  -7.098  0.00  0.00    +0.010 C 
ATOM     25  C   LIG    1        3.849   7.055  -6.442  0.00  0.00    +0.010 C 
ATOM     26  C   LIG    1        3.690   6.137  -5.229  0.00  0.00    +0.010 C 
ATOM     27  C   LIG    1        3.775   4.677  -5.679  0.00  0.00    +0.080 C 
ATOM     28  C   LIG    1        4.181   5.054  -8.556  0.00  0.00    +0.020 C 
ATOM     29  C   LIG    1        5.135   4.425  -6.335  0.00  0.00    +0.020 C 
ENDBRANCH  17  27
ENDBRANCH   1  20
TORSDOF 3
