REMARK  Name = ZINCvU0000000IcX.0
REMARK                            x       y       z     vdW  Elec       q    Type
REMARK                         _______ _______ _______ _____ _____    ______ ____
ROOT
ATOM      1  N   LIG    1        3.624  -0.653  -0.036  0.00  0.00    -0.410 N 
ATOM      2  C   LIG    1        4.112  -1.452  -1.033  0.00  0.00    +0.150 A 
ATOM      3  N   LIG    1        5.287  -1.892  -0.639  0.00  0.00    -0.280 NA
ATOM      4  N   LIG    1        5.565  -1.426   0.525  0.00  0.00    -0.260 NA
ATOM      5  C   LIG    1        4.589  -0.655   0.947  0.00  0.00    +0.240 A 
ENDROOT
BRANCH   5   6
ATOM      6  C   LIG    1        4.535   0.070   2.233  0.00  0.00    -0.020 A 
ATOM      7  C   LIG    1        3.325   0.591   2.693  0.00  0.00    +0.020 A 
ATOM      8  C   LIG    1        3.281   1.267   3.896  0.00  0.00    +0.020 A 
ATOM      9  C   LIG    1        4.432   1.428   4.645  0.00  0.00    +0.030 A 
ATOM     10  C   LIG    1        5.635   0.912   4.195  0.00  0.00    -0.080 A 
ATOM     11  C   LIG    1        6.885   1.091   5.018  0.00  0.00    +0.090 C 
ATOM     12  C   LIG    1        5.692   0.230   2.997  0.00  0.00    +0.070 A 
ENDBRANCH   5   6
BRANCH   1  16
ATOM     13  C   LIG    1       -0.017   1.383   0.010  0.00  0.00    +0.150 A 
ATOM     14  C   LIG    1        1.175   2.094   0.002  0.00  0.00    -0.060 A 
ATOM     15  C   LIG    1        2.380   1.420  -0.013  0.00  0.00    +0.080 A 
ATOM     16  C   LIG    1        2.400   0.032  -0.021  0.00  0.00    +0.060 A 
ATOM     17  C   LIG    1        1.207  -0.678  -0.013  0.00  0.00    +0.080 A 
ATOM     18  C   LIG    1        0.002  -0.004   0.002  0.00  0.00    +0.010 A 
BRANCH  13  20
ATOM     19  C   LIG    1       -1.148   3.474   0.026  0.00  0.00    +0.250 C 
ATOM     20  O   LIG    1       -1.203   2.047   0.019  0.00  0.00    -0.310 OA
ENDBRANCH  13  20
ENDBRANCH   1  16
BRANCH   2  21
ATOM     21  S   LIG    1        3.315  -1.824  -2.560  0.00  0.00    +0.060 S 
BRANCH  21  22
ATOM     22  C   LIG    1        4.557  -2.908  -3.307  0.00  0.00    +0.040 C 
BRANCH  22  23
ATOM     23  C   LIG    1        4.134  -3.264  -4.709  0.00  0.00    -0.080 A 
ATOM     24  C   LIG    1        2.943  -3.932  -4.923  0.00  0.00    +0.020 A 
ATOM     25  C   LIG    1        2.554  -4.255  -6.210  0.00  0.00    +0.020 A 
ATOM     26  C   LIG    1        3.359  -3.919  -7.281  0.00  0.00    +0.020 A 
ATOM     27  C   LIG    1        4.553  -3.256  -7.066  0.00  0.00    +0.010 A 
ATOM     28  C   LIG    1        4.941  -2.929  -5.780  0.00  0.00    +0.040 A 
ENDBRANCH  22  23
BRANCH  22  29
ATOM     29  C   LIG    1        4.686  -4.165  -2.486  0.00  0.00    +0.380 C 
ATOM     30  O   LIG    1        5.762  -4.700  -2.366  0.00  0.00    -0.430 OA
ATOM     31  C   LIG    1        3.472  -4.755  -1.816  0.00  0.00    +0.070 C 
ENDBRANCH  22  29
ENDBRANCH  21  22
ENDBRANCH   2  21
TORSDOF 7
