REMARK  Name = ZINCpe000000ZHWf.0
REMARK                            x       y       z     vdW  Elec       q    Type
REMARK                         _______ _______ _______ _____ _____    ______ ____
ROOT
ATOM      1  N   LIG    1        2.073  -4.148  -1.221  0.00  0.00    -0.540 NA
ATOM      2  C   LIG    1        2.802  -4.671  -0.057  0.00  0.00    +0.190 C 
ATOM      3  C   LIG    1        2.732  -6.200  -0.059  0.00  0.00    +0.230 C 
ATOM      4  N   LIG    1        3.307  -6.712  -1.311  0.00  0.00    -0.460 N 
ATOM      5  C   LIG    1        2.578  -6.189  -2.474  0.00  0.00    +0.240 C 
ATOM      6  C   LIG    1        2.648  -4.660  -2.472  0.00  0.00    +0.190 C 
ENDROOT
BRANCH   4   7
ATOM      7  C   LIG    1        3.326  -8.096  -1.318  0.00  0.00    +0.530 A 
ATOM      8  N   LIG    1        2.726  -8.745  -2.305  0.00  0.00    -0.560 NA
ATOM      9  C   LIG    1        2.724 -10.069  -2.345  0.00  0.00    +0.380 A 
ATOM     10  C   LIG    1        3.358 -10.777  -1.341  0.00  0.00    -0.110 A 
ATOM     11  C   LIG    1        3.980 -10.065  -0.316  0.00  0.00    +0.430 A 
ATOM     12  N   LIG    1        3.948  -8.738  -0.341  0.00  0.00    -0.550 NA
BRANCH  11  13
ATOM     13  N   LIG    1        4.632 -10.739   0.718  0.00  0.00    -0.420 N 
ATOM     14  C   LIG    1        5.204 -10.171   1.828  0.00  0.00    +0.160 A 
ATOM     15  C   LIG    1        5.716 -11.177   2.561  0.00  0.00    +0.160 A 
ATOM     16  N   LIG    1        5.475 -12.329   1.917  0.00  0.00    -0.470 NA
ATOM     17  C   LIG    1        4.827 -12.081   0.812  0.00  0.00    +0.420 A 
ENDBRANCH  11  13
ENDBRANCH   4   7
BRANCH   1  18
ATOM     18  C   LIG    1        2.053  -2.679  -1.213  0.00  0.00    +0.190 C 
BRANCH  18  19
ATOM     19  C   LIG    1        1.230  -2.186  -0.021  0.00  0.00    +0.120 C 
BRANCH  19  23
ATOM     20  C   LIG    1        1.119   1.993   0.002  0.00  0.00    +0.210 A 
ATOM     21  C   LIG    1        2.327   1.318  -0.013  0.00  0.00    +0.230 A 
ATOM     22  N   LIG    1        2.345  -0.003  -0.020  0.00  0.00    -0.440 NA
ATOM     23  C   LIG    1        1.210  -0.680  -0.013  0.00  0.00    +0.080 A 
ATOM     24  C   LIG    1        0.002  -0.004   0.002  0.00  0.00    +0.230 A 
ATOM     25  N   LIG    1       -0.016   1.317   0.009  0.00  0.00    -0.440 NA
ENDBRANCH  19  23
ENDBRANCH  18  19
ENDBRANCH   1  18
TORSDOF 5
