REMARK  Name = ZINCqH0000033srR.0
REMARK                            x       y       z     vdW  Elec       q    Type
REMARK                         _______ _______ _______ _____ _____    ______ ____
ROOT
ATOM      1  C   LIG    1        6.917   1.277   0.828  0.00  0.00    +0.250 C 
ATOM      2  C   LIG    1        7.056  -0.230   0.603  0.00  0.00    +0.030 C 
ATOM      3  C   LIG    1        5.682  -0.894   0.721  0.00  0.00    +0.030 C 
ATOM      4  C   LIG    1        4.752  -0.329  -0.357  0.00  0.00    +0.260 C 
ATOM      5  N   LIG    1        4.726   1.135  -0.238  0.00  0.00    -0.620 N 
ATOM      6  C   LIG    1        3.556   1.795  -0.123  0.00  0.00    +0.710 C 
ATOM      7  N   LIG    1        2.403   1.106  -0.010  0.00  0.00    -0.680 N 
ATOM      8  H   LIG    1        2.421   0.139   0.058  0.00  0.00    +0.410 HD
ATOM      9  O   LIG    1        3.541   3.010  -0.121  0.00  0.00    -0.560 OA
ATOM     10  C   LIG    1        6.000   1.868  -0.254  0.00  0.00    +0.290 C 
ENDROOT
BRANCH   7  11
ATOM     11  C   LIG    1        1.181   1.787   0.010  0.00  0.00    +0.170 A 
ATOM     12  C   LIG    1        1.087   3.031   0.621  0.00  0.00    +0.060 A 
ATOM     13  C   LIG    1       -0.121   3.700   0.639  0.00  0.00    -0.060 A 
ATOM     14  C   LIG    1       -1.236   3.133   0.049  0.00  0.00    +0.050 A 
ATOM     15  C   LIG    1       -1.145   1.897  -0.565  0.00  0.00    -0.160 A 
ATOM     16  C   LIG    1       -0.225   5.049   1.302  0.00  0.00    +0.100 C 
ATOM     17  C   LIG    1        0.059   1.221  -0.581  0.00  0.00    +0.030 A 
BRANCH  15  18
ATOM     18  C   LIG    1       -2.361   1.286  -1.211  0.00  0.00    +0.510 C 
ATOM     19  F   LIG    1       -2.824   2.130  -2.226  0.00  0.00    -0.170 F 
ATOM     20  F   LIG    1       -3.365   1.118  -0.251  0.00  0.00    -0.170 F 
ATOM     21  F   LIG    1       -2.024   0.042  -1.756  0.00  0.00    -0.180 F 
ENDBRANCH  15  18
ENDBRANCH   7  11
BRANCH   1  23
ATOM     22  C   LIG    1        8.466   3.076   1.379  0.00  0.00    +0.650 C 
ATOM     23  N   LIG    1        8.236   1.908   0.746  0.00  0.00    -0.710 N 
ATOM     24  H   LIG    1        8.945   1.485   0.236  0.00  0.00    +0.410 HD
ATOM     25  O   LIG    1        7.578   3.605   2.017  0.00  0.00    -0.560 OA
BRANCH  22  26
ATOM     26  O   LIG    1        9.679   3.655   1.303  0.00  0.00    -0.370 OA
BRANCH  26  28
ATOM     27  C   LIG    1       11.285   5.414   1.809  0.00  0.00    +0.070 C 
ATOM     28  C   LIG    1        9.854   4.912   2.010  0.00  0.00    +0.220 C 
ENDBRANCH  26  28
ENDBRANCH  22  26
ENDBRANCH   1  23
TORSDOF 5
