REMARK  Name = ZINCvU00000005fo.0
REMARK                            x       y       z     vdW  Elec       q    Type
REMARK                         _______ _______ _______ _____ _____    ______ ____
ROOT
ATOM      1  C   LIG    1        2.381   3.905  -0.021  0.00  0.00    +0.080 A 
ATOM      2  C   LIG    1        1.165   3.215   0.194  0.00  0.00    -0.060 A 
ATOM      3  C   LIG    1       -0.051   3.873   0.399  0.00  0.00    +0.050 A 
ATOM      4  C   LIG    1       -1.185   3.140   0.600  0.00  0.00    +0.050 A 
ATOM      5  C   LIG    1       -1.148   1.748   0.598  0.00  0.00    +0.050 A 
ATOM      6  C   LIG    1        0.024   1.076   0.406  0.00  0.00    +0.050 A 
ATOM      7  C   LIG    1        1.202   1.798   0.197  0.00  0.00    -0.050 A 
ATOM      8  C   LIG    1        2.456   1.171  -0.016  0.00  0.00    +0.140 A 
ATOM      9  N   LIG    1        3.524   1.927  -0.206  0.00  0.00    -0.240 NA
ATOM     10  N   LIG    1        3.489   3.207  -0.208  0.00  0.00    -0.270 NA
ENDROOT
BRANCH   8  11
ATOM     11  C   LIG    1        2.568  -0.305  -0.025  0.00  0.00    -0.050 A 
ATOM     12  C   LIG    1        3.616  -0.932   0.649  0.00  0.00    +0.090 A 
ATOM     13  C   LIG    1        3.713  -2.308   0.642  0.00  0.00    -0.010 A 
ATOM     14  C   LIG    1        2.776  -3.067  -0.041  0.00  0.00    +0.110 A 
ATOM     15  C   LIG    1        1.736  -2.449  -0.716  0.00  0.00    -0.010 A 
ATOM     16  F   LIG    1        2.878  -4.414  -0.050  0.00  0.00    -0.130 F 
ATOM     17  C   LIG    1        1.627  -1.074  -0.711  0.00  0.00    +0.070 A 
ENDBRANCH   8  11
BRANCH   1  18
ATOM     18  S   LIG    1        2.419   5.666  -0.039  0.00  0.00    +0.050 S 
BRANCH  18  20
ATOM     19  C   LIG    1        4.993   5.422   0.844  0.00  0.00    +0.090 C 
ATOM     20  C   LIG    1        4.182   5.939  -0.346  0.00  0.00    +0.010 C 
BRANCH  20  21
ATOM     21  C   LIG    1        4.438   7.414  -0.525  0.00  0.00    +0.540 C 
ATOM     22  N   LIG    1        5.504   7.831  -1.236  0.00  0.00    -0.600 N 
ATOM     23  C   LIG    1        6.415   6.851  -1.834  0.00  0.00    +0.290 C 
ATOM     24  O   LIG    1        3.684   8.225  -0.030  0.00  0.00    -0.520 OA
BRANCH  22  25
ATOM     25  C   LIG    1        5.753   9.264  -1.411  0.00  0.00    +0.350 C 
BRANCH  25  26
ATOM     26  C   LIG    1        6.625   9.763  -0.287  0.00  0.00    -0.110 A 
ATOM     27  C   LIG    1        6.048  10.245   0.873  0.00  0.00    +0.040 A 
ATOM     28  C   LIG    1        6.847  10.699   1.906  0.00  0.00    +0.000 A 
ATOM     29  C   LIG    1        8.223  10.679   1.775  0.00  0.00    +0.010 A 
ATOM     30  C   LIG    1        8.800  10.201   0.612  0.00  0.00    +0.000 A 
ATOM     31  C   LIG    1        8.001   9.743  -0.418  0.00  0.00    +0.010 A 
ENDBRANCH  25  26
ENDBRANCH  22  25
ENDBRANCH  20  21
ENDBRANCH  18  20
ENDBRANCH   1  18
TORSDOF 6
