REMARK  Name = ZINCpk000000ozvy.1
REMARK                            x       y       z     vdW  Elec       q    Type
REMARK                         _______ _______ _______ _____ _____    ______ ____
ROOT
ATOM      1  N   LIG    1        3.182  11.837   2.676  0.00  0.00    -0.520 NA
ATOM      2  C   LIG    1        2.102  11.425   3.582  0.00  0.00    +0.180 C 
ATOM      3  C   LIG    1        1.998   9.898   3.592  0.00  0.00    +0.040 C 
ATOM      4  C   LIG    1        1.716   9.401   2.172  0.00  0.00    +0.220 C 
ATOM      5  C   LIG    1        2.828   9.885   1.238  0.00  0.00    +0.030 C 
ATOM      6  C   LIG    1        2.909  11.412   1.297  0.00  0.00    +0.180 C 
ENDROOT
BRANCH   4   7
ATOM      7  N   LIG    1        1.673   7.937   2.165  0.00  0.00    -0.730 N 
ATOM      8  H   LIG    1        2.147   7.434   2.846  0.00  0.00    +0.400 HD
ATOM      9  C   LIG    1        0.974   7.288   1.212  0.00  0.00    +0.520 C 
ATOM     10  O   LIG    1        0.382   7.916   0.360  0.00  0.00    -0.540 OA
BRANCH   9  11
ATOM     11  C   LIG    1        0.930   5.781   1.205  0.00  0.00    +0.070 C 
BRANCH  11  12
ATOM     12  C   LIG    1        0.077   5.302   0.029  0.00  0.00    +0.130 C 
BRANCH  12  13
ATOM     13  C   LIG    1        0.033   3.795   0.022  0.00  0.00    +0.130 A 
ATOM     14  C   LIG    1       -1.188   3.148   0.030  0.00  0.00    -0.030 A 
ATOM     15  C   LIG    1       -1.217   1.761   0.017  0.00  0.00    +0.070 A 
ATOM     16  C   LIG    1       -0.013   1.076   0.008  0.00  0.00    -0.040 A 
ATOM     17  C   LIG    1        1.170   1.792   0.001  0.00  0.00    +0.260 A 
ATOM     18  N   LIG    1        1.160   3.110   0.007  0.00  0.00    -0.480 NA
ENDBRANCH  12  13
ENDBRANCH  11  12
ENDBRANCH   9  11
ENDBRANCH   4   7
BRANCH   1  19
ATOM     19  C   LIG    1        3.402  13.288   2.746  0.00  0.00    +0.200 C 
BRANCH  19  21
ATOM     20  N   LIG    1        5.068  14.924   1.931  0.00  0.00    -0.620 N 
ATOM     21  C   LIG    1        4.664  13.641   2.001  0.00  0.00    +0.520 C 
ATOM     22  O   LIG    1        5.315  12.769   1.464  0.00  0.00    -0.520 OA
BRANCH  20  24
ATOM     23  C   LIG    1        5.957  15.561  -0.257  0.00  0.00    +0.010 C 
ATOM     24  C   LIG    1        6.294  15.267   1.206  0.00  0.00    +0.270 C 
ENDBRANCH  20  24
BRANCH  20  25
ATOM     25  C   LIG    1        4.282  15.977   2.579  0.00  0.00    +0.260 C 
ATOM     26  C   LIG    1        4.772  16.169   4.015  0.00  0.00    +0.020 C 
ENDBRANCH  20  25
ENDBRANCH  19  21
ENDBRANCH   1  19
TORSDOF 8
