REMARK  Name = ZINCbw0000000pvs.0
REMARK                            x       y       z     vdW  Elec       q    Type
REMARK                         _______ _______ _______ _____ _____    ______ ____
ROOT
ATOM      1  C   LIG    1        1.204  -0.696  -0.011  0.00  0.00    +0.090 A 
ATOM      2  C   LIG    1        2.371   0.020  -0.236  0.00  0.00    +0.260 A 
ATOM      3  N   LIG    1        2.364   1.338  -0.228  0.00  0.00    -0.430 NA
ATOM      4  C   LIG    1        1.261   2.026  -0.008  0.00  0.00    +0.260 A 
ATOM      5  C   LIG    1        0.058   1.382   0.225  0.00  0.00    -0.110 A 
ATOM      6 BR   LIG    1       -1.516   2.382   0.538  0.00  0.00    -0.030 Br
ATOM      7  C   LIG    1        0.021  -0.003   0.225  0.00  0.00    +0.010 A 
ENDROOT
BRANCH   1   8
ATOM      8  O   LIG    1        1.217  -2.055  -0.021  0.00  0.00    -0.300 OA
BRANCH   8  10
ATOM      9  C   LIG    1        0.048  -4.109  -0.529  0.00  0.00    +0.070 C 
ATOM     10  C   LIG    1       -0.044  -2.716   0.099  0.00  0.00    +0.140 C 
ATOM     11  C   LIG    1       -0.413  -2.848   1.578  0.00  0.00    +0.030 C 
ENDBRANCH   8  10
ENDBRANCH   1   8
TORSDOF 2
