REMARK  Name = ZINCtj00001yyws0.0
REMARK                            x       y       z     vdW  Elec       q    Type
REMARK                         _______ _______ _______ _____ _____    ______ ____
ROOT
ATOM      1  C   LIG    1       -1.011   0.729   2.122  0.00  0.00    +0.510 C 
ATOM      2  N   LIG    1       -0.785   1.478   1.024  0.00  0.00    -0.610 N 
ATOM      3  C   LIG    1       -0.423   0.845  -0.252  0.00  0.00    +0.240 C 
ATOM      4  C   LIG    1       -1.415   1.302  -1.328  0.00  0.00    +0.300 C 
ATOM      5  N   LIG    1       -1.528   2.767  -1.271  0.00  0.00    -0.610 N 
ATOM      6  C   LIG    1       -1.894   3.400   0.004  0.00  0.00    +0.300 C 
ATOM      7  C   LIG    1       -1.299   3.516  -2.368  0.00  0.00    +0.620 C 
ATOM      8  O   LIG    1       -0.891   2.993  -3.387  0.00  0.00    -0.510 OA
ATOM      9  C   LIG    1       -0.902   2.942   1.081  0.00  0.00    +0.310 C 
ATOM     10  O   LIG    1       -1.412   1.251   3.140  0.00  0.00    -0.470 OA
ENDROOT
BRANCH   7  11
ATOM     11  C   LIG    1       -1.543   4.969  -2.332  0.00  0.00    -0.000 A 
ATOM     12  N   LIG    1       -1.902   5.683  -1.287  0.00  0.00    -0.210 NA
ATOM     13  N   LIG    1       -2.036   6.926  -1.577  0.00  0.00    -0.410 N 
ATOM     14  H   LIG    1       -2.295   7.612  -0.942  0.00  0.00    +0.450 HD
ATOM     15  C   LIG    1       -1.767   7.159  -2.901  0.00  0.00    +0.070 A 
ATOM     16  C   LIG    1       -1.762   8.287  -3.715  0.00  0.00    +0.010 A 
ATOM     17  C   LIG    1       -1.433   8.166  -5.046  0.00  0.00    +0.060 A 
ATOM     18  C   LIG    1       -1.107   6.929  -5.587  0.00  0.00    +0.010 A 
ATOM     19  C   LIG    1       -1.107   5.807  -4.806  0.00  0.00    +0.090 A 
ATOM     20  C   LIG    1       -1.429   5.909  -3.456  0.00  0.00    -0.110 A 
ENDBRANCH   7  11
BRANCH   1  21
ATOM     21  C   LIG    1       -0.765  -0.758   2.084  0.00  0.00    +0.040 C 
ATOM     22  C   LIG    1       -1.854  -1.473   1.257  0.00  0.00    +0.160 C 
ATOM     23  C   LIG    1       -2.074  -2.799   1.954  0.00  0.00    -0.120 A 
ATOM     24  C   LIG    1       -2.681  -3.959   1.505  0.00  0.00    +0.040 A 
ATOM     25  C   LIG    1       -2.768  -5.063   2.331  0.00  0.00    +0.040 A 
ATOM     26  C   LIG    1       -2.247  -5.010   3.610  0.00  0.00    +0.040 A 
ATOM     27  C   LIG    1       -1.641  -3.853   4.060  0.00  0.00    +0.040 A 
ATOM     28  C   LIG    1       -1.553  -2.745   3.234  0.00  0.00    -0.120 A 
ATOM     29  C   LIG    1       -0.949  -1.381   3.484  0.00  0.00    +0.170 C 
BRANCH  21  30
ATOM     30  N   LIG    1        0.574  -1.049   1.554  0.00  0.00    -0.630 N 
ATOM     31  H   LIG    1        0.624  -0.762   0.588  0.00  0.00    +0.430 HD
ATOM     32  H   LIG    1        0.753  -2.040   1.620  0.00  0.00    +0.440 HD
ATOM     33  H   LIG    1        1.265  -0.546   2.091  0.00  0.00    +0.440 HD
ENDBRANCH  21  30
ENDBRANCH   1  21
TORSDOF 3
