REMARK  Name = ZINCkj000005lGuw.1
REMARK                            x       y       z     vdW  Elec       q    Type
REMARK                         _______ _______ _______ _____ _____    ______ ____
ROOT
ATOM      1  O   LIG    1        1.248   3.387  -2.013  0.00  0.00    -0.520 OA
ATOM      2  C   LIG    1        0.983   2.425  -2.701  0.00  0.00    +0.510 C 
ATOM      3  N   LIG    1        1.490   2.326  -3.946  0.00  0.00    -0.690 N 
ATOM      4  H   LIG    1        1.338   1.524  -4.470  0.00  0.00    +0.410 HD
ENDROOT
BRANCH   2   5
ATOM      5  C   LIG    1        0.086   1.339  -2.165  0.00  0.00    +0.160 C 
ATOM      6  C   LIG    1       -1.198   1.263  -3.013  0.00  0.00    +0.090 C 
ATOM      7  C   LIG    1       -2.358   1.443  -1.996  0.00  0.00    +0.080 C 
ATOM      8  C   LIG    1       -1.686   1.045  -0.671  0.00  0.00    +0.180 C 
ATOM      9  C   LIG    1       -2.349   1.653   0.557  0.00  0.00    +0.070 C 
ATOM     10  C   LIG    1       -1.510   1.250   1.781  0.00  0.00    +0.040 C 
ATOM     11  C   LIG    1       -0.053   1.678   1.599  0.00  0.00    +0.050 C 
ATOM     12  C   LIG    1        0.505   1.153   0.267  0.00  0.00    +0.260 C 
ATOM     13  N   LIG    1       -0.340   1.663  -0.803  0.00  0.00    -0.380 N 
ATOM     14  H   LIG    1       -0.426   2.664  -0.711  0.00  0.00    +0.430 HD
ENDBRANCH   2   5
BRANCH   3  15
ATOM     15  C   LIG    1        2.272   3.431  -4.508  0.00  0.00    +0.180 C 
ATOM     16  C   LIG    1        2.686   3.079  -5.934  0.00  0.00    +0.070 C 
ATOM     17  C   LIG    1        3.310   1.681  -5.967  0.00  0.00    +0.110 C 
ATOM     18  S   LIG    1        4.823   1.691  -4.959  0.00  0.00    -0.240 S 
ATOM     19  C   LIG    1        4.226   2.352  -3.375  0.00  0.00    +0.100 C 
ATOM     20  C   LIG    1        3.498   3.674  -3.634  0.00  0.00    +0.060 C 
BRANCH  15  21
ATOM     21  C   LIG    1        1.411   4.695  -4.532  0.00  0.00    +0.200 C 
BRANCH  21  22
ATOM     22  O   LIG    1        0.194   4.430  -5.232  0.00  0.00    -0.570 OA
ATOM     23  H   LIG    1       -0.403   5.189  -5.286  0.00  0.00    +0.390 HD
ENDBRANCH  21  22
ENDBRANCH  15  21
ENDBRANCH   3  15
TORSDOF 4
