REMARK  Name = ZINCkj000005lGuw.0
REMARK                            x       y       z     vdW  Elec       q    Type
REMARK                         _______ _______ _______ _____ _____    ______ ____
ROOT
ATOM      1  O   LIG    1       -3.229   2.777   1.317  0.00  0.00    -0.510 OA
ATOM      2  C   LIG    1       -3.270   3.864   0.780  0.00  0.00    +0.520 C 
ATOM      3  N   LIG    1       -4.455   4.477   0.589  0.00  0.00    -0.690 N 
ATOM      4  H   LIG    1       -4.483   5.376   0.227  0.00  0.00    +0.410 HD
ENDROOT
BRANCH   2   5
ATOM      5  C   LIG    1       -1.996   4.529   0.327  0.00  0.00    +0.160 C 
ATOM      6  C   LIG    1       -2.011   4.745  -1.211  0.00  0.00    +0.100 C 
ATOM      7  C   LIG    1       -1.611   3.331  -1.716  0.00  0.00    +0.090 C 
ATOM      8  C   LIG    1       -0.588   2.873  -0.649  0.00  0.00    +0.150 C 
ATOM      9  C   LIG    1       -0.629   1.366  -0.521  0.00  0.00    +0.060 C 
ATOM     10  C   LIG    1       -0.018   0.926   0.810  0.00  0.00    +0.030 C 
ATOM     11  C   LIG    1       -0.865   1.530   1.930  0.00  0.00    +0.070 C 
ATOM     12  C   LIG    1       -0.870   3.038   1.843  0.00  0.00    +0.230 C 
ATOM     13  N   LIG    1       -0.835   3.635   0.549  0.00  0.00    -0.340 N 
ATOM     14  H   LIG    1       -0.056   4.276   0.599  0.00  0.00    +0.420 HD
ENDBRANCH   2   5
BRANCH   3  15
ATOM     15  C   LIG    1       -5.701   3.784   0.929  0.00  0.00    +0.180 C 
ATOM     16  C   LIG    1       -6.885   4.680   0.577  0.00  0.00    +0.070 C 
ATOM     17  C   LIG    1       -6.673   6.080   1.159  0.00  0.00    +0.110 C 
ATOM     18  S   LIG    1       -6.614   5.960   2.971  0.00  0.00    -0.240 S 
ATOM     19  C   LIG    1       -5.337   4.694   3.232  0.00  0.00    +0.100 C 
ATOM     20  C   LIG    1       -5.700   3.450   2.417  0.00  0.00    +0.050 C 
BRANCH  15  21
ATOM     21  C   LIG    1       -5.793   2.488   0.121  0.00  0.00    +0.190 C 
BRANCH  21  22
ATOM     22  O   LIG    1       -5.653   2.783  -1.270  0.00  0.00    -0.570 OA
ATOM     23  H   LIG    1       -5.701   2.006  -1.843  0.00  0.00    +0.390 HD
ENDBRANCH  21  22
ENDBRANCH  15  21
ENDBRANCH   3  15
TORSDOF 4
