REMARK  Name = ZINCrH00000tj18C.0
REMARK                            x       y       z     vdW  Elec       q    Type
REMARK                         _______ _______ _______ _____ _____    ______ ____
ROOT
ATOM      1  C   LIG    1        2.124  -5.548  -1.841  0.00  0.00    +0.330 C 
ATOM      2  N   LIG    1        2.627  -4.889  -0.632  0.00  0.00    -0.540 N 
ATOM      3  C   LIG    1        2.433  -5.470   0.561  0.00  0.00    +0.590 C 
ATOM      4  N   LIG    1        2.856  -4.920   1.710  0.00  0.00    -0.580 N 
ATOM      5  C   LIG    1        3.574  -3.644   1.724  0.00  0.00    +0.320 C 
ATOM      6  C   LIG    1        3.119  -2.798   0.530  0.00  0.00    -0.010 C 
ATOM      7  C   LIG    1        2.595  -5.611   2.975  0.00  0.00    +0.340 C 
ATOM      8  S   LIG    1        1.614  -6.972   0.622  0.00  0.00    -0.620 S 
ATOM      9  C   LIG    1        3.331  -3.607  -0.754  0.00  0.00    +0.320 C 
ENDROOT
BRANCH   9  10
ATOM     10  C   LIG    1        4.803  -3.860  -0.953  0.00  0.00    -0.100 A 
ATOM     11  C   LIG    1        5.601  -2.887  -1.526  0.00  0.00    +0.020 A 
ATOM     12  C   LIG    1        6.952  -3.117  -1.704  0.00  0.00    +0.000 A 
ATOM     13  C   LIG    1        7.504  -4.324  -1.319  0.00  0.00    +0.010 A 
ATOM     14  C   LIG    1        6.706  -5.300  -0.751  0.00  0.00    +0.000 A 
ATOM     15  C   LIG    1        5.355  -5.068  -0.569  0.00  0.00    +0.040 A 
ENDBRANCH   9  10
BRANCH   5  16
ATOM     16  C   LIG    1        3.266  -2.900   3.025  0.00  0.00    +0.420 C 
ATOM     17  F   LIG    1        3.900  -1.652   3.009  0.00  0.00    -0.140 F 
ATOM     18  F   LIG    1        3.733  -3.646   4.112  0.00  0.00    -0.160 F 
ATOM     19  F   LIG    1        1.884  -2.719   3.143  0.00  0.00    -0.150 F 
ENDBRANCH   5  16
BRANCH   6  20
ATOM     20  C   LIG    1        1.659  -2.457   0.678  0.00  0.00    +0.420 C 
ATOM     21  O   LIG    1        0.813  -3.198   0.221  0.00  0.00    -0.410 OA
BRANCH  20  22
ATOM     22  C   LIG    1        1.275  -1.274   1.348  0.00  0.00    -0.330 A 
ATOM     23  C   LIG    1       -0.016  -0.855   1.546  0.00  0.00    +0.130 A 
ATOM     24  C   LIG    1       -0.101   0.332   2.229  0.00  0.00    -0.010 A 
ATOM     25  C   LIG    1        1.074   0.872   2.581  0.00  0.00    -0.050 A 
ATOM     26  S   LIG    1        2.374  -0.103   2.062  0.00  0.00    +0.240 S 
ENDBRANCH  20  22
ENDBRANCH   6  20
BRANCH   5  27
ATOM     27  O   LIG    1        4.979  -3.884   1.632  0.00  0.00    -0.500 OA
ATOM     28  H   LIG    1        5.336  -4.415   2.357  0.00  0.00    +0.390 HD
ENDBRANCH   5  27
TORSDOF 5
