REMARK  Name = ZINCnE000008J5Tc.1
REMARK                            x       y       z     vdW  Elec       q    Type
REMARK                         _______ _______ _______ _____ _____    ______ ____
ROOT
ATOM      1  C   LIG    1        2.443   1.337  -0.009  0.00  0.00    +0.520 C 
ATOM      2  O   LIG    1        2.440   0.126  -0.106  0.00  0.00    -0.520 OA
ENDROOT
BRANCH   1   3
ATOM      3  C   LIG    1        1.171   2.078   0.004  0.00  0.00    -0.180 A 
ATOM      4  C   LIG    1        1.171   3.476  -0.008  0.00  0.00    +0.170 A 
ATOM      5  C   LIG    1       -0.024   4.164   0.004  0.00  0.00    -0.100 A 
ATOM      6  C   LIG    1       -1.228   3.477   0.030  0.00  0.00    +0.130 A 
ATOM      7  C   LIG    1       -1.244   2.096   0.036  0.00  0.00    -0.120 A 
ATOM      8 CL   LIG    1       -2.759   1.247   0.061  0.00  0.00    -0.050 Cl
ATOM      9 CL   LIG    1       -0.020   5.900  -0.011  0.00  0.00    -0.060 Cl
ATOM     10  C   LIG    1       -0.050   1.385   0.029  0.00  0.00    +0.290 A 
BRANCH  10  11
ATOM     11  N   LIG    1       -0.064  -0.004   0.041  0.00  0.00    -0.850 N 
ATOM     12  H   LIG    1       -0.837  -0.484  -0.296  0.00  0.00    +0.400 HD
ATOM     13  H   LIG    1        0.699  -0.494   0.387  0.00  0.00    +0.420 HD
ENDBRANCH  10  11
ENDBRANCH   1   3
BRANCH   1  14
ATOM     14  O   LIG    1        3.612   2.002   0.088  0.00  0.00    -0.320 OA
BRANCH  14  15
ATOM     15  C   LIG    1        4.827   1.207   0.068  0.00  0.00    +0.270 C 
BRANCH  15  17
ATOM     16  N   LIG    1        7.266   1.595   0.189  0.00  0.00    -0.660 NA
ATOM     17  C   LIG    1        6.023   2.115   0.185  0.00  0.00    +0.450 C 
ATOM     18  O   LIG    1        5.868   3.315   0.276  0.00  0.00    -0.590 OA
BRANCH  16  23
ATOM     19  C   LIG    1       12.004   2.657   0.448  0.00  0.00    +0.110 C 
ATOM     20  C   LIG    1       10.531   2.971   0.419  0.00  0.00    +0.090 A 
ATOM     21  C   LIG    1       10.056   4.215   0.502  0.00  0.00    -0.350 A 
ATOM     22  S   LIG    1        8.298   4.136   0.423  0.00  0.00    +0.040 S 
ATOM     23  C   LIG    1        8.370   2.433   0.297  0.00  0.00    +0.340 A 
ATOM     24  C   LIG    1       10.881   5.470   0.633  0.00  0.00    +0.110 C 
ATOM     25  N   LIG    1        9.604   2.037   0.310  0.00  0.00    -0.560 NA
ENDBRANCH  16  23
ENDBRANCH  15  17
ENDBRANCH  14  15
ENDBRANCH   1  14
TORSDOF 6
