REMARK  Name = ZINCwl0000000tQZ.0
REMARK                            x       y       z     vdW  Elec       q    Type
REMARK                         _______ _______ _______ _____ _____    ______ ____
ROOT
ATOM      1  C   LIG    1       -2.304   1.752   1.543  0.00  0.00    +0.240 C 
ATOM      2  C   LIG    1       -3.173   1.515   0.290  0.00  0.00    +0.090 C 
ATOM      3  C   LIG    1       -3.994   2.827   0.184  0.00  0.00    +0.180 C 
ATOM      4  C   LIG    1       -2.963   3.878   0.667  0.00  0.00    +0.240 C 
ATOM      5  N   LIG    1       -2.215   3.205   1.745  0.00  0.00    -0.590 N 
ATOM      6  C   LIG    1       -1.559   3.821   2.748  0.00  0.00    +0.540 C 
ATOM      7  O   LIG    1       -0.974   3.164   3.583  0.00  0.00    -0.510 OA
ENDROOT
BRANCH   6   8
ATOM      8  C   LIG    1       -1.551   5.325   2.833  0.00  0.00    +0.180 C 
ATOM      9  C   LIG    1       -0.806   5.901   1.625  0.00  0.00    +0.030 C 
ATOM     10  C   LIG    1       -0.750   7.426   1.749  0.00  0.00    +0.040 C 
ATOM     11  C   LIG    1       -0.080   7.796   3.076  0.00  0.00    +0.030 C 
ATOM     12  C   LIG    1       -0.854   7.147   4.227  0.00  0.00    +0.150 C 
ATOM     13  O   LIG    1       -0.894   5.732   4.035  0.00  0.00    -0.370 OA
BRANCH  12  14
ATOM     14  C   LIG    1       -0.157   7.463   5.552  0.00  0.00    +0.300 C 
BRANCH  14  15
ATOM     15  N   LIG    1       -0.899   6.840   6.657  0.00  0.00    -0.640 N 
ATOM     16  H   LIG    1       -0.928   5.841   6.521  0.00  0.00    +0.440 HD
ATOM     17  H   LIG    1       -1.840   7.204   6.677  0.00  0.00    +0.430 HD
ATOM     18  H   LIG    1       -0.439   7.048   7.530  0.00  0.00    +0.440 HD
ENDBRANCH  14  15
ENDBRANCH  12  14
ENDBRANCH   6   8
BRANCH   1  21
ATOM     19  N   LIG    1       -0.771  -0.143   1.121  0.00  0.00    -0.720 N 
ATOM     20  H   LIG    1       -1.545  -0.728   1.115  0.00  0.00    +0.400 HD
ATOM     21  C   LIG    1       -0.926   1.179   1.327  0.00  0.00    +0.510 C 
ATOM     22  O   LIG    1        0.042   1.910   1.334  0.00  0.00    -0.520 OA
BRANCH  19  23
ATOM     23  C   LIG    1        0.568  -0.698   0.905  0.00  0.00    +0.320 C 
BRANCH  23  27
ATOM     24  C   LIG    1        0.281  -4.925   0.325  0.00  0.00    +0.000 A 
ATOM     25  C   LIG    1        0.207  -4.062  -0.768  0.00  0.00    +0.030 A 
ATOM     26  C   LIG    1        0.300  -2.699  -0.575  0.00  0.00    +0.040 A 
ATOM     27  C   LIG    1        0.467  -2.188   0.700  0.00  0.00    -0.110 A 
ATOM     28  C   LIG    1        0.546  -3.039   1.788  0.00  0.00    +0.040 A 
ATOM     29  C   LIG    1        0.449  -4.404   1.609  0.00  0.00    +0.030 A 
BRANCH  24  32
ATOM     30  C   LIG    1        2.163  -6.976   1.549  0.00  0.00    +0.160 C 
ATOM     31  C   LIG    1        1.001  -7.321   0.654  0.00  0.00    +0.080 A 
ATOM     32  C   LIG    1        0.181  -6.387   0.125  0.00  0.00    -0.200 A 
ATOM     33  S   LIG    1       -1.024  -7.221  -0.853  0.00  0.00    +0.140 S 
ATOM     34  C   LIG    1       -0.320  -8.727  -0.454  0.00  0.00    +0.220 A 
ATOM     35  N   LIG    1        0.695  -8.556   0.325  0.00  0.00    -0.470 NA
ENDBRANCH  24  32
ENDBRANCH  23  27
ENDBRANCH  19  23
ENDBRANCH   1  21
BRANCH   3  36
ATOM     36  O   LIG    1       -5.132   2.791   1.046  0.00  0.00    -0.550 OA
ATOM     37  H   LIG    1       -5.621   3.624   1.087  0.00  0.00    +0.380 HD
ENDBRANCH   3  36
TORSDOF 8
