REMARK  Name = ZINCtV00000L6jBd.0
REMARK                            x       y       z     vdW  Elec       q    Type
REMARK                         _______ _______ _______ _____ _____    ______ ____
ROOT
ATOM      1 BR   LIG    1        8.084   0.539  -2.908  0.00  0.00    -0.040 Br
ATOM      2  C   LIG    1        7.228   0.894  -1.259  0.00  0.00    -0.120 A 
ATOM      3  C   LIG    1        7.878   0.618  -0.070  0.00  0.00    +0.100 A 
ATOM      4  C   LIG    1        7.256   0.875   1.137  0.00  0.00    -0.200 A 
ATOM      5  C   LIG    1        5.981   1.419   1.155  0.00  0.00    +0.170 A 
ATOM      6  C   LIG    1        5.327   1.689  -0.040  0.00  0.00    -0.100 A 
ATOM      7  O   LIG    1        5.357   1.679   2.335  0.00  0.00    -0.310 OA
ATOM      8  C   LIG    1        5.898   1.058   3.504  0.00  0.00    +0.390 C 
ATOM      9  O   LIG    1        7.319   1.243   3.505  0.00  0.00    -0.370 OA
ATOM     10  C   LIG    1        7.972   0.566   2.427  0.00  0.00    +0.300 C 
ATOM     11  C   LIG    1        5.952   1.428  -1.243  0.00  0.00    +0.120 A 
ENDROOT
BRANCH   8  12
ATOM     12  C   LIG    1        5.304   1.692   4.735  0.00  0.00    -0.090 A 
ATOM     13  C   LIG    1        4.374   2.707   4.609  0.00  0.00    +0.050 A 
ATOM     14  C   LIG    1        3.826   3.286   5.739  0.00  0.00    +0.010 A 
ATOM     15  C   LIG    1        4.216   2.857   6.994  0.00  0.00    +0.020 A 
ATOM     16  C   LIG    1        5.150   1.846   7.120  0.00  0.00    +0.010 A 
ATOM     17  C   LIG    1        5.694   1.264   5.990  0.00  0.00    +0.040 A 
ENDBRANCH   8  12
BRANCH   6  18
ATOM     18  C   LIG    1        3.937   2.271  -0.023  0.00  0.00    +0.150 C 
BRANCH  18  19
ATOM     19  S   LIG    1        2.719   0.927  -0.019  0.00  0.00    -0.090 S 
BRANCH  19  20
ATOM     20  C   LIG    1        1.181   1.786   0.000  0.00  0.00    -0.080 A 
ATOM     21  C   LIG    1        1.161   3.175   0.008  0.00  0.00    +0.000 A 
ATOM     22  C   LIG    1       -0.046   3.849   0.025  0.00  0.00    +0.050 A 
ATOM     23  C   LIG    1       -1.239   3.143   0.033  0.00  0.00    +0.050 A 
ATOM     24  O   LIG    1       -2.418   3.825   0.054  0.00  0.00    -0.310 OA
ATOM     25  C   LIG    1       -3.591   3.093  -0.315  0.00  0.00    +0.220 C 
ATOM     26  C   LIG    1       -3.567   1.744   0.417  0.00  0.00    +0.220 C 
ATOM     27  O   LIG    1       -2.383   1.042   0.023  0.00  0.00    -0.310 OA
ATOM     28  C   LIG    1       -1.222   1.752   0.017  0.00  0.00    +0.070 A 
ATOM     29  C   LIG    1       -0.013   1.076   0.008  0.00  0.00    +0.040 A 
ENDBRANCH  19  20
ENDBRANCH  18  19
ENDBRANCH   6  18
TORSDOF 4
