REMARK  Name = ZINCrD000003XK5w.0
REMARK                            x       y       z     vdW  Elec       q    Type
REMARK                         _______ _______ _______ _____ _____    ______ ____
ROOT
ATOM      1  C   LIG    1       -1.647   3.020  -0.386  0.00  0.00    +0.250 C 
ATOM      2  C   LIG    1       -1.998   4.452  -0.801  0.00  0.00    +0.310 C 
ATOM      3  N   LIG    1       -1.275   4.776  -2.039  0.00  0.00    -0.610 N 
ATOM      4  C   LIG    1       -1.411   3.877  -3.193  0.00  0.00    +0.280 C 
ATOM      5  C   LIG    1       -1.066   2.452  -2.751  0.00  0.00    +0.040 C 
ATOM      6  C   LIG    1       -0.502   5.878  -2.114  0.00  0.00    +0.590 C 
ATOM      7  O   LIG    1       -0.451   6.650  -1.175  0.00  0.00    -0.520 OA
ATOM      8  C   LIG    1       -1.936   2.070  -1.550  0.00  0.00    +0.000 C 
ENDROOT
BRANCH   6   9
ATOM      9  C   LIG    1        0.281   6.147  -3.332  0.00  0.00    -0.230 A 
ATOM     10  C   LIG    1       -0.130   6.005  -4.625  0.00  0.00    +0.220 A 
ATOM     11  O   LIG    1        0.879   6.353  -5.430  0.00  0.00    -0.170 OA
ATOM     12  C   LIG    1        1.954   6.723  -4.717  0.00  0.00    +0.180 A 
ATOM     13  C   LIG    1        1.668   6.630  -3.409  0.00  0.00    -0.010 A 
ENDBRANCH   6   9
BRANCH   1  15
ATOM     14  C   LIG    1        0.179   3.267   1.209  0.00  0.00    +0.600 C 
ATOM     15  N   LIG    1       -0.226   2.947  -0.036  0.00  0.00    -0.720 N 
ATOM     16  H   LIG    1        0.423   2.668  -0.701  0.00  0.00    +0.400 HD
ATOM     17  O   LIG    1       -0.635   3.617   2.042  0.00  0.00    -0.520 OA
BRANCH  14  24
ATOM     18  C   LIG    1        2.385   5.662   0.923  0.00  0.00    +0.120 C 
ATOM     19  C   LIG    1        2.610   4.262   1.435  0.00  0.00    -0.140 A 
ATOM     20  C   LIG    1        3.766   3.736   1.868  0.00  0.00    +0.170 A 
ATOM     21  O   LIG    1        3.558   2.464   2.240  0.00  0.00    -0.170 OA
ATOM     22  C   LIG    1        2.279   2.119   2.065  0.00  0.00    +0.050 A 
ATOM     23  C   LIG    1        1.679   0.771   2.374  0.00  0.00    +0.190 C 
ATOM     24  C   LIG    1        1.608   3.194   1.561  0.00  0.00    -0.240 A 
ENDBRANCH  14  24
ENDBRANCH   1  15
BRANCH   8  25
ATOM     25  C   LIG    1       -1.619   0.634  -1.127  0.00  0.00    +0.460 C 
ATOM     26  F   LIG    1       -0.269   0.540  -0.772  0.00  0.00    -0.180 F 
ATOM     27  F   LIG    1       -1.883  -0.235  -2.192  0.00  0.00    -0.180 F 
ATOM     28  F   LIG    1       -2.415   0.284  -0.032  0.00  0.00    -0.180 F 
ENDBRANCH   8  25
TORSDOF 4
