REMARK  Name = ZINCvU0000000EU5.0
REMARK                            x       y       z     vdW  Elec       q    Type
REMARK                         _______ _______ _______ _____ _____    ______ ____
ROOT
ATOM      1  C   LIG    1        1.179  -4.839  -0.061  0.00  0.00    +0.600 C 
ATOM      2  N   LIG    1       -0.007  -4.205   0.033  0.00  0.00    -0.670 N 
ATOM      3  H   LIG    1       -0.830  -4.717   0.062  0.00  0.00    +0.410 HD
ATOM      4  O   LIG    1        2.214  -4.203  -0.012  0.00  0.00    -0.520 OA
ENDROOT
BRANCH   2   5
ATOM      5  C   LIG    1       -0.050  -2.806   0.089  0.00  0.00    +0.120 A 
ATOM      6  C   LIG    1       -1.092  -2.119  -0.519  0.00  0.00    +0.040 A 
ATOM      7  C   LIG    1       -1.138  -0.740  -0.459  0.00  0.00    -0.040 A 
ATOM      8  C   LIG    1       -0.137  -0.040   0.199  0.00  0.00    +0.130 A 
ATOM      9  C   LIG    1        0.905  -0.726   0.807  0.00  0.00    -0.050 A 
ATOM     10 CL   LIG    1        2.153   0.150   1.637  0.00  0.00    -0.050 Cl
ATOM     11  C   LIG    1        0.949  -2.106   0.752  0.00  0.00    +0.090 A 
BRANCH   8  12
ATOM     12  O   LIG    1       -0.180   1.318   0.253  0.00  0.00    -0.300 OA
BRANCH  12  13
ATOM     13  C   LIG    1       -1.281   1.959  -0.395  0.00  0.00    +0.270 C 
BRANCH  13  14
ATOM     14  C   LIG    1       -1.161   3.452  -0.231  0.00  0.00    -0.150 A 
ATOM     15  C   LIG    1       -1.741   4.088   0.856  0.00  0.00    +0.090 A 
ATOM     16  C   LIG    1       -1.599   5.463   0.969  0.00  0.00    -0.040 A 
ATOM     17  C   LIG    1       -0.901   6.150  -0.005  0.00  0.00    +0.270 A 
ATOM     18  N   LIG    1       -0.367   5.512  -1.029  0.00  0.00    -0.490 NA
ATOM     19  C   LIG    1       -0.476   4.205  -1.165  0.00  0.00    +0.290 A 
ENDBRANCH  13  14
ENDBRANCH  12  13
ENDBRANCH   8  12
ENDBRANCH   2   5
BRANCH   1  22
ATOM     20  C   LIG    1        3.779  -6.595  -0.321  0.00  0.00    +0.170 C 
ATOM     21  C   LIG    1        2.354  -7.084  -0.339  0.00  0.00    +0.170 A 
ATOM     22  C   LIG    1        1.220  -6.303  -0.224  0.00  0.00    -0.300 A 
ATOM     23  C   LIG    1        0.107  -7.171  -0.298  0.00  0.00    +0.290 A 
ATOM     24  N   LIG    1        0.552  -8.389  -0.441  0.00  0.00    -0.280 NA
ATOM     25  N   LIG    1        1.951  -8.361  -0.466  0.00  0.00    -0.310 N 
BRANCH  25  26
ATOM     26  C   LIG    1        2.791  -9.475  -0.605  0.00  0.00    +0.130 A 
ATOM     27  C   LIG    1        2.476 -10.474  -1.516  0.00  0.00    +0.080 A 
ATOM     28  C   LIG    1        3.307 -11.568  -1.656  0.00  0.00    +0.010 A 
ATOM     29  C   LIG    1        4.449 -11.674  -0.879  0.00  0.00    +0.110 A 
ATOM     30  C   LIG    1        4.762 -10.682   0.035  0.00  0.00    +0.020 A 
ATOM     31  F   LIG    1        5.258 -12.748  -1.012  0.00  0.00    -0.130 F 
ATOM     32  C   LIG    1        3.936  -9.584   0.173  0.00  0.00    +0.050 A 
ENDBRANCH  25  26
ENDBRANCH   1  22
TORSDOF 6
