REMARK  Name = ZINCqH0000050eiM.0
REMARK                            x       y       z     vdW  Elec       q    Type
REMARK                         _______ _______ _______ _____ _____    ______ ____
ROOT
ATOM      1  N   LIG    1       -1.522   2.553   0.576  0.00  0.00    -0.550 N 
ATOM      2  C   LIG    1       -0.792   3.818   0.429  0.00  0.00    +0.310 C 
ATOM      3  C   LIG    1        0.687   3.478   0.719  0.00  0.00    +0.010 C 
ATOM      4  C   LIG    1        0.740   1.973   0.368  0.00  0.00    +0.100 C 
ATOM      5  C   LIG    1       -0.686   1.501   0.545  0.00  0.00    +0.520 C 
ATOM      6  O   LIG    1       -1.027   0.341   0.640  0.00  0.00    -0.500 OA
ENDROOT
BRANCH   1  10
ATOM      7  C   LIG    1       -5.506  -0.214   1.377  0.00  0.00    +0.100 C 
ATOM      8  C   LIG    1       -4.867   1.127   1.121  0.00  0.00    -0.090 A 
ATOM      9  C   LIG    1       -3.498   1.220   0.968  0.00  0.00    +0.030 A 
ATOM     10  C   LIG    1       -2.910   2.456   0.732  0.00  0.00    +0.160 A 
ATOM     11  C   LIG    1       -3.699   3.596   0.658  0.00  0.00    +0.010 A 
ATOM     12  C   LIG    1       -5.069   3.497   0.807  0.00  0.00    +0.020 A 
ATOM     13  C   LIG    1       -5.654   2.264   1.041  0.00  0.00    +0.070 A 
ATOM     14  F   LIG    1       -6.993   2.170   1.192  0.00  0.00    -0.140 F 
ENDBRANCH   1  10
BRANCH   3  15
ATOM     15  C   LIG    1        1.017   3.704   2.172  0.00  0.00    +0.520 C 
ATOM     16  N   LIG    1        2.274   3.507   2.616  0.00  0.00    -0.610 N 
ATOM     17  C   LIG    1        3.339   3.163   1.671  0.00  0.00    +0.280 C 
ATOM     18  O   LIG    1        0.151   4.063   2.942  0.00  0.00    -0.520 OA
BRANCH  16  19
ATOM     19  C   LIG    1        2.576   3.638   4.044  0.00  0.00    +0.350 C 
BRANCH  19  20
ATOM     20  C   LIG    1        2.260   2.341   4.745  0.00  0.00    -0.110 A 
ATOM     21  C   LIG    1        1.056   2.188   5.405  0.00  0.00    +0.060 A 
ATOM     22  C   LIG    1        0.765   0.997   6.044  0.00  0.00    +0.010 A 
ATOM     23  C   LIG    1        1.682  -0.037   6.031  0.00  0.00    +0.030 A 
ATOM     24  C   LIG    1        2.889   0.117   5.375  0.00  0.00    +0.020 A 
ATOM     25  C   LIG    1        3.179   1.307   4.731  0.00  0.00    -0.020 A 
ATOM     26 CL   LIG    1        4.695   1.501   3.908  0.00  0.00    -0.070 Cl
ENDBRANCH  19  20
ENDBRANCH  16  19
ENDBRANCH   3  15
TORSDOF 4
