REMARK  Name = ZINCpk00000yASZt.0
REMARK                            x       y       z     vdW  Elec       q    Type
REMARK                         _______ _______ _______ _____ _____    ______ ____
ROOT
ATOM      1  S   LIG    1        2.558   5.752  -0.800  0.00  0.00    +2.680 S 
ATOM      2  O   LIG    1        3.744   6.264  -0.208  0.00  0.00    -0.930 OA
ATOM      3  O   LIG    1        1.269   6.294  -0.550  0.00  0.00    -0.930 OA
ENDROOT
BRANCH   1   4
ATOM      4  C   LIG    1        2.476   4.049  -0.356  0.00  0.00    -0.680 A 
ATOM      5  C   LIG    1        3.630   3.368  -0.019  0.00  0.00    +0.130 A 
ATOM      6  C   LIG    1        3.570   2.031   0.328  0.00  0.00    +0.020 A 
ATOM      7  C   LIG    1        2.351   1.370   0.339  0.00  0.00    +0.110 A 
ATOM      8  O   LIG    1        2.308   0.053   0.679  0.00  0.00    -0.300 OA
ATOM      9  C   LIG    1        1.028  -0.476   1.041  0.00  0.00    +0.240 C 
ATOM     10  C   LIG    1        0.002  -0.004   0.002  0.00  0.00    +0.230 C 
ATOM     11  O   LIG    1       -0.017   1.427   0.010  0.00  0.00    -0.300 OA
ATOM     12  C   LIG    1        1.190   2.056   0.002  0.00  0.00    +0.030 A 
ATOM     13  C   LIG    1        1.258   3.396  -0.346  0.00  0.00    +0.150 A 
ENDBRANCH   1   4
BRANCH   1  15
ATOM     14  C   LIG    1        1.629   5.867  -3.337  0.00  0.00    +0.340 C 
ATOM     15  N   LIG    1        2.785   5.821  -2.439  0.00  0.00    -0.950 N 
ATOM     16  C   LIG    1        4.034   5.835  -2.946  0.00  0.00    +0.520 C 
ATOM     17  O   LIG    1        4.200   5.886  -4.146  0.00  0.00    -0.480 OA
BRANCH  16  18
ATOM     18  C   LIG    1        5.223   5.788  -2.022  0.00  0.00    +0.090 C 
BRANCH  18  19
ATOM     19  C   LIG    1        6.511   5.816  -2.847  0.00  0.00    +0.000 C 
ATOM     20  C   LIG    1        6.630   7.158  -3.586  0.00  0.00    +0.210 C 
ATOM     21  O   LIG    1        7.026   8.165  -2.645  0.00  0.00    -0.360 OA
ATOM     22  C   LIG    1        8.112   7.747  -1.800  0.00  0.00    +0.180 C 
ATOM     23  C   LIG    1        8.889   6.577  -2.438  0.00  0.00    +0.010 C 
ATOM     24  C   LIG    1        7.635   6.726  -0.749  0.00  0.00    +0.010 C 
ATOM     25  C   LIG    1        7.734   5.694  -1.914  0.00  0.00    -0.020 C 
ENDBRANCH  18  19
ENDBRANCH  16  18
ENDBRANCH   1  15
TORSDOF 4
