REMARK  Name = ZINCpe000000V2RC.0
REMARK                            x       y       z     vdW  Elec       q    Type
REMARK                         _______ _______ _______ _____ _____    ______ ____
ROOT
ATOM      1  N   LIG    1       -0.821   3.062   1.270  0.00  0.00    -0.460 N 
ATOM      2  C   LIG    1       -0.996   3.450   2.688  0.00  0.00    +0.180 C 
ATOM      3  C   LIG    1       -0.388   2.324   3.545  0.00  0.00    +0.170 C 
ATOM      4  C   LIG    1        0.112   1.270   2.531  0.00  0.00    +0.060 C 
ATOM      5  C   LIG    1       -0.729   1.579   1.267  0.00  0.00    +0.180 C 
ENDROOT
BRANCH   1   8
ATOM      6  C   LIG    1       -3.239   5.237  -0.422  0.00  0.00    +0.440 A 
ATOM      7  C   LIG    1       -2.157   4.854   0.364  0.00  0.00    -0.160 A 
ATOM      8  C   LIG    1       -1.888   3.495   0.498  0.00  0.00    +0.360 A 
ATOM      9  N   LIG    1       -2.667   2.617  -0.131  0.00  0.00    -0.550 NA
ATOM     10  C   LIG    1       -3.686   3.019  -0.863  0.00  0.00    +0.550 A 
ATOM     11  N   LIG    1       -3.973   4.296  -1.014  0.00  0.00    -0.590 NA
BRANCH   6  13
ATOM     12  C   LIG    1       -2.735   7.604   0.070  0.00  0.00    +0.290 C 
ATOM     13  N   LIG    1       -3.549   6.578  -0.586  0.00  0.00    -0.720 N 
ATOM     14  H   LIG    1       -4.305   6.837  -1.136  0.00  0.00    +0.410 HD
ENDBRANCH   6  13
ENDBRANCH   1   8
BRANCH   3  15
ATOM     15  O   LIG    1        0.703   2.822   4.321  0.00  0.00    -0.560 OA
ATOM     16  H   LIG    1        0.450   3.488   4.975  0.00  0.00    +0.380 HD
ENDBRANCH   3  15
BRANCH   5  17
ATOM     17  C   LIG    1       -0.013   1.086   0.008  0.00  0.00    +0.200 C 
BRANCH  17  18
ATOM     18  N   LIG    1       -0.723   1.572  -1.182  0.00  0.00    -0.650 NA
ATOM     19  H   LIG    1       -0.807   2.578  -1.167  0.00  0.00    +0.350 HD
BRANCH  18  20
ATOM     20  C   LIG    1       -0.062   1.117  -2.413  0.00  0.00    +0.140 C 
ATOM     21  C   LIG    1        1.114   2.063  -2.729  0.00  0.00    -0.010 C 
ATOM     22  C   LIG    1        2.047   1.371  -3.685  0.00  0.00    +0.200 C 
ATOM     23  O   LIG    1        1.750   1.665  -5.065  0.00  0.00    -0.390 OA
ATOM     24  C   LIG    1        0.358   1.689  -5.442  0.00  0.00    +0.230 C 
ATOM     25  C   LIG    1       -0.435   0.575  -4.817  0.00  0.00    +0.010 C 
ATOM     26  C   LIG    1       -1.046   1.082  -3.495  0.00  0.00    +0.310 C 
ATOM     27  F   LIG    1       -1.550   2.372  -3.693  0.00  0.00    -0.200 F 
ATOM     28  F   LIG    1       -2.098   0.236  -3.127  0.00  0.00    -0.190 F 
ENDBRANCH  18  20
ENDBRANCH  17  18
ENDBRANCH   5  17
TORSDOF 6
