REMARK  Name = ZINCkj00000y7GG9.0
REMARK                            x       y       z     vdW  Elec       q    Type
REMARK                         _______ _______ _______ _____ _____    ______ ____
ROOT
ATOM      1  C   LIG    1        5.556   2.138   1.110  0.00  0.00    +0.190 A 
ATOM      2  N   LIG    1        4.958   3.239   0.765  0.00  0.00    -0.350 NA
ATOM      3  O   LIG    1        3.757   3.072   0.733  0.00  0.00    +0.110 OA
ATOM      4  C   LIG    1        3.466   1.811   1.065  0.00  0.00    +0.150 A 
ATOM      5  N   LIG    1        4.604   1.209   1.312  0.00  0.00    -0.440 NA
ENDROOT
BRANCH   4   6
ATOM      6  C   LIG    1        2.091   1.198   1.146  0.00  0.00    +0.310 C 
ATOM      7  C   LIG    1        1.384   1.693   2.410  0.00  0.00    +0.270 C 
ATOM      8  N   LIG    1        0.023   1.139   2.456  0.00  0.00    -0.500 N 
ATOM      9  C   LIG    1       -0.724   1.581   1.270  0.00  0.00    +0.250 C 
ATOM     10  C   LIG    1       -0.013   1.086   0.008  0.00  0.00    +0.170 C 
ATOM     11  C   LIG    1       -0.754   1.593  -1.230  0.00  0.00    +0.110 C 
ATOM     12  H   LIG    1       -0.444   1.464   3.288  0.00  0.00    +0.440 HD
ATOM     13  H   LIG    1        0.071   0.131   2.468  0.00  0.00    +0.430 HD
ATOM     14  O   LIG    1        1.329   1.582  -0.002  0.00  0.00    -0.350 OA
ENDBRANCH   4   6
BRANCH   1  15
ATOM     15  C   LIG    1        7.042   1.941   1.263  0.00  0.00    +0.280 C 
BRANCH  15  22
ATOM     16  C   LIG    1        7.982   4.803   2.467  0.00  0.00    +0.160 C 
ATOM     17  C   LIG    1        7.859   3.499   3.212  0.00  0.00    +0.030 A 
ATOM     18  N   LIG    1        8.107   3.295   4.473  0.00  0.00    -0.360 NA
ATOM     19  O   LIG    1        7.921   2.141   4.782  0.00  0.00    +0.100 OA
ATOM     20  C   LIG    1        7.509   1.411   3.737  0.00  0.00    -0.010 A 
ATOM     21  C   LIG    1        7.179  -0.060   3.737  0.00  0.00    +0.210 C 
ATOM     22  C   LIG    1        7.448   2.255   2.679  0.00  0.00    -0.220 A 
ENDBRANCH  15  22
ENDBRANCH   1  15
TORSDOF 3
