REMARK  Name = ZINCkj00000y7Gg9.1
REMARK                            x       y       z     vdW  Elec       q    Type
REMARK                         _______ _______ _______ _____ _____    ______ ____
ROOT
ATOM      1  C   LIG    1       -5.411   1.831   2.659  0.00  0.00    +0.320 C 
ENDROOT
BRANCH   1   2
ATOM      2  C   LIG    1       -6.215   2.965   2.020  0.00  0.00    -0.030 C 
ATOM      3  C   LIG    1       -7.168   3.563   3.058  0.00  0.00    +0.080 C 
ATOM      4  C   LIG    1       -7.797   4.842   2.490  0.00  0.00    +0.190 C 
ATOM      5  C   LIG    1       -8.315   4.538   1.105  0.00  0.00    +0.310 C 
ATOM      6  N   LIG    1       -9.153   5.243   0.402  0.00  0.00    -0.470 N 
ATOM      7  C   LIG    1       -9.362   4.635  -0.777  0.00  0.00    +0.230 C 
ATOM      8  C   LIG    1       -8.621   3.509  -0.804  0.00  0.00    +0.250 C 
ATOM      9  H   LIG    1       -9.562   6.076   0.685  0.00  0.00    +0.460 HD
ATOM     10  N   LIG    1       -7.958   3.448   0.385  0.00  0.00    -0.400 N 
ATOM     11  C   LIG    1       -7.025   2.414   0.840  0.00  0.00    +0.330 C 
ENDBRANCH   1   2
BRANCH   1  13
ATOM     12  C   LIG    1       -3.187   1.888   1.666  0.00  0.00    +0.520 C 
ATOM     13  N   LIG    1       -4.417   1.338   1.703  0.00  0.00    -0.620 N 
ATOM     14  C   LIG    1       -4.760   0.248   0.786  0.00  0.00    +0.280 C 
ATOM     15  O   LIG    1       -2.870   2.720   2.489  0.00  0.00    -0.500 OA
BRANCH  12  21
ATOM     16  C   LIG    1       -3.256   1.518  -1.696  0.00  0.00    +0.050 C 
ATOM     17  C   LIG    1       -2.416   2.298  -0.682  0.00  0.00    -0.030 C 
ATOM     18  C   LIG    1       -0.986   2.523  -1.223  0.00  0.00    +0.020 C 
ATOM     19  C   LIG    1       -0.080   1.802  -0.200  0.00  0.00    +0.210 C 
ATOM     20  O   LIG    1       -0.852   1.768   1.020  0.00  0.00    -0.340 OA
ATOM     21  C   LIG    1       -2.205   1.468   0.603  0.00  0.00    +0.150 C 
ENDBRANCH  12  21
ENDBRANCH   1  13
TORSDOF 3
