REMARK  Name = ZINCrH000004nQJv.0
REMARK                            x       y       z     vdW  Elec       q    Type
REMARK                         _______ _______ _______ _____ _____    ______ ____
ROOT
ATOM      1  C   LIG    1       -1.281   1.363   3.609  0.00  0.00    +0.270 C 
ENDROOT
BRANCH   1   2
ATOM      2  N   LIG    1       -0.991   0.457   4.723  0.00  0.00    -0.560 N 
ATOM      3  C   LIG    1       -1.299  -0.853   4.739  0.00  0.00    +0.580 C 
ATOM      4  C   LIG    1       -0.848  -1.427   6.025  0.00  0.00    -0.130 A 
ATOM      5  C   LIG    1       -0.892  -2.692   6.588  0.00  0.00    +0.100 A 
ATOM      6  C   LIG    1       -0.368  -2.899   7.855  0.00  0.00    +0.050 A 
ATOM      7  C   LIG    1        0.198  -1.853   8.558  0.00  0.00    +0.040 A 
ATOM      8  C   LIG    1        0.250  -0.582   8.007  0.00  0.00    +0.100 A 
ATOM      9  C   LIG    1       -0.270  -0.360   6.742  0.00  0.00    -0.140 A 
ATOM     10  O   LIG    1       -1.853  -1.462   3.847  0.00  0.00    -0.440 OA
ATOM     11  C   LIG    1       -0.386   0.825   5.867  0.00  0.00    +0.580 C 
ATOM     12  O   LIG    1        0.001   1.945   6.135  0.00  0.00    -0.460 OA
ENDBRANCH   1   2
BRANCH   1  13
ATOM     13  C   LIG    1       -0.575   0.877   2.369  0.00  0.00    +0.510 C 
ATOM     14  N   LIG    1       -0.698   1.558   1.213  0.00  0.00    -0.720 N 
ATOM     15  H   LIG    1       -1.241   2.362   1.179  0.00  0.00    +0.400 HD
ATOM     16  O   LIG    1        0.103  -0.128   2.412  0.00  0.00    -0.510 OA
BRANCH  14  17
ATOM     17  C   LIG    1       -0.013   1.086   0.008  0.00  0.00    +0.230 C 
ATOM     18  C   LIG    1        1.423   1.615  -0.003  0.00  0.00    +0.030 C 
BRANCH  17  19
ATOM     19  C   LIG    1       -0.753   1.593  -1.232  0.00  0.00    +0.020 C 
BRANCH  19  20
ATOM     20  C   LIG    1       -2.147   0.964  -1.286  0.00  0.00    +0.010 C 
BRANCH  20  21
ATOM     21  C   LIG    1       -2.886   1.471  -2.526  0.00  0.00    +0.010 C 
BRANCH  21  22
ATOM     22  C   LIG    1       -4.280   0.842  -2.580  0.00  0.00    -0.030 C 
ATOM     23  C   LIG    1       -4.150  -0.670  -2.776  0.00  0.00    +0.010 C 
ATOM     24  C   LIG    1       -5.065   1.442  -3.748  0.00  0.00    +0.000 C 
ENDBRANCH  21  22
ENDBRANCH  20  21
ENDBRANCH  19  20
ENDBRANCH  17  19
ENDBRANCH  14  17
ENDBRANCH   1  13
BRANCH   1  25
ATOM     25  C   LIG    1       -2.790   1.395   3.358  0.00  0.00    +0.080 C 
BRANCH  25  26
ATOM     26  C   LIG    1       -3.496   2.005   4.571  0.00  0.00    +0.080 C 
BRANCH  26  28
ATOM     27  C   LIG    1       -5.936   2.786   5.794  0.00  0.00    +0.140 C 
ATOM     28  S   LIG    1       -5.285   2.043   4.273  0.00  0.00    -0.250 S 
ENDBRANCH  26  28
ENDBRANCH  25  26
ENDBRANCH   1  25
TORSDOF 10
