REMARK  Name = ZINCpk00000ebHYS.0
REMARK                            x       y       z     vdW  Elec       q    Type
REMARK                         _______ _______ _______ _____ _____    ______ ____
ROOT
ATOM      1  C   LIG    1        1.051   0.692   5.739  0.00  0.00    -0.150 A 
ATOM      2  C   LIG    1        2.265   0.138   5.325  0.00  0.00    +0.180 A 
ATOM      3  C   LIG    1        2.413  -0.298   4.026  0.00  0.00    -0.020 A 
ATOM      4  C   LIG    1        1.359  -0.193   3.131  0.00  0.00    +0.230 A 
ATOM      5  C   LIG    1        0.153   0.362   3.535  0.00  0.00    -0.730 A 
ATOM      6  F   LIG    1        1.508  -0.627   1.861  0.00  0.00    -0.110 F 
ATOM      7  C   LIG    1       -0.006   0.801   4.832  0.00  0.00    +0.240 A 
ENDROOT
BRANCH   5   8
ATOM      8  S   LIG    1       -1.179   0.499   2.390  0.00  0.00    +2.690 S 
ATOM      9  O   LIG    1       -1.299  -0.770   1.761  0.00  0.00    -0.940 OA
ATOM     10  O   LIG    1       -2.247   1.123   3.090  0.00  0.00    -0.940 OA
BRANCH   8  11
ATOM     11  N   LIG    1       -0.706   1.562   1.213  0.00  0.00    -0.990 NA
ATOM     12  C   LIG    1       -0.013   1.086   0.008  0.00  0.00    +0.280 C 
ATOM     13  C   LIG    1       -0.759   1.596  -1.228  0.00  0.00    +0.020 C 
ATOM     14  C   LIG    1       -0.898   3.118  -1.144  0.00  0.00    +0.020 C 
ATOM     15  C   LIG    1       -1.711   3.490   0.099  0.00  0.00    +0.020 C 
ATOM     16  C   LIG    1       -0.975   3.001   1.350  0.00  0.00    +0.280 C 
ENDBRANCH   8  11
ENDBRANCH   5   8
BRANCH   1  18
ATOM     17  O   LIG    1       -0.170   1.642   7.486  0.00  0.00    -0.480 OA
ATOM     18  C   LIG    1        0.886   1.160   7.128  0.00  0.00    +0.510 C 
BRANCH  18  19
ATOM     19  O   LIG    1        1.908   1.054   8.001  0.00  0.00    -0.330 OA
BRANCH  19  20
ATOM     20  C   LIG    1        1.674   1.535   9.351  0.00  0.00    +0.160 C 
ATOM     21  C   LIG    1        2.552   0.759  10.357  0.00  0.00    +0.070 C 
ATOM     22  C   LIG    1        3.124   1.896  11.234  0.00  0.00    +0.270 C 
ATOM     23  O   LIG    1        3.125   3.064  10.361  0.00  0.00    -0.340 OA
ATOM     24  C   LIG    1        2.116   2.977   9.479  0.00  0.00    +0.470 C 
ATOM     25  O   LIG    1        1.633   3.908   8.878  0.00  0.00    -0.420 OA
ENDBRANCH  19  20
ENDBRANCH  18  19
ENDBRANCH   1  18
TORSDOF 5
