REMARK  Name = ZINCrD000000A5Aa.0
REMARK                            x       y       z     vdW  Elec       q    Type
REMARK                         _______ _______ _______ _____ _____    ______ ____
ROOT
ATOM      1  C   LIG    1       -0.720  -0.740   0.473  0.00  0.00    +0.540 C 
ATOM      2  N   LIG    1        0.403   0.004   0.418  0.00  0.00    -0.670 N 
ATOM      3  H   LIG    1        1.272  -0.426   0.439  0.00  0.00    +0.420 HD
ATOM      4  O   LIG    1       -1.804  -0.213   0.346  0.00  0.00    -0.500 OA
ENDROOT
BRANCH   2   5
ATOM      5  C   LIG    1        0.313   1.400   0.332  0.00  0.00    +0.140 A 
ATOM      6  C   LIG    1        1.245   2.197   0.984  0.00  0.00    +0.010 A 
ATOM      7  C   LIG    1        1.160   3.572   0.893  0.00  0.00    +0.030 A 
ATOM      8  C   LIG    1        0.137   4.158   0.161  0.00  0.00    +0.070 A 
ATOM      9  C   LIG    1       -0.797   3.362  -0.487  0.00  0.00    +0.040 A 
ATOM     10  C   LIG    1       -0.710   1.986  -0.402  0.00  0.00    +0.050 A 
BRANCH   8  11
ATOM     11  O   LIG    1        0.050   5.512   0.077  0.00  0.00    -0.260 OA
BRANCH  11  12
ATOM     12  C   LIG    1        0.908   6.156  -0.757  0.00  0.00    +0.120 A 
ATOM     13  C   LIG    1        1.814   5.430  -1.518  0.00  0.00    -0.070 A 
ATOM     14  C   LIG    1        2.682   6.087  -2.369  0.00  0.00    +0.050 A 
ATOM     15  C   LIG    1        2.655   7.467  -2.456  0.00  0.00    -0.020 A 
ATOM     16  C   LIG    1        1.756   8.192  -1.695  0.00  0.00    +0.050 A 
ATOM     17  C   LIG    1        0.883   7.540  -0.846  0.00  0.00    -0.020 A 
ENDBRANCH  11  12
ENDBRANCH   8  11
ENDBRANCH   2   5
BRANCH   1  18
ATOM     18  C   LIG    1       -0.626  -2.229   0.691  0.00  0.00    +0.100 C 
BRANCH  18  19
ATOM     19  S   LIG    1       -2.290  -2.940   0.715  0.00  0.00    +0.120 S 
BRANCH  19  21
ATOM     20  N   LIG    1       -2.779  -5.671   1.085  0.00  0.00    -0.300 N 
ATOM     21  C   LIG    1       -1.893  -4.637   0.978  0.00  0.00    +0.160 A 
ATOM     22  N   LIG    1       -0.690  -5.147   1.101  0.00  0.00    -0.290 NA
ATOM     23  N   LIG    1       -0.771  -6.417   1.284  0.00  0.00    -0.270 NA
ATOM     24  C   LIG    1       -2.019  -6.791   1.280  0.00  0.00    +0.190 A 
BRANCH  20  25
ATOM     25  N   LIG    1       -4.141  -5.601   1.012  0.00  0.00    -0.580 N 
ATOM     26  H   LIG    1       -4.571  -6.280   1.621  0.00  0.00    +0.380 HD
ATOM     27  H   LIG    1       -4.459  -5.715   0.061  0.00  0.00    +0.370 HD
ENDBRANCH  20  25
BRANCH  24  28
ATOM     28  C   LIG    1       -2.530  -8.197   1.458  0.00  0.00    +0.020 C 
ATOM     29  C   LIG    1       -1.519  -9.271   1.864  0.00  0.00    +0.080 C 
ATOM     30  C   LIG    1       -2.079  -9.247   0.441  0.00  0.00    +0.060 C 
ENDBRANCH  24  28
ENDBRANCH  19  21
ENDBRANCH  18  19
ENDBRANCH   1  18
TORSDOF 8
