REMARK  Name = ZINCkj00000hdd3B.0
REMARK                            x       y       z     vdW  Elec       q    Type
REMARK                         _______ _______ _______ _____ _____    ______ ____
ROOT
ATOM      1  C   LIG    1        1.226   1.816  -4.967  0.00  0.00    +0.240 C 
ATOM      2  C   LIG    1        1.960   1.251  -3.747  0.00  0.00    +0.070 C 
ATOM      3  C   LIG    1        0.934   0.834  -2.691  0.00  0.00    +0.260 C 
ATOM      4  N   LIG    1        0.140   2.000  -2.288  0.00  0.00    -0.380 N 
ATOM      5  C   LIG    1       -0.622   2.505  -3.437  0.00  0.00    +0.260 C 
ATOM      6  H   LIG    1        0.755   2.725  -1.951  0.00  0.00    +0.420 HD
ATOM      7  C   LIG    1        0.343   2.986  -4.522  0.00  0.00    +0.040 C 
ENDROOT
BRANCH   4   8
ATOM      8  C   LIG    1       -0.790   1.612  -1.218  0.00  0.00    +0.160 C 
ATOM      9  C   LIG    1       -1.549   2.853  -0.684  0.00  0.00    +0.050 C 
ATOM     10  C   LIG    1       -1.962   2.414   0.745  0.00  0.00    +0.060 C 
ATOM     11  C   LIG    1       -0.760   1.595   1.245  0.00  0.00    -0.060 C 
ATOM     12  C   LIG    1        0.160   2.469   2.111  0.00  0.00    +0.020 C 
ATOM     13  C   LIG    1       -0.269   2.142   3.564  0.00  0.00    +0.010 C 
ATOM     14  C   LIG    1       -0.571   0.624   3.500  0.00  0.00    +0.010 C 
ATOM     15  C   LIG    1       -1.230   0.426   2.117  0.00  0.00    +0.020 C 
ATOM     16  C   LIG    1       -0.013   1.086   0.008  0.00  0.00    +0.060 C 
ENDBRANCH   4   8
BRANCH   1  17
ATOM     17  N   LIG    1        2.204   2.288  -5.951  0.00  0.00    -1.120 NA
ATOM     18  H   LIG    1        3.036   2.688  -5.655  0.00  0.00    +0.430 HD
BRANCH  17  19
ATOM     19  S   LIG    1        1.888   2.136  -7.570  0.00  0.00    +2.790 S 
ATOM     20  O   LIG    1        1.460   0.796  -7.771  0.00  0.00    -0.970 OA
ATOM     21  O   LIG    1        2.997   2.708  -8.250  0.00  0.00    -0.970 OA
BRANCH  19  22
ATOM     22  N   LIG    1        0.584   3.099  -7.907  0.00  0.00    -1.260 NA
ATOM     23  H   LIG    1       -0.088   3.260  -7.227  0.00  0.00    +0.410 HD
ATOM     24  H   LIG    1        0.493   3.501  -8.785  0.00  0.00    +0.430 HD
ENDBRANCH  19  22
ENDBRANCH  17  19
ENDBRANCH   1  17
TORSDOF 4
