REMARK  Name = ZINCqH0000051Lhz.1
REMARK                            x       y       z     vdW  Elec       q    Type
REMARK                         _______ _______ _______ _____ _____    ______ ____
ROOT
ATOM      1  C   LIG    1       -1.666   3.123   5.777  0.00  0.00    +0.320 A 
ATOM      2  C   LIG    1       -0.663   3.787   5.082  0.00  0.00    -0.050 A 
ATOM      3  C   LIG    1       -0.084   3.172   3.986  0.00  0.00    +0.120 A 
ATOM      4  C   LIG    1       -0.538   1.914   3.615  0.00  0.00    -0.170 A 
ATOM      5  C   LIG    1       -1.540   1.313   4.352  0.00  0.00    +0.300 A 
ATOM      6  N   LIG    1       -2.069   1.922   5.396  0.00  0.00    -0.540 NA
ENDROOT
BRANCH   1   7
ATOM      7  O   LIG    1       -2.238   3.712   6.857  0.00  0.00    -0.300 OA
BRANCH   7   8
ATOM      8  C   LIG    1       -3.263   2.979   7.530  0.00  0.00    +0.280 C 
BRANCH   8  12
ATOM      9  C   LIG    1       -4.717   5.263  10.833  0.00  0.00    +0.010 A 
ATOM     10  C   LIG    1       -5.306   5.395   9.589  0.00  0.00    +0.010 A 
ATOM     11  C   LIG    1       -4.835   4.656   8.520  0.00  0.00    +0.020 A 
ATOM     12  C   LIG    1       -3.776   3.785   8.695  0.00  0.00    -0.100 A 
ATOM     13  C   LIG    1       -3.191   3.649   9.940  0.00  0.00    +0.020 A 
ATOM     14  C   LIG    1       -3.658   4.393  11.008  0.00  0.00    +0.010 A 
ENDBRANCH   8  12
ENDBRANCH   7   8
ENDBRANCH   1   7
BRANCH   4  15
ATOM     15  C   LIG    1        0.059   1.209   2.425  0.00  0.00    +0.240 C 
BRANCH  15  16
ATOM     16  N   LIG    1       -0.700   1.559   1.216  0.00  0.00    -0.530 NA
ATOM     17  C   LIG    1       -0.013   1.086   0.008  0.00  0.00    +0.180 C 
ATOM     18  C   LIG    1       -0.752   1.593  -1.232  0.00  0.00    +0.050 C 
ATOM     19  C   LIG    1       -2.194   1.077  -1.207  0.00  0.00    +0.070 C 
ATOM     20  C   LIG    1       -2.872   1.544   0.085  0.00  0.00    +0.050 C 
ATOM     21  C   LIG    1       -2.071   1.038   1.287  0.00  0.00    +0.170 C 
BRANCH  19  22
ATOM     22  C   LIG    1       -2.945   1.622  -2.394  0.00  0.00    +0.090 A 
ATOM     23  N   LIG    1       -3.108   1.016  -3.543  0.00  0.00    -0.300 NA
ATOM     24  N   LIG    1       -3.863   1.852  -4.375  0.00  0.00    -0.480 N 
ATOM     25  H   LIG    1       -4.137   1.655  -5.285  0.00  0.00    +0.440 HD
ATOM     26  C   LIG    1       -4.139   2.981  -3.690  0.00  0.00    +0.240 A 
ATOM     27  C   LIG    1       -3.583   2.865  -2.462  0.00  0.00    -0.120 A 
ENDBRANCH  19  22
ENDBRANCH  15  16
ENDBRANCH   4  15
TORSDOF 6
