REMARK  Name = ZINCqH00000394wv.0
REMARK                            x       y       z     vdW  Elec       q    Type
REMARK                         _______ _______ _______ _____ _____    ______ ____
ROOT
ATOM      1  N   LIG    1        3.487  -3.638  -1.410  0.00  0.00    -0.540 NA
ENDROOT
BRANCH   1   2
ATOM      2  C   LIG    1        3.614  -5.030  -0.958  0.00  0.00    +0.260 C 
BRANCH   2   6
ATOM      3  C   LIG    1       -0.153  -6.394   0.538  0.00  0.00    -0.020 A 
ATOM      4  C   LIG    1        0.116  -6.440  -0.831  0.00  0.00    +0.060 A 
ATOM      5  C   LIG    1        1.333  -5.998  -1.307  0.00  0.00    +0.040 A 
ATOM      6  C   LIG    1        2.286  -5.510  -0.431  0.00  0.00    -0.060 A 
ATOM      7  C   LIG    1        2.028  -5.466   0.928  0.00  0.00    +0.010 A 
ATOM      8  C   LIG    1        0.813  -5.900   1.417  0.00  0.00    +0.060 A 
BRANCH   3  10
ATOM      9  N   LIG    1       -2.414  -7.214   1.436  0.00  0.00    -0.410 NA
ATOM     10  C   LIG    1       -1.414  -6.851   1.039  0.00  0.00    +0.250 C 
ENDBRANCH   3  10
ENDBRANCH   2   6
ENDBRANCH   1   2
BRANCH   1  11
ATOM     11  C   LIG    1        4.581  -3.280  -2.323  0.00  0.00    +0.230 C 
BRANCH  11  12
ATOM     12  C   LIG    1        4.350  -3.944  -3.682  0.00  0.00    +0.460 C 
ATOM     13  F   LIG    1        4.461  -5.332  -3.546  0.00  0.00    -0.180 F 
ATOM     14  F   LIG    1        5.308  -3.487  -4.593  0.00  0.00    -0.180 F 
ATOM     15  F   LIG    1        3.071  -3.622  -4.148  0.00  0.00    -0.170 F 
ENDBRANCH  11  12
ENDBRANCH   1  11
BRANCH   1  16
ATOM     16  C   LIG    1        3.430  -2.716  -0.268  0.00  0.00    +0.560 C 
BRANCH  16  17
ATOM     17  N   LIG    1        2.733  -1.491  -0.663  0.00  0.00    -0.340 N 
ATOM     18  N   LIG    1        1.351  -1.347  -0.847  0.00  0.00    -0.260 NA
ATOM     19  C   LIG    1        1.118  -0.104  -1.198  0.00  0.00    +0.280 A 
ATOM     20  C   LIG    1       -0.082   0.587  -1.505  0.00  0.00    +0.050 A 
ATOM     21  C   LIG    1       -0.026   1.898  -1.843  0.00  0.00    +0.120 A 
ATOM     22  C   LIG    1        1.219   2.559  -1.885  0.00  0.00    +0.020 A 
ATOM     23  C   LIG    1        2.354   1.899  -1.593  0.00  0.00    +0.300 A 
ATOM     24  N   LIG    1        2.324   0.570  -1.247  0.00  0.00    -0.420 N 
ATOM     25  C   LIG    1        3.303  -0.296  -0.917  0.00  0.00    +0.440 A 
ATOM     26  S   LIG    1        4.976   0.060  -0.834  0.00  0.00    -0.570 S 
ENDBRANCH  16  17
ENDBRANCH   1  16
TORSDOF 7
