REMARK  Name = ZINCrD000000D237.0
REMARK                            x       y       z     vdW  Elec       q    Type
REMARK                         _______ _______ _______ _____ _____    ______ ____
ROOT
ATOM      1  N   LIG    1       -4.778   1.682   1.597  0.00  0.00    -1.000 NA
ATOM      2  C   LIG    1       -5.396   0.345   1.518  0.00  0.00    +0.270 C 
ATOM      3  C   LIG    1       -6.848   0.550   2.018  0.00  0.00    +0.040 C 
ATOM      4  C   LIG    1       -7.185   1.947   1.433  0.00  0.00    +0.060 C 
ATOM      5  C   LIG    1       -5.840   2.696   1.537  0.00  0.00    +0.260 C 
ENDROOT
BRANCH   1   7
ATOM      6  O   LIG    1       -2.632   0.825   2.362  0.00  0.00    -0.930 OA
ATOM      7  S   LIG    1       -3.157   1.988   1.736  0.00  0.00    +2.630 S 
ATOM      8  O   LIG    1       -3.094   3.256   2.376  0.00  0.00    -0.930 OA
BRANCH   7   9
ATOM      9  C   LIG    1       -2.570   2.110   0.024  0.00  0.00    -0.260 C 
BRANCH   9  10
ATOM     10  C   LIG    1       -1.089   2.391   0.019  0.00  0.00    +0.130 A 
ATOM     11  N   LIG    1       -0.530   3.562   0.025  0.00  0.00    -0.260 NA
ATOM     12  O   LIG    1        0.876   3.419   0.012  0.00  0.00    -0.080 OA
ATOM     13  C   LIG    1        1.192   2.108   0.002  0.00  0.00    +0.090 A 
ATOM     14  C   LIG    1        2.396   1.415  -0.013  0.00  0.00    +0.020 A 
ATOM     15  C   LIG    1        2.393   0.037  -0.020  0.00  0.00    +0.100 A 
ATOM     16  C   LIG    1        1.197  -0.667  -0.013  0.00  0.00    +0.000 A 
ATOM     17  C   LIG    1        0.002  -0.004   0.002  0.00  0.00    +0.110 A 
ATOM     18  C   LIG    1       -0.017   1.392   0.010  0.00  0.00    -0.200 A 
ENDBRANCH   9  10
ENDBRANCH   7   9
ENDBRANCH   1   7
BRANCH   5  19
ATOM     19  C   LIG    1       -5.645   3.583   0.305  0.00  0.00    +0.180 C 
BRANCH  19  20
ATOM     20  O   LIG    1       -5.812   2.798  -0.877  0.00  0.00    -0.300 OA
BRANCH  20  21
ATOM     21  C   LIG    1       -5.670   3.438  -2.068  0.00  0.00    +0.110 A 
ATOM     22  C   LIG    1       -5.382   4.795  -2.096  0.00  0.00    -0.040 A 
ATOM     23  C   LIG    1       -5.234   5.443  -3.307  0.00  0.00    +0.030 A 
ATOM     24  C   LIG    1       -5.382   4.742  -4.492  0.00  0.00    +0.060 A 
ATOM     25  C   LIG    1       -5.675   3.389  -4.465  0.00  0.00    +0.030 A 
ATOM     26  F   LIG    1       -5.242   5.378  -5.675  0.00  0.00    -0.140 F 
ATOM     27  C   LIG    1       -5.819   2.736  -3.255  0.00  0.00    +0.020 A 
ENDBRANCH  20  21
ENDBRANCH  19  20
ENDBRANCH   5  19
TORSDOF 6
