REMARK  Name = ZINCpk00000y6w8j.0
REMARK                            x       y       z     vdW  Elec       q    Type
REMARK                         _______ _______ _______ _____ _____    ______ ____
ROOT
ATOM      1  N   LIG    1        0.749  -1.527   6.443  0.00  0.00    -0.590 N 
ATOM      2  C   LIG    1       -0.178  -0.808   5.780  0.00  0.00    +0.610 C 
ATOM      3  O   LIG    1       -1.359  -0.975   6.016  0.00  0.00    -0.500 OA
ENDROOT
BRANCH   2   4
ATOM      4  C   LIG    1        0.240   0.183   4.767  0.00  0.00    -0.000 A 
ATOM      5  N   LIG    1        1.480   0.541   4.477  0.00  0.00    -0.270 NA
ATOM      6  N   LIG    1        1.479   1.430   3.542  0.00  0.00    -0.260 N 
ATOM      7  C   LIG    1        0.221   1.700   3.167  0.00  0.00    -0.030 A 
ATOM      8  C   LIG    1       -0.294   2.655   2.122  0.00  0.00    +0.250 C 
ATOM      9  C   LIG    1        0.531   2.515   0.841  0.00  0.00    +0.080 C 
ATOM     10  O   LIG    1       -1.664   2.320   1.856  0.00  0.00    -0.360 OA
ATOM     11  C   LIG    1       -2.486   2.208   3.020  0.00  0.00    +0.150 C 
ATOM     12  C   LIG    1       -3.954   2.116   2.601  0.00  0.00    +0.070 C 
ATOM     13  C   LIG    1       -2.098   0.946   3.807  0.00  0.00    +0.120 C 
ATOM     14  C   LIG    1        2.677   2.053   2.974  0.00  0.00    +0.360 C 
ATOM     15  C   LIG    1       -0.599   0.926   3.926  0.00  0.00    -0.140 A 
ENDBRANCH   2   4
BRANCH   1  16
ATOM     16  C   LIG    1        2.165  -1.403   6.086  0.00  0.00    +0.310 C 
BRANCH  16  17
ATOM     17  C   LIG    1        2.766  -0.190   6.797  0.00  0.00    +0.170 C 
BRANCH  17  19
ATOM     18  C   LIG    1        3.293   0.671   8.972  0.00  0.00    +0.200 C 
ATOM     19  O   LIG    1        2.750  -0.409   8.209  0.00  0.00    -0.390 OA
ENDBRANCH  17  19
ENDBRANCH  16  17
ENDBRANCH   1  16
BRANCH   1  20
ATOM     20  C   LIG    1        0.342  -2.432   7.520  0.00  0.00    +0.430 C 
BRANCH  20  21
ATOM     21  C   LIG    1        0.130  -3.815   6.961  0.00  0.00    +0.180 A 
ATOM     22  N   LIG    1       -0.969  -4.253   6.411  0.00  0.00    -0.460 NA
ATOM     23  C   LIG    1       -0.794  -5.527   6.027  0.00  0.00    +0.140 A 
ATOM     24  C   LIG    1        0.458  -5.894   6.359  0.00  0.00    +0.130 A 
ATOM     25  N   LIG    1        1.045  -4.809   6.952  0.00  0.00    -0.560 N 
ATOM     26  H   LIG    1        1.949  -4.762   7.300  0.00  0.00    +0.420 HD
ENDBRANCH  20  21
ENDBRANCH   1  20
TORSDOF 6
