REMARK  Name = ZINCpk00000y6zf2.0
REMARK                            x       y       z     vdW  Elec       q    Type
REMARK                         _______ _______ _______ _____ _____    ______ ____
ROOT
ATOM      1  C   LIG    1       -0.078   2.260  -2.139  0.00  0.00    +0.610 C 
ATOM      2  N   LIG    1       -0.774   1.797  -1.082  0.00  0.00    -0.600 N 
ATOM      3  C   LIG    1       -0.079   1.263   0.097  0.00  0.00    +0.280 C 
ATOM      4  C   LIG    1       -0.588   1.991   1.345  0.00  0.00    +0.020 C 
ATOM      5  C   LIG    1       -2.116   1.875   1.407  0.00  0.00    +0.000 C 
ATOM      6  C   LIG    1       -2.731   2.539   0.173  0.00  0.00    +0.010 C 
ATOM      7  C   LIG    1       -2.243   1.817  -1.087  0.00  0.00    +0.290 C 
ATOM      8  O   LIG    1        1.132   2.357  -2.074  0.00  0.00    -0.530 OA
ENDROOT
BRANCH   1  11
ATOM      9  C   LIG    1       -1.236   3.439  -5.384  0.00  0.00    +0.020 A 
ATOM     10  C   LIG    1       -0.216   3.280  -4.508  0.00  0.00    -0.010 A 
ATOM     11  C   LIG    1       -0.785   2.650  -3.376  0.00  0.00    -0.010 A 
ATOM     12  N   LIG    1       -2.065   2.473  -3.637  0.00  0.00    -0.260 NA
ATOM     13  N   LIG    1       -2.345   2.933  -4.803  0.00  0.00    -0.280 N 
ATOM     14  C   LIG    1       -3.675   2.906  -5.417  0.00  0.00    +0.370 C 
BRANCH   9  16
ATOM     15  C   LIG    1       -0.131   5.206  -6.728  0.00  0.00    +0.050 C 
ATOM     16  C   LIG    1       -1.150   4.065  -6.752  0.00  0.00    +0.050 C 
ATOM     17  C   LIG    1       -0.709   3.010  -7.769  0.00  0.00    +0.040 C 
ENDBRANCH   9  16
ENDBRANCH   1  11
BRANCH   5  18
ATOM     18  C   LIG    1       -2.628   2.572   2.669  0.00  0.00    +0.150 C 
ATOM     19  C   LIG    1       -2.063   1.886   3.939  0.00  0.00    +0.020 C 
ATOM     20  C   LIG    1       -3.125   2.256   5.005  0.00  0.00    +0.020 C 
ATOM     21  C   LIG    1       -4.379   2.612   4.184  0.00  0.00    +0.160 C 
ATOM     22  O   LIG    1       -4.056   2.404   2.799  0.00  0.00    -0.340 OA
BRANCH  21  23
ATOM     23  C   LIG    1       -5.524   1.717   4.582  0.00  0.00    +0.520 C 
ATOM     24  O   LIG    1       -5.981   0.924   3.786  0.00  0.00    -0.520 OA
ATOM     25  N   LIG    1       -6.042   1.798   5.824  0.00  0.00    -0.850 N 
ATOM     26  H   LIG    1       -6.779   1.222   6.081  0.00  0.00    +0.410 HD
ATOM     27  H   LIG    1       -5.677   2.432   6.461  0.00  0.00    +0.400 HD
ENDBRANCH  21  23
ENDBRANCH   5  18
TORSDOF 4
