REMARK  Name = ZINCnE000001R5L1.1
REMARK                            x       y       z     vdW  Elec       q    Type
REMARK                         _______ _______ _______ _____ _____    ______ ____
ROOT
ATOM      1  C   LIG    1        0.088  -4.570   2.480  0.00  0.00    -0.160 A 
ATOM      2  C   LIG    1        0.085  -3.626   3.509  0.00  0.00    +0.110 A 
ATOM      3  C   LIG    1        0.064  -2.281   3.209  0.00  0.00    -0.050 A 
ATOM      4  C   LIG    1        0.045  -1.864   1.882  0.00  0.00    +0.310 A 
ATOM      5  C   LIG    1        0.043  -2.802   0.855  0.00  0.00    -0.160 A 
ATOM      6  C   LIG    1        0.069  -4.148   1.149  0.00  0.00    +0.090 A 
ENDROOT
BRANCH   1  11
ATOM      7  C   LIG    1        0.153  -9.565   2.087  0.00  0.00    +0.230 C 
ATOM      8  C   LIG    1        0.138  -8.161   2.635  0.00  0.00    +0.120 A 
ATOM      9  N   LIG    1        0.145  -7.826   3.894  0.00  0.00    -0.290 NA
ATOM     10  N   LIG    1        0.134  -6.544   3.999  0.00  0.00    -0.320 NA
ATOM     11  C   LIG    1        0.110  -6.012   2.799  0.00  0.00    +0.260 A 
ATOM     12  O   LIG    1        0.115  -7.027   1.912  0.00  0.00    -0.230 OA
ENDBRANCH   1  11
BRANCH   4  13
ATOM     13  N   LIG    1        0.024  -0.503   1.581  0.00  0.00    -1.080 NA
BRANCH  13  14
ATOM     14  S   LIG    1        0.002  -0.004   0.002  0.00  0.00    +2.610 S 
ATOM     15  O   LIG    1        1.252  -0.385  -0.556  0.00  0.00    -1.020 OA
ATOM     16  O   LIG    1       -1.247  -0.419  -0.533  0.00  0.00    -1.020 OA
BRANCH  14  17
ATOM     17  C   LIG    1       -0.022   1.758   0.012  0.00  0.00    -0.610 A 
ATOM     18  C   LIG    1       -1.228   2.432   0.021  0.00  0.00    +0.120 A 
ATOM     19  C   LIG    1       -1.248   3.815   0.035  0.00  0.00    +0.010 A 
ATOM     20  C   LIG    1       -0.061   4.523   0.027  0.00  0.00    +0.070 A 
ATOM     21  C   LIG    1        1.147   3.848   0.012  0.00  0.00    -0.060 A 
ATOM     22 CL   LIG    1        2.638   4.737   0.003  0.00  0.00    -0.070 Cl
ATOM     23  C   LIG    1        1.166   2.465   0.004  0.00  0.00    +0.140 A 
ENDBRANCH  14  17
ENDBRANCH  13  14
ENDBRANCH   4  13
TORSDOF 4
