REMARK  Name = ZINCpk00000xJ9ZI.0
REMARK                            x       y       z     vdW  Elec       q    Type
REMARK                         _______ _______ _______ _____ _____    ______ ____
ROOT
ATOM      1  C   LIG    1        5.391   9.103   2.998  0.00  0.00    +0.300 C 
ATOM      2  C   LIG    1        6.018  10.497   2.789  0.00  0.00    +0.050 C 
ATOM      3  C   LIG    1        6.599  10.405   1.353  0.00  0.00    +0.040 C 
ATOM      4  C   LIG    1        5.549   9.516   0.647  0.00  0.00    +0.250 C 
ATOM      5  N   LIG    1        5.133   8.536   1.667  0.00  0.00    -0.610 N 
ATOM      6  C   LIG    1        4.607   7.320   1.419  0.00  0.00    +0.520 C 
ATOM      7  O   LIG    1        4.305   6.591   2.340  0.00  0.00    -0.510 OA
ENDROOT
BRANCH   1  11
ATOM      8  C   LIG    1        1.995   9.052   6.685  0.00  0.00    +0.360 C 
ATOM      9  N   LIG    1        2.623   9.207   5.370  0.00  0.00    -0.370 N 
ATOM     10  C   LIG    1        3.918   8.970   5.076  0.00  0.00    +0.240 A 
ATOM     11  C   LIG    1        4.097   9.232   3.760  0.00  0.00    -0.250 A 
ATOM     12  C   LIG    1        2.870   9.650   3.234  0.00  0.00    +0.230 A 
ATOM     13  N   LIG    1        1.985   9.630   4.197  0.00  0.00    -0.290 NA
ENDBRANCH   1  11
BRANCH   6  14
ATOM     14  C   LIG    1        4.396   6.865  -0.002  0.00  0.00    +0.410 C 
BRANCH  14  15
ATOM     15  N   LIG    1        3.818   5.519  -0.004  0.00  0.00    -0.130 N 
ATOM     16  N   LIG    1        4.489   4.421  -0.016  0.00  0.00    -0.050 NA
ATOM     17  N   LIG    1        3.666   3.427  -0.008  0.00  0.00    -0.270 NA
ATOM     18  C   LIG    1        2.427   3.937   0.001  0.00  0.00    +0.210 A 
ATOM     19  N   LIG    1        2.558   5.249   0.006  0.00  0.00    -0.290 NA
BRANCH  18  20
ATOM     20  C   LIG    1        1.154   3.174   0.008  0.00  0.00    -0.020 A 
ATOM     21  C   LIG    1        1.174   1.781   0.000  0.00  0.00    +0.060 A 
ATOM     22  C   LIG    1       -0.013   1.076   0.008  0.00  0.00    +0.010 A 
ATOM     23  C   LIG    1       -1.220   1.750   0.017  0.00  0.00    +0.030 A 
ATOM     24  C   LIG    1       -1.246   3.133   0.031  0.00  0.00    +0.010 A 
ATOM     25  C   LIG    1       -0.066   3.848   0.023  0.00  0.00    +0.050 A 
ENDBRANCH  18  20
ENDBRANCH  14  15
ENDBRANCH   6  14
TORSDOF 4
