REMARK  Name = ZINCrg000000tOUw.1
REMARK                            x       y       z     vdW  Elec       q    Type
REMARK                         _______ _______ _______ _____ _____    ______ ____
ROOT
ATOM      1  O   LIG    1       -3.695   7.254   1.034  0.00  0.00    -0.480 OA
ATOM      2  C   LIG    1       -2.500   7.191   1.246  0.00  0.00    +0.600 C 
ATOM      3  N   LIG    1       -1.691   8.191   0.845  0.00  0.00    -0.590 N 
ATOM      4  C   LIG    1       -0.230   8.073   0.962  0.00  0.00    +0.300 C 
ATOM      5  C   LIG    1        0.392   8.414  -0.402  0.00  0.00    +0.170 C 
ATOM      6  N   LIG    1       -0.091   9.730  -0.840  0.00  0.00    -0.690 NA
ATOM      7  H   LIG    1        0.391  10.033  -1.672  0.00  0.00    +0.350 HD
ATOM      8  C   LIG    1       -1.545   9.722  -1.047  0.00  0.00    +0.180 C 
ATOM      9  C   LIG    1       -2.246   9.433   0.284  0.00  0.00    +0.290 C 
ENDROOT
BRANCH   2  10
ATOM     10  C   LIG    1       -1.933   6.015   1.945  0.00  0.00    +0.240 A 
ATOM     11  N   LIG    1       -2.634   5.023   2.462  0.00  0.00    -0.260 NA
ATOM     12  N   LIG    1       -1.717   4.125   3.024  0.00  0.00    -0.320 N 
ATOM     13  C   LIG    1       -1.855   2.939   3.679  0.00  0.00    +0.370 A 
ATOM     14  C   LIG    1       -0.743   2.295   4.116  0.00  0.00    -0.180 A 
ATOM     15  C   LIG    1        0.516   2.861   3.873  0.00  0.00    +0.420 A 
ATOM     16  N   LIG    1        0.619   4.003   3.235  0.00  0.00    -0.450 NA
ATOM     17  C   LIG    1       -0.472   4.650   2.804  0.00  0.00    +0.440 A 
ATOM     18  N   LIG    1       -0.633   5.791   2.150  0.00  0.00    -0.500 NA
BRANCH  14  19
ATOM     19  C   LIG    1       -0.861   0.984   4.848  0.00  0.00    +0.120 C 
BRANCH  19  20
ATOM     20  C   LIG    1       -0.700  -0.171   3.857  0.00  0.00    +0.180 C 
BRANCH  20  21
ATOM     21  O   LIG    1       -0.812  -1.414   4.552  0.00  0.00    -0.570 OA
ATOM     22  H   LIG    1       -0.720  -2.192   3.984  0.00  0.00    +0.390 HD
ENDBRANCH  20  21
ENDBRANCH  19  20
ENDBRANCH  14  19
ENDBRANCH   2  10
BRANCH   9  23
ATOM     23  C   LIG    1       -3.726   9.266   0.052  0.00  0.00    -0.060 A 
ATOM     24  C   LIG    1       -4.628  10.039   0.758  0.00  0.00    +0.020 A 
ATOM     25  C   LIG    1       -5.986   9.887   0.546  0.00  0.00    +0.020 A 
ATOM     26  C   LIG    1       -6.441   8.961  -0.373  0.00  0.00    +0.020 A 
ATOM     27  C   LIG    1       -5.539   8.187  -1.081  0.00  0.00    -0.030 A 
ATOM     28 CL   LIG    1       -6.111   7.024  -2.236  0.00  0.00    -0.080 Cl
ATOM     29  C   LIG    1       -4.181   8.344  -0.872  0.00  0.00    +0.070 A 
ENDBRANCH   9  23
TORSDOF 5
