REMARK  Name = ZINCc70000003OVr.0
REMARK                            x       y       z     vdW  Elec       q    Type
REMARK                         _______ _______ _______ _____ _____    ______ ____
ROOT
ATOM      1  C   LIG    1       -1.136  -2.159   0.001  0.00  0.00    +0.310 C 
ATOM      2  N   LIG    1       -1.156  -0.694   0.009  0.00  0.00    -0.750 N 
ATOM      3  H   LIG    1       -2.002  -0.220   0.020  0.00  0.00    +0.400 HD
ATOM      4  C   LIG    1        0.002  -0.004   0.002  0.00  0.00    +0.740 C 
ATOM      5  N   LIG    1       -0.016   1.344   0.009  0.00  0.00    -0.670 N 
ATOM      6  C   LIG    1       -1.055   2.387   0.018  0.00  0.00    +0.320 C 
ATOM      7  C   LIG    1       -0.036   3.305   0.695  0.00  0.00    -0.160 C 
ATOM      8  C   LIG    1       -0.055   4.815   0.873  0.00  0.00    +0.120 C 
ATOM      9  C   LIG    1       -0.031   3.894   2.097  0.00  0.00    +0.120 C 
ATOM     10  C   LIG    1        0.994   2.415   0.005  0.00  0.00    +0.340 C 
ATOM     11  O   LIG    1        1.063  -0.598  -0.011  0.00  0.00    -0.580 OA
ENDROOT
BRANCH   9  12
ATOM     12  C   LIG    1        1.223   3.815   2.864  0.00  0.00    +0.230 C 
ATOM     13  N   LIG    1        2.191   3.753   3.455  0.00  0.00    -0.420 NA
ENDBRANCH   9  12
TORSDOF 1
