REMARK  Name = ZINCrD0000072GpH.0
REMARK                            x       y       z     vdW  Elec       q    Type
REMARK                         _______ _______ _______ _____ _____    ______ ____
ROOT
ATOM      1  C   LIG    1       -5.673  -6.153   1.120  0.00  0.00    +0.530 C 
ATOM      2  N   LIG    1       -6.154  -6.410   2.352  0.00  0.00    -0.620 N 
ATOM      3  C   LIG    1       -5.631  -5.856   3.609  0.00  0.00    +0.260 C 
ATOM      4  C   LIG    1       -6.510  -6.405   4.753  0.00  0.00    +0.020 C 
ATOM      5  C   LIG    1       -7.824  -6.796   4.027  0.00  0.00    +0.170 C 
ATOM      6  C   LIG    1       -7.288  -7.299   2.663  0.00  0.00    +0.280 C 
ATOM      7  O   LIG    1       -6.182  -6.673   0.149  0.00  0.00    -0.530 OA
ENDROOT
BRANCH   1   8
ATOM      8  C   LIG    1       -4.502  -5.220   0.948  0.00  0.00    +0.070 C 
BRANCH   8   9
ATOM      9  C   LIG    1       -4.158  -5.102  -0.538  0.00  0.00    +0.100 C 
BRANCH   9  14
ATOM     10  C   LIG    1       -2.119  -1.955  -1.049  0.00  0.00    -0.130 A 
ATOM     11  C   LIG    1       -0.821  -2.465  -1.026  0.00  0.00    +0.040 A 
ATOM     12  C   LIG    1       -0.617  -3.818  -0.846  0.00  0.00    +0.010 A 
ATOM     13  C   LIG    1       -1.697  -4.668  -0.689  0.00  0.00    +0.040 A 
ATOM     14  C   LIG    1       -2.988  -4.169  -0.711  0.00  0.00    -0.090 A 
ATOM     15  C   LIG    1       -3.205  -2.818  -0.885  0.00  0.00    +0.090 A 
BRANCH  10  19
ATOM     16  C   LIG    1       -1.518   1.760  -1.583  0.00  0.00    +0.290 C 
ATOM     17  N   LIG    1       -1.295   0.324  -1.393  0.00  0.00    -0.730 N 
ATOM     18  H   LIG    1       -0.391  -0.028  -1.377  0.00  0.00    +0.400 HD
ATOM     19  C   LIG    1       -2.345  -0.507  -1.241  0.00  0.00    +0.560 C 
ATOM     20  O   LIG    1       -3.477  -0.065  -1.260  0.00  0.00    -0.530 OA
ENDBRANCH  10  19
ENDBRANCH   9  14
ENDBRANCH   8   9
ENDBRANCH   1   8
BRANCH   5  21
ATOM     21  O   LIG    1       -8.506  -7.839   4.726  0.00  0.00    -0.290 OA
BRANCH  21  22
ATOM     22  C   LIG    1       -9.426  -7.462   5.653  0.00  0.00    +0.140 A 
ATOM     23  C   LIG    1       -9.583  -6.121   5.970  0.00  0.00    -0.060 A 
ATOM     24  C   LIG    1      -10.522  -5.739   6.909  0.00  0.00    +0.060 A 
ATOM     25  C   LIG    1      -11.298  -6.694   7.540  0.00  0.00    +0.000 A 
ATOM     26  C   LIG    1      -11.140  -8.032   7.231  0.00  0.00    +0.070 A 
ATOM     27  C   LIG    1      -10.206  -8.419   6.288  0.00  0.00    -0.070 A 
ATOM     28 CL   LIG    1      -10.007 -10.099   5.900  0.00  0.00    -0.050 Cl
ENDBRANCH  21  22
ENDBRANCH   5  21
TORSDOF 6
