REMARK  Name = ZINCpk00000y6w1a.1
REMARK                            x       y       z     vdW  Elec       q    Type
REMARK                         _______ _______ _______ _____ _____    ______ ____
ROOT
ATOM      1  C   LIG    1       -0.029  -0.327  -2.527  0.00  0.00    +0.310 C 
ATOM      2  C   LIG    1        1.404  -0.021  -3.016  0.00  0.00    +0.160 C 
ATOM      3  C   LIG    1        1.806  -1.363  -3.671  0.00  0.00    +0.070 C 
ATOM      4  C   LIG    1        0.488  -1.999  -4.054  0.00  0.00    +0.530 C 
ATOM      5  O   LIG    1        0.361  -2.920  -4.833  0.00  0.00    -0.530 OA
ATOM      6  N   LIG    1       -0.522  -1.396  -3.403  0.00  0.00    -0.610 N 
ATOM      7  C   LIG    1       -1.934  -1.760  -3.549  0.00  0.00    +0.310 C 
ENDROOT
BRANCH   1  10
ATOM      8  C   LIG    1       -0.018   1.503   0.010  0.00  0.00    +0.140 C 
ATOM      9  C   LIG    1        0.002  -0.004   0.002  0.00  0.00    +0.100 A 
ATOM     10  C   LIG    1       -0.003  -0.796  -1.095  0.00  0.00    -0.260 A 
ATOM     11  C   LIG    1        0.024  -2.127  -0.666  0.00  0.00    +0.250 A 
ATOM     12  N   LIG    1        0.036  -2.134   0.643  0.00  0.00    -0.290 NA
ATOM     13  N   LIG    1        0.023  -0.805   1.088  0.00  0.00    -0.370 N 
ATOM     14  C   LIG    1        0.030  -0.364   2.485  0.00  0.00    +0.360 C 
ENDBRANCH   1  10
BRANCH   2  15
ATOM     15  N   LIG    1        1.402   1.067  -4.003  0.00  0.00    -0.680 NA
ATOM     16  H   LIG    1        0.652   1.717  -3.822  0.00  0.00    +0.340 HD
BRANCH  15  17
ATOM     17  C   LIG    1        2.700   1.754  -4.031  0.00  0.00    +0.270 C 
BRANCH  17  18
ATOM     18  C   LIG    1        2.660   2.861  -5.053  0.00  0.00    -0.250 A 
ATOM     19  C   LIG    1        2.094   4.118  -4.879  0.00  0.00    +0.110 A 
ATOM     20  C   LIG    1        1.430   4.731  -3.799  0.00  0.00    +0.020 A 
ATOM     21  C   LIG    1        0.977   6.006  -3.936  0.00  0.00    +0.060 A 
ATOM     22  C   LIG    1        1.178   6.689  -5.147  0.00  0.00    -0.010 A 
ATOM     23  C   LIG    1        1.823   6.089  -6.170  0.00  0.00    +0.290 A 
ATOM     24  N   LIG    1        2.280   4.808  -6.050  0.00  0.00    -0.280 N 
ATOM     25  N   LIG    1        2.954   3.959  -6.935  0.00  0.00    -0.320 NA
ATOM     26  C   LIG    1        3.175   2.808  -6.338  0.00  0.00    +0.290 A 
ENDBRANCH  17  18
ENDBRANCH  15  17
ENDBRANCH   2  15
TORSDOF 4
