REMARK  Name = ZINCnE000001Ppn2.1
REMARK                            x       y       z     vdW  Elec       q    Type
REMARK                         _______ _______ _______ _____ _____    ______ ____
ROOT
ATOM      1  C   LIG    1       -2.647   1.864   4.662  0.00  0.00    +0.590 C 
ATOM      2  N   LIG    1       -3.029   0.669   5.154  0.00  0.00    -0.610 N 
ATOM      3  C   LIG    1       -2.643  -0.578   4.478  0.00  0.00    +0.260 C 
ATOM      4  C   LIG    1       -1.955  -1.495   5.500  0.00  0.00    +0.040 C 
ATOM      5  C   LIG    1       -2.880  -1.693   6.704  0.00  0.00    -0.030 C 
ATOM      6  C   LIG    1       -3.146  -0.342   7.372  0.00  0.00    +0.040 C 
ATOM      7  C   LIG    1       -3.843   0.588   6.374  0.00  0.00    +0.280 C 
ATOM      8  O   LIG    1       -2.875   2.881   5.288  0.00  0.00    -0.530 OA
ENDROOT
BRANCH   1  13
ATOM      9  C   LIG    1       -0.664   1.292  -0.333  0.00  0.00    +0.140 C 
ATOM     10  C   LIG    1       -1.048   1.670   1.075  0.00  0.00    -0.210 A 
ATOM     11  C   LIG    1       -0.535   2.706   1.748  0.00  0.00    -0.020 A 
ATOM     12  C   LIG    1       -1.027   2.876   3.021  0.00  0.00    +0.100 A 
ATOM     13  C   LIG    1       -1.956   1.937   3.370  0.00  0.00    -0.270 A 
ATOM     14  S   LIG    1       -2.191   0.831   2.024  0.00  0.00    +0.220 S 
ENDBRANCH   1  13
BRANCH   5  15
ATOM     15  C   LIG    1       -2.225  -2.622   7.693  0.00  0.00    +0.410 C 
ATOM     16  O   LIG    1       -1.591  -2.169   8.623  0.00  0.00    -0.500 OA
BRANCH  15  17
ATOM     17  C   LIG    1       -2.354  -4.076   7.531  0.00  0.00    -0.330 A 
ATOM     18  C   LIG    1       -3.090  -4.602   6.462  0.00  0.00    +0.080 A 
ATOM     19  C   LIG    1       -3.203  -5.960   6.312  0.00  0.00    -0.180 A 
ATOM     20  C   LIG    1       -2.597  -6.815   7.227  0.00  0.00    +0.300 A 
ATOM     21  C   LIG    1       -1.870  -6.298   8.293  0.00  0.00    -0.180 A 
ATOM     22  O   LIG    1       -2.717  -8.158   7.078  0.00  0.00    -0.710 OA
ATOM     23  C   LIG    1       -1.746  -4.942   8.449  0.00  0.00    +0.090 A 
ENDBRANCH  15  17
ENDBRANCH   5  15
TORSDOF 3
