REMARK  Name = ZINCqH0000051g4U.0
REMARK                            x       y       z     vdW  Elec       q    Type
REMARK                         _______ _______ _______ _____ _____    ______ ____
ROOT
ATOM      1  O   LIG    1        0.399   3.262  -1.333  0.00  0.00    -0.520 OA
ATOM      2  C   LIG    1        0.569   4.123  -2.174  0.00  0.00    +0.580 C 
ATOM      3  N   LIG    1        1.787   4.679  -2.332  0.00  0.00    -0.680 N 
ATOM      4  H   LIG    1        1.942   5.311  -3.051  0.00  0.00    +0.410 HD
ENDROOT
BRANCH   2   5
ATOM      5  C   LIG    1       -0.562   4.561  -3.026  0.00  0.00    +0.100 A 
ATOM      6  C   LIG    1       -1.815   3.983  -2.857  0.00  0.00    +0.020 A 
ATOM      7  C   LIG    1       -2.868   4.407  -3.667  0.00  0.00    +0.150 A 
ATOM      8  C   LIG    1       -2.617   5.397  -4.615  0.00  0.00    -0.070 A 
ATOM      9  C   LIG    1       -1.342   5.923  -4.722  0.00  0.00    +0.290 A 
ATOM     10  N   LIG    1       -0.369   5.506  -3.939  0.00  0.00    -0.480 NA
BRANCH   7  11
ATOM     11  N   LIG    1       -4.139   3.856  -3.531  0.00  0.00    -0.480 N 
ATOM     12  C   LIG    1       -4.096   2.395  -3.676  0.00  0.00    +0.200 C 
ATOM     13  C   LIG    1       -5.479   1.811  -3.378  0.00  0.00    +0.040 C 
ATOM     14  C   LIG    1       -6.501   2.409  -4.349  0.00  0.00    +0.000 C 
ATOM     15  C   LIG    1       -6.490   3.935  -4.213  0.00  0.00    +0.020 C 
ATOM     16  C   LIG    1       -5.078   4.457  -4.487  0.00  0.00    +0.190 C 
ENDBRANCH   7  11
ENDBRANCH   2   5
BRANCH   3  17
ATOM     17  C   LIG    1        2.876   4.329  -1.417  0.00  0.00    +0.110 C 
ATOM     18  C   LIG    1        3.726   3.105  -1.766  0.00  0.00    +0.030 C 
ATOM     19  C   LIG    1        4.309   4.512  -1.921  0.00  0.00    +0.040 C 
BRANCH  17  20
ATOM     20  C   LIG    1        2.608   4.603   0.064  0.00  0.00    +0.130 C 
BRANCH  20  21
ATOM     21  C   LIG    1        3.848   4.298   0.864  0.00  0.00    -0.090 A 
ATOM     22  C   LIG    1        4.815   5.271   1.038  0.00  0.00    +0.040 A 
ATOM     23  C   LIG    1        5.953   4.992   1.770  0.00  0.00    -0.010 A 
ATOM     24  C   LIG    1        6.127   3.736   2.327  0.00  0.00    +0.100 A 
ATOM     25  C   LIG    1        5.155   2.764   2.158  0.00  0.00    -0.010 A 
ATOM     26  F   LIG    1        7.241   3.460   3.039  0.00  0.00    -0.140 F 
ATOM     27  C   LIG    1        4.018   3.046   1.424  0.00  0.00    +0.060 A 
ENDBRANCH  20  21
ENDBRANCH  17  20
ENDBRANCH   3  17
TORSDOF 5
