REMARK  Name = ZINCqH0000000qJg.0
REMARK                            x       y       z     vdW  Elec       q    Type
REMARK                         _______ _______ _______ _____ _____    ______ ____
ROOT
ATOM      1  C   LIG    1       -0.990   1.571  -1.197  0.00  0.00    +0.510 C 
ATOM      2  N   LIG    1       -0.656   1.258  -2.465  0.00  0.00    -0.610 N 
ATOM      3  C   LIG    1        0.540   0.453  -2.747  0.00  0.00    +0.260 C 
ATOM      4  C   LIG    1        1.414   1.198  -3.754  0.00  0.00    +0.020 C 
ATOM      5  C   LIG    1        0.582   1.542  -4.992  0.00  0.00    -0.010 C 
ATOM      6  C   LIG    1       -0.579   2.454  -4.590  0.00  0.00    +0.020 C 
ATOM      7  C   LIG    1       -1.479   1.719  -3.591  0.00  0.00    +0.270 C 
ATOM      8  O   LIG    1       -1.978   2.240  -0.978  0.00  0.00    -0.530 OA
ENDROOT
BRANCH   1   9
ATOM      9  C   LIG    1       -0.137   1.090  -0.052  0.00  0.00    +0.060 C 
BRANCH   9  10
ATOM     10  C   LIG    1       -0.732   1.581   1.269  0.00  0.00    +0.350 C 
BRANCH  10  13
ATOM     11  C   LIG    1       -1.550   5.238   2.039  0.00  0.00    +0.100 C 
ATOM     12  C   LIG    1       -1.547   3.732   2.072  0.00  0.00    +0.520 C 
ATOM     13  N   LIG    1       -0.664   3.043   1.323  0.00  0.00    -0.720 N 
ATOM     14  H   LIG    1        0.017   3.516   0.818  0.00  0.00    +0.400 HD
ATOM     15  O   LIG    1       -2.340   3.139   2.773  0.00  0.00    -0.540 OA
ENDBRANCH  10  13
BRANCH  10  16
ATOM     16  C   LIG    1        0.050   0.999   2.419  0.00  0.00    -0.190 A 
ATOM     17  C   LIG    1       -0.367   0.009   3.210  0.00  0.00    +0.020 A 
ATOM     18  C   LIG    1        0.524  -0.360   4.202  0.00  0.00    +0.010 A 
ATOM     19  C   LIG    1        1.665   0.331   4.218  0.00  0.00    -0.050 A 
ATOM     20  S   LIG    1        1.654   1.517   2.919  0.00  0.00    +0.100 S 
ENDBRANCH  10  16
ENDBRANCH   9  10
ENDBRANCH   1   9
BRANCH   5  21
ATOM     21  C   LIG    1        1.464   2.260  -6.016  0.00  0.00    +0.060 C 
BRANCH  21  22
ATOM     22  C   LIG    1        2.535   1.319  -6.503  0.00  0.00    -0.080 A 
ATOM     23  C   LIG    1        3.752   1.259  -5.849  0.00  0.00    +0.000 A 
ATOM     24  C   LIG    1        4.733   0.393  -6.293  0.00  0.00    +0.000 A 
ATOM     25  C   LIG    1        4.502  -0.406  -7.397  0.00  0.00    +0.000 A 
ATOM     26  C   LIG    1        3.287  -0.343  -8.054  0.00  0.00    +0.000 A 
ATOM     27  C   LIG    1        2.304   0.520  -7.607  0.00  0.00    +0.000 A 
ENDBRANCH  21  22
ENDBRANCH   5  21
TORSDOF 6
