REMARK  Name = ZINCrH000004o1Ey.0
REMARK                            x       y       z     vdW  Elec       q    Type
REMARK                         _______ _______ _______ _____ _____    ______ ____
ROOT
ATOM      1  C   LIG    1       -1.215   1.681   0.049  0.00  0.00    +0.080 A 
ATOM      2  C   LIG    1       -1.202   3.068  -0.027  0.00  0.00    +0.040 A 
ATOM      3  C   LIG    1       -2.389   3.772   0.009  0.00  0.00    -0.050 A 
ATOM      4  C   LIG    1       -3.595   3.095   0.133  0.00  0.00    +0.210 A 
ATOM      5  C   LIG    1       -3.608   1.709   0.214  0.00  0.00    -0.060 A 
ATOM      6  C   LIG    1       -2.421   1.004   0.173  0.00  0.00    +0.070 A 
ENDROOT
BRANCH   1   8
ATOM      7  C   LIG    1        0.037  -0.237  -0.599  0.00  0.00    +0.500 C 
ATOM      8  N   LIG    1       -0.011   0.966   0.007  0.00  0.00    -0.660 N 
ATOM      9  H   LIG    1        0.787   1.334   0.418  0.00  0.00    +0.410 HD
ATOM     10  O   LIG    1       -0.977  -0.736  -1.039  0.00  0.00    -0.500 OA
BRANCH   7  12
ATOM     11  C   LIG    1        2.330  -0.103  -1.535  0.00  0.00    +0.100 C 
ATOM     12  C   LIG    1        1.352  -0.962  -0.731  0.00  0.00    +0.270 C 
BRANCH  12  13
ATOM     13  N   LIG    1        1.140  -2.236  -1.421  0.00  0.00    -0.370 N 
ATOM     14  C   LIG    1        1.103  -2.436  -2.750  0.00  0.00    +0.490 A 
ATOM     15  N   LIG    1        0.893  -3.710  -2.963  0.00  0.00    -0.540 NA
ATOM     16  C   LIG    1        0.791  -4.352  -1.800  0.00  0.00    +0.420 A 
ATOM     17  N   LIG    1        0.941  -3.493  -0.826  0.00  0.00    -0.310 NA
ENDBRANCH  12  13
ENDBRANCH   7  12
ENDBRANCH   1   8
BRANCH   4  18
ATOM     18  N   LIG    1       -4.797   3.810   0.174  0.00  0.00    -0.740 N 
ATOM     19  H   LIG    1       -5.640   3.337   0.260  0.00  0.00    +0.400 HD
BRANCH  18  20
ATOM     20  C   LIG    1       -4.784   5.272   0.087  0.00  0.00    +0.290 C 
ATOM     21  C   LIG    1       -6.154   5.792  -0.398  0.00  0.00    +0.050 C 
ATOM     22  C   LIG    1       -6.298   7.119   0.378  0.00  0.00    +0.090 C 
ATOM     23  C   LIG    1       -5.464   6.939   1.629  0.00  0.00    -0.060 A 
ATOM     24  C   LIG    1       -5.467   7.648   2.818  0.00  0.00    -0.020 A 
ATOM     25  C   LIG    1       -4.602   7.297   3.839  0.00  0.00    +0.110 A 
ATOM     26  C   LIG    1       -3.731   6.234   3.671  0.00  0.00    -0.020 A 
ATOM     27  C   LIG    1       -3.728   5.528   2.484  0.00  0.00    +0.070 A 
ATOM     28  F   LIG    1       -4.607   7.990   4.999  0.00  0.00    -0.140 F 
ATOM     29  C   LIG    1       -4.594   5.878   1.462  0.00  0.00    -0.130 A 
ENDBRANCH  18  20
ENDBRANCH   4  18
TORSDOF 5
