REMARK  Name = ZINCrH00000No4Ik.0
REMARK                            x       y       z     vdW  Elec       q    Type
REMARK                         _______ _______ _______ _____ _____    ______ ____
ROOT
ATOM      1  C   LIG    1        0.027   5.508  10.675  0.00  0.00    +0.100 C 
ATOM      2  C   LIG    1        0.042   4.063  10.249  0.00  0.00    -0.100 A 
ATOM      3  C   LIG    1        0.034   3.742   8.909  0.00  0.00    +0.100 A 
ATOM      4  C   LIG    1        0.049   2.405   8.517  0.00  0.00    -0.080 A 
ATOM      5  C   LIG    1        0.071   1.390   9.485  0.00  0.00    +0.150 A 
ATOM      6  N   LIG    1        0.082   0.166   8.835  0.00  0.00    -0.480 N 
ATOM      7  C   LIG    1        0.067   0.347   7.474  0.00  0.00    +0.370 A 
ATOM      8  N   LIG    1        0.064  -0.494   6.444  0.00  0.00    -0.480 NA
ATOM      9  C   LIG    1        0.051  -0.009   5.210  0.00  0.00    +0.250 A 
ATOM     10  N   LIG    1        0.032   1.301   4.984  0.00  0.00    -0.310 NA
ATOM     11  N   LIG    1        0.029   2.153   5.951  0.00  0.00    -0.130 NA
ATOM     12  C   LIG    1        0.107  -1.136   9.505  0.00  0.00    +0.340 C 
ATOM     13  C   LIG    1        0.078   1.734  10.833  0.00  0.00    +0.000 A 
ATOM     14  C   LIG    1        0.046   1.731   7.207  0.00  0.00    +0.000 A 
ATOM     15  C   LIG    1        0.065   3.061  11.207  0.00  0.00    +0.070 A 
ENDROOT
BRANCH   9  16
ATOM     16  S   LIG    1        0.054  -1.121   3.844  0.00  0.00    +0.120 S 
BRANCH  16  17
ATOM     17  C   LIG    1        0.025   0.062   2.475  0.00  0.00    +0.100 C 
BRANCH  17  18
ATOM     18  C   LIG    1        0.022  -0.684   1.165  0.00  0.00    +0.530 C 
ATOM     19  N   LIG    1        0.002  -0.004   0.002  0.00  0.00    -0.600 N 
ATOM     20  C   LIG    1       -0.018   1.461   0.010  0.00  0.00    +0.290 C 
ATOM     21  O   LIG    1        0.039  -1.897   1.159  0.00  0.00    -0.520 OA
BRANCH  19  22
ATOM     22  C   LIG    1       -0.000  -0.730  -1.271  0.00  0.00    +0.240 C 
ATOM     23  C   LIG    1        1.236  -0.339  -2.083  0.00  0.00    +0.010 C 
ATOM     24  C   LIG    1        1.234  -1.097  -3.412  0.00  0.00    +0.020 C 
ATOM     25  C   LIG    1       -0.028  -0.740  -4.200  0.00  0.00    +0.000 C 
ATOM     26  C   LIG    1       -1.264  -1.131  -3.388  0.00  0.00    +0.020 C 
ATOM     27  C   LIG    1       -1.262  -0.373  -2.059  0.00  0.00    +0.010 C 
ENDBRANCH  19  22
ENDBRANCH  17  18
ENDBRANCH  16  17
ENDBRANCH   9  16
TORSDOF 4
