REMARK  Name = ZINCqH0000032t73.1
REMARK                            x       y       z     vdW  Elec       q    Type
REMARK                         _______ _______ _______ _____ _____    ______ ____
ROOT
ATOM      1  C   LIG    1        0.610  -0.404   6.968  0.00  0.00    +0.050 A 
ATOM      2  N   LIG    1        1.232  -0.838   5.907  0.00  0.00    -0.220 NA
ATOM      3  N   LIG    1        0.858  -0.355   4.802  0.00  0.00    -0.260 NA
ATOM      4  C   LIG    1       -0.095   0.529   4.820  0.00  0.00    +0.220 A 
ATOM      5  S   LIG    1       -0.592   0.773   6.441  0.00  0.00    +0.130 S 
ENDROOT
BRANCH   1   9
ATOM      6  C   LIG    1        1.346  -1.612  10.974  0.00  0.00    -0.050 A 
ATOM      7  C   LIG    1        2.088  -2.159   9.942  0.00  0.00    +0.010 A 
ATOM      8  C   LIG    1        1.854  -1.771   8.639  0.00  0.00    +0.080 A 
ATOM      9  C   LIG    1        0.867  -0.824   8.363  0.00  0.00    -0.030 A 
ATOM     10  C   LIG    1        0.126  -0.272   9.409  0.00  0.00    +0.030 A 
ATOM     11  C   LIG    1        0.366  -0.673  10.707  0.00  0.00    +0.020 A 
BRANCH   6  13
ATOM     12  C   LIG    1        2.020  -0.825  13.226  0.00  0.00    +0.030 C 
ATOM     13  C   LIG    1        1.607  -2.041  12.395  0.00  0.00    +0.020 C 
ATOM     14  C   LIG    1        0.335  -2.654  12.984  0.00  0.00    +0.030 C 
ENDBRANCH   6  13
ENDBRANCH   1   9
BRANCH   4  15
ATOM     15  N   LIG    1       -0.628   1.166   3.706  0.00  0.00    -0.630 N 
ATOM     16  H   LIG    1       -1.344   1.812   3.813  0.00  0.00    +0.430 HD
ATOM     17  C   LIG    1       -0.150   0.887   2.477  0.00  0.00    +0.520 C 
ATOM     18  O   LIG    1        0.745   0.080   2.344  0.00  0.00    -0.460 OA
BRANCH  17  19
ATOM     19  C   LIG    1       -0.727   1.579   1.269  0.00  0.00    +0.010 C 
ATOM     20  C   LIG    1       -0.013   1.086   0.008  0.00  0.00    +0.070 C 
ATOM     21  C   LIG    1       -0.752   1.593  -1.235  0.00  0.00    +0.290 C 
ATOM     22  N   LIG    1       -0.956   3.037  -1.104  0.00  0.00    -0.460 N 
ATOM     23  C   LIG    1       -1.263   3.928  -2.062  0.00  0.00    +0.400 A 
ATOM     24  N   LIG    1       -1.351   5.113  -1.516  0.00  0.00    -0.490 NA
ATOM     25  C   LIG    1       -1.105   5.015  -0.198  0.00  0.00    +0.160 A 
ATOM     26  C   LIG    1       -0.858   3.728   0.077  0.00  0.00    -0.030 A 
ATOM     27  C   LIG    1       -0.530   3.095   1.405  0.00  0.00    +0.140 C 
ENDBRANCH  17  19
ENDBRANCH   4  15
TORSDOF 4
