REMARK  Name = ZINCvU0000000HX7.0
REMARK                            x       y       z     vdW  Elec       q    Type
REMARK                         _______ _______ _______ _____ _____    ______ ____
ROOT
ATOM      1  C   LIG    1       -4.938   3.204   1.980  0.00  0.00    +0.520 C 
ATOM      2  N   LIG    1       -5.624   2.447   1.101  0.00  0.00    -0.610 N 
ATOM      3  C   LIG    1       -7.085   2.326   1.197  0.00  0.00    +0.280 C 
ATOM      4  C   LIG    1       -7.700   2.689  -0.158  0.00  0.00    +0.010 C 
ATOM      5  C   LIG    1       -7.068   1.822  -1.249  0.00  0.00    +0.030 C 
ATOM      6  C   LIG    1       -5.563   2.095  -1.313  0.00  0.00    +0.030 C 
ATOM      7  C   LIG    1       -4.924   1.725   0.029  0.00  0.00    +0.330 C 
ATOM      8  O   LIG    1       -3.744   3.364   1.840  0.00  0.00    -0.510 OA
ENDROOT
BRANCH   7   9
ATOM      9  C   LIG    1       -3.470   2.118   0.021  0.00  0.00    +0.130 A 
ATOM     10  N   LIG    1       -2.526   1.394   0.492  0.00  0.00    -0.470 NA
ATOM     11  C   LIG    1       -1.269   1.872   0.418  0.00  0.00    +0.100 A 
ATOM     12  C   LIG    1       -0.059   1.294   0.850  0.00  0.00    +0.060 A 
ATOM     13  C   LIG    1        1.121   1.950   0.673  0.00  0.00    +0.020 A 
ATOM     14  C   LIG    1        1.155   3.200   0.071  0.00  0.00    +0.020 A 
ATOM     15  C   LIG    1       -0.012   3.792  -0.357  0.00  0.00    +0.060 A 
ATOM     16  C   LIG    1       -1.228   3.135  -0.184  0.00  0.00    -0.180 A 
ATOM     17  S   LIG    1       -2.876   3.591  -0.604  0.00  0.00    +0.120 S 
ENDBRANCH   7   9
BRANCH   1  18
ATOM     18  C   LIG    1       -5.655   3.853   3.135  0.00  0.00    +0.080 C 
BRANCH  18  19
ATOM     19  C   LIG    1       -4.654   4.651   3.974  0.00  0.00    +0.210 C 
BRANCH  19  23
ATOM     20  C   LIG    1       -6.472   6.737   6.331  0.00  0.00    -0.000 A 
ATOM     21  C   LIG    1       -6.226   5.630   7.077  0.00  0.00    +0.170 A 
ATOM     22  N   LIG    1       -5.551   4.765   6.304  0.00  0.00    -0.470 NA
ATOM     23  C   LIG    1       -5.371   5.300   5.129  0.00  0.00    +0.190 A 
ATOM     24  O   LIG    1       -5.931   6.517   5.113  0.00  0.00    -0.190 OA
BRANCH  20  29
ATOM     25  C   LIG    1       -9.279  11.463   8.034  0.00  0.00    +0.090 C 
ATOM     26  C   LIG    1       -8.544  10.226   7.588  0.00  0.00    -0.070 A 
ATOM     27  C   LIG    1       -8.373   9.172   8.468  0.00  0.00    +0.010 A 
ATOM     28  C   LIG    1       -7.700   8.036   8.066  0.00  0.00    +0.040 A 
ATOM     29  C   LIG    1       -7.193   7.951   6.769  0.00  0.00    -0.020 A 
ATOM     30  C   LIG    1       -7.365   9.020   5.887  0.00  0.00    +0.040 A 
ATOM     31  C   LIG    1       -8.045  10.148   6.300  0.00  0.00    +0.010 A 
ENDBRANCH  20  29
ENDBRANCH  19  23
ENDBRANCH  18  19
ENDBRANCH   1  18
TORSDOF 5
