REMARK  Name = ZINCpk00000kW5SD.0
REMARK                            x       y       z     vdW  Elec       q    Type
REMARK                         _______ _______ _______ _____ _____    ______ ____
ROOT
ATOM      1  N   LIG    1        3.571  -1.833   3.946  0.00  0.00    -0.710 N 
ATOM      2  H   LIG    1        3.542  -2.752   4.255  0.00  0.00    +0.410 HD
ENDROOT
BRANCH   1  12
ATOM      3  C   LIG    1        1.739  -2.296   2.443  0.00  0.00    -0.150 A 
ATOM      4  C   LIG    1        0.857  -1.830   1.463  0.00  0.00    +0.170 A 
ATOM      5  C   LIG    1        0.949  -0.507   1.061  0.00  0.00    -0.190 A 
ATOM      6  C   LIG    1        1.898   0.317   1.633  0.00  0.00    +0.180 A 
ATOM      7  N   LIG    1        2.725  -0.149   2.557  0.00  0.00    -0.520 NA
ATOM      8  C   LIG    1        2.018   1.766   1.231  0.00  0.00    +0.310 C 
ATOM      9  O   LIG    1        1.334   1.996   0.000  0.00  0.00    -0.370 OA
ATOM     10  C   LIG    1       -0.019   1.526   0.010  0.00  0.00    +0.220 C 
ATOM     11  C   LIG    1        0.002  -0.004   0.002  0.00  0.00    +0.080 C 
ATOM     12  C   LIG    1        2.683  -1.401   2.977  0.00  0.00    +0.450 A 
BRANCH   3  14
ATOM     13  N   LIG    1        1.637  -4.731   3.251  0.00  0.00    -0.410 NA
ATOM     14  C   LIG    1        1.682  -3.654   2.893  0.00  0.00    +0.260 C 
ENDBRANCH   3  14
ENDBRANCH   1  12
BRANCH   1  15
ATOM     15  C   LIG    1        4.556  -0.903   4.504  0.00  0.00    +0.270 C 
ATOM     16  C   LIG    1        5.758  -1.684   5.073  0.00  0.00    +0.050 C 
ATOM     17  C   LIG    1        6.159  -0.894   6.343  0.00  0.00    +0.000 C 
ATOM     18  C   LIG    1        4.789  -0.463   6.924  0.00  0.00    +0.000 C 
ATOM     19  C   LIG    1        3.939  -0.126   5.681  0.00  0.00    +0.160 C 
BRANCH  19  20
ATOM     20  O   LIG    1        3.989   1.278   5.420  0.00  0.00    -0.550 OA
ATOM     21  H   LIG    1        3.615   1.822   6.127  0.00  0.00    +0.380 HD
ENDBRANCH  19  20
BRANCH  17  22
ATOM     22  C   LIG    1        6.909  -1.790   7.330  0.00  0.00    +0.330 C 
BRANCH  22  23
ATOM     23  N   LIG    1        7.269  -1.012   8.518  0.00  0.00    -0.370 N 
ATOM     24  C   LIG    1        6.956  -1.321   9.794  0.00  0.00    +0.220 A 
ATOM     25  C   LIG    1        7.473  -0.357  10.591  0.00  0.00    -0.120 A 
ATOM     26  C   LIG    1        8.116   0.577   9.773  0.00  0.00    +0.220 A 
ATOM     27  N   LIG    1        7.995   0.186   8.530  0.00  0.00    -0.290 NA
ENDBRANCH  22  23
ENDBRANCH  17  22
ENDBRANCH   1  15
TORSDOF 6
