REMARK  Name = ZINCnE000001F9zn.0
REMARK                            x       y       z     vdW  Elec       q    Type
REMARK                         _______ _______ _______ _____ _____    ______ ____
ROOT
ATOM      1  C   LIG    1       -0.389   6.510   0.038  0.00  0.00    +0.080 C 
ENDROOT
BRANCH   1   2
ATOM      2  C   LIG    1        0.758   5.532   0.022  0.00  0.00    +0.420 C 
ATOM      3  O   LIG    1        1.901   5.939   0.013  0.00  0.00    -0.430 OA
BRANCH   2   4
ATOM      4  C   LIG    1        0.492   4.088   0.018  0.00  0.00    -0.150 A 
ATOM      5  C   LIG    1       -0.826   3.617   0.028  0.00  0.00    +0.100 A 
ATOM      6  C   LIG    1       -1.072   2.262   0.019  0.00  0.00    +0.030 A 
ATOM      7  C   LIG    1       -0.016   1.359   0.009  0.00  0.00    +0.060 A 
ATOM      8  O   LIG    1        0.002  -0.004   0.002  0.00  0.00    -0.310 OA
ATOM      9  C   LIG    1        1.335  -0.374   0.401  0.00  0.00    +0.430 C 
ATOM     10  O   LIG    1        2.140   0.745  -0.014  0.00  0.00    -0.310 OA
ATOM     11  C   LIG    1        1.301   1.822  -0.001  0.00  0.00    +0.020 A 
ATOM     12  C   LIG    1        1.557   3.178   0.004  0.00  0.00    +0.110 A 
ENDBRANCH   2   4
ENDBRANCH   1   2
BRANCH   1  13
ATOM     13  S   LIG    1        0.260   8.204   0.039  0.00  0.00    +0.010 S 
BRANCH  13  18
ATOM     14  N   LIG    1       -3.844  12.060   0.098  0.00  0.00    -0.640 NA
ATOM     15  C   LIG    1       -3.068  11.003   0.085  0.00  0.00    +0.340 A 
ATOM     16  N   LIG    1       -3.444   9.691   0.083  0.00  0.00    -0.510 NA
ATOM     17  N   LIG    1       -2.425   8.765   0.068  0.00  0.00    -0.250 NA
ATOM     18  C   LIG    1       -1.201   9.188   0.058  0.00  0.00    -0.080 A 
ATOM     19  S   LIG    1       -1.294  10.958   0.074  0.00  0.00    -0.100 S 
BRANCH  14  20
ATOM     20  C   LIG    1       -5.300  11.900   0.112  0.00  0.00    +0.170 C 
BRANCH  20  21
ATOM     21  C   LIG    1       -5.860  12.444   1.427  0.00  0.00    +0.000 C 
BRANCH  21  23
ATOM     22  C   LIG    1       -7.942  12.820   2.757  0.00  0.00    +0.000 C 
ATOM     23  C   LIG    1       -7.381  12.277   1.441  0.00  0.00    +0.000 C 
ENDBRANCH  21  23
ENDBRANCH  20  21
ENDBRANCH  14  20
ENDBRANCH  13  18
ENDBRANCH   1  13
TORSDOF 7
