REMARK  Name = ZINCrD000000fPTO.0
REMARK                            x       y       z     vdW  Elec       q    Type
REMARK                         _______ _______ _______ _____ _____    ______ ____
ROOT
ATOM      1  N   LIG    1        0.002  -0.004   0.002  0.00  0.00    -0.500 N 
ATOM      2  C   LIG    1        0.554  -0.516  -1.259  0.00  0.00    +0.230 C 
ENDROOT
BRANCH   1   6
ATOM      3  C   LIG    1       -3.787  -1.548   0.702  0.00  0.00    -0.170 A 
ATOM      4  C   LIG    1       -3.559  -0.721  -0.405  0.00  0.00    +0.130 A 
ATOM      5  C   LIG    1       -2.311  -0.215  -0.632  0.00  0.00    -0.010 A 
ATOM      6  C   LIG    1       -1.266  -0.520   0.236  0.00  0.00    +0.190 A 
ATOM      7  C   LIG    1       -1.487  -1.347   1.336  0.00  0.00    -0.030 A 
ATOM      8  C   LIG    1       -2.733  -1.853   1.573  0.00  0.00    +0.170 A 
BRANCH   3  10
ATOM      9  C   LIG    1       -6.260  -1.765   0.012  0.00  0.00    +0.090 C 
ATOM     10  C   LIG    1       -5.127  -2.094   0.950  0.00  0.00    +0.390 C 
ATOM     11  O   LIG    1       -5.322  -2.810   1.909  0.00  0.00    -0.440 OA
ENDBRANCH   3  10
BRANCH   7  12
ATOM     12  N   LIG    1       -0.370  -1.673   2.252  0.00  0.00    +0.020 N 
ATOM     13  O   LIG    1        0.740  -1.219   2.044  0.00  0.00    -0.090 OA
ATOM     14  O   LIG    1       -0.563  -2.395   3.213  0.00  0.00    -0.190 OA
ENDBRANCH   7  12
ENDBRANCH   1   6
BRANCH   1  15
ATOM     15  C   LIG    1       -0.018   1.465   0.010  0.00  0.00    +0.250 C 
BRANCH  15  16
ATOM     16  C   LIG    1        1.396   1.986  -0.001  0.00  0.00    -0.050 A 
ATOM     17  C   LIG    1        2.052   2.224   1.194  0.00  0.00    +0.040 A 
ATOM     18  C   LIG    1        3.348   2.697   1.192  0.00  0.00    +0.050 A 
ATOM     19  C   LIG    1        3.994   2.945  -0.020  0.00  0.00    -0.130 A 
ATOM     20  C   LIG    1        3.325   2.709  -1.222  0.00  0.00    +0.080 A 
ATOM     21  C   LIG    1        2.031   2.231  -1.205  0.00  0.00    +0.010 A 
BRANCH  19  22
ATOM     22  C   LIG    1        5.381   3.458  -0.031  0.00  0.00    +0.560 C 
ATOM     23  N   LIG    1        6.024   3.685   1.132  0.00  0.00    -0.700 N 
ATOM     24  H   LIG    1        5.577   3.513   1.975  0.00  0.00    +0.400 HD
ATOM     25  O   LIG    1        5.941   3.674  -1.088  0.00  0.00    -0.530 OA
BRANCH  23  26
ATOM     26  C   LIG    1        7.398   4.192   1.121  0.00  0.00    +0.220 C 
ATOM     27  C   LIG    1        8.394   3.554   2.091  0.00  0.00    +0.010 C 
ATOM     28  C   LIG    1        7.874   4.969   2.351  0.00  0.00    +0.020 C 
ENDBRANCH  23  26
ENDBRANCH  19  22
ENDBRANCH  15  16
ENDBRANCH   1  15
TORSDOF 7
