REMARK  Name = ZINCqH0000008yHN.0
REMARK                            x       y       z     vdW  Elec       q    Type
REMARK                         _______ _______ _______ _____ _____    ______ ____
ROOT
ATOM      1  N   LIG    1        4.894   4.505  -1.079  0.00  0.00    -0.520 NA
ATOM      2  C   LIG    1        4.818   3.576   0.057  0.00  0.00    +0.200 C 
ATOM      3  C   LIG    1        3.506   2.792  -0.015  0.00  0.00    +0.240 C 
ATOM      4  N   LIG    1        2.376   3.731  -0.001  0.00  0.00    -0.480 N 
ATOM      5  C   LIG    1        2.451   4.660  -1.137  0.00  0.00    +0.220 C 
ATOM      6  C   LIG    1        3.764   5.444  -1.064  0.00  0.00    +0.200 C 
ENDROOT
BRANCH   4   7
ATOM      7  C   LIG    1        1.167   3.053   0.007  0.00  0.00    +0.420 A 
ATOM      8  C   LIG    1       -0.047   3.759   0.022  0.00  0.00    -0.280 A 
ATOM      9  S   LIG    1       -0.397   5.481   0.034  0.00  0.00    +0.150 S 
ATOM     10  C   LIG    1       -2.126   5.176   0.049  0.00  0.00    +0.020 A 
ATOM     11  C   LIG    1       -2.373   3.875   0.045  0.00  0.00    +0.030 A 
ATOM     12  C   LIG    1       -1.245   3.040   0.029  0.00  0.00    +0.190 A 
ATOM     13  N   LIG    1       -1.169   1.689   0.017  0.00  0.00    -0.510 NA
ATOM     14  C   LIG    1       -0.013   1.076   0.008  0.00  0.00    +0.530 A 
ATOM     15  N   LIG    1        1.137   1.726   0.001  0.00  0.00    -0.550 NA
ENDBRANCH   4   7
BRANCH   1  17
ATOM     16  C   LIG    1        7.323   4.218  -1.198  0.00  0.00    +0.080 C 
ATOM     17  C   LIG    1        6.175   5.224  -1.087  0.00  0.00    +0.260 C 
BRANCH  17  18
ATOM     18  C   LIG    1        6.216   6.165  -2.263  0.00  0.00    +0.250 A 
ATOM     19  N   LIG    1        5.854   5.858  -3.473  0.00  0.00    -0.450 NA
ATOM     20  C   LIG    1        6.021   6.947  -4.270  0.00  0.00    +0.020 A 
ATOM     21  C   LIG    1        5.799   7.195  -5.625  0.00  0.00    +0.080 A 
ATOM     22  C   LIG    1        6.083   8.438  -6.148  0.00  0.00    +0.020 A 
ATOM     23  C   LIG    1        6.588   9.442  -5.336  0.00  0.00    +0.050 A 
ATOM     24  C   LIG    1        6.811   9.211  -3.994  0.00  0.00    +0.050 A 
ATOM     25  C   LIG    1        6.532   7.967  -3.452  0.00  0.00    +0.010 A 
ATOM     26  O   LIG    1        6.638   7.438  -2.213  0.00  0.00    -0.220 OA
ENDBRANCH  17  18
ENDBRANCH   1  17
TORSDOF 3
