REMARK  Name = ZINCpk00000ebiZL.0
REMARK                            x       y       z     vdW  Elec       q    Type
REMARK                         _______ _______ _______ _____ _____    ______ ____
ROOT
ATOM      1  C   LIG    1        2.511   1.445  -0.014  0.00  0.00    +0.060 C 
ATOM      2  C   LIG    1        2.949   1.184  -1.457  0.00  0.00    +0.040 C 
ATOM      3  C   LIG    1        4.423   0.768  -1.472  0.00  0.00    +0.270 C 
ATOM      4  N   LIG    1        4.601  -0.379  -0.571  0.00  0.00    -0.610 N 
ATOM      5  C   LIG    1        4.131  -0.266   0.817  0.00  0.00    +0.280 C 
ATOM      6  C   LIG    1        5.184  -1.512  -1.009  0.00  0.00    +0.500 C 
ATOM      7  O   LIG    1        5.324  -2.452  -0.255  0.00  0.00    -0.520 OA
ATOM      8  C   LIG    1        2.660   0.161   0.806  0.00  0.00    +0.040 C 
ENDROOT
BRANCH   1  14
ATOM      9  C   LIG    1        1.468   4.364   0.011  0.00  0.00    +0.360 C 
ATOM     10  N   LIG    1        0.630   3.162   0.013  0.00  0.00    -0.370 N 
ATOM     11  N   LIG    1       -0.771   3.134   0.026  0.00  0.00    -0.300 NA
ATOM     12  C   LIG    1       -1.155   1.883   0.017  0.00  0.00    +0.230 A 
ATOM     13  C   LIG    1       -0.013   1.076   0.008  0.00  0.00    -0.120 A 
ATOM     14  C   LIG    1        1.071   1.887   0.002  0.00  0.00    +0.090 A 
ENDBRANCH   1  14
BRANCH   6  15
ATOM     15  C   LIG    1        5.660  -1.612  -2.435  0.00  0.00    +0.360 C 
BRANCH  15  16
ATOM     16  N   LIG    1        6.252  -2.933  -2.661  0.00  0.00    -0.520 N 
ATOM     17  C   LIG    1        7.548  -3.255  -2.488  0.00  0.00    +0.690 A 
ATOM     18  N   LIG    1        7.735  -4.555  -2.786  0.00  0.00    -0.640 N 
ATOM     19  H   LIG    1        8.579  -5.032  -2.740  0.00  0.00    +0.440 HD
ATOM     20  C   LIG    1        6.512  -5.097  -3.175  0.00  0.00    +0.090 A 
ATOM     21  C   LIG    1        6.120  -6.361  -3.586  0.00  0.00    +0.030 A 
ATOM     22  C   LIG    1        4.799  -6.597  -3.916  0.00  0.00    +0.020 A 
ATOM     23  C   LIG    1        3.867  -5.577  -3.837  0.00  0.00    +0.020 A 
ATOM     24  C   LIG    1        4.249  -4.314  -3.428  0.00  0.00    +0.030 A 
ATOM     25  O   LIG    1        8.417  -2.489  -2.118  0.00  0.00    -0.550 OA
ATOM     26  C   LIG    1        5.572  -4.068  -3.096  0.00  0.00    +0.100 A 
ENDBRANCH  15  16
ENDBRANCH   6  15
TORSDOF 3
