REMARK  Name = ZINCrH000004mRrG.0
REMARK                            x       y       z     vdW  Elec       q    Type
REMARK                         _______ _______ _______ _____ _____    ______ ____
ROOT
ATOM      1  C   LIG    1        1.743   1.715   0.001  0.00  0.00    -0.060 A 
ATOM      2  N   LIG    1        2.143   0.470   0.000  0.00  0.00    -0.210 NA
ATOM      3  N   LIG    1        1.237  -0.409   0.011  0.00  0.00    -0.240 NA
ATOM      4  C   LIG    1        0.003  -0.005   0.021  0.00  0.00    +0.000 A 
ATOM      5  S   LIG    1       -0.021   1.708   0.017  0.00  0.00    +0.250 S 
ENDROOT
BRANCH   1   8
ATOM      6  N   LIG    1        3.948   2.766  -0.021  0.00  0.00    -0.640 N 
ATOM      7  H   LIG    1        4.344   1.883   0.045  0.00  0.00    +0.420 HD
ATOM      8  C   LIG    1        2.608   2.907  -0.010  0.00  0.00    +0.610 C 
ATOM      9  O   LIG    1        2.113   4.018  -0.008  0.00  0.00    -0.500 OA
BRANCH   6  13
ATOM     10  C   LIG    1        6.393   6.128  -0.342  0.00  0.00    +0.120 A 
ATOM     11  C   LIG    1        5.202   6.202   0.365  0.00  0.00    +0.010 A 
ATOM     12  C   LIG    1        4.392   5.089   0.472  0.00  0.00    +0.070 A 
ATOM     13  C   LIG    1        4.769   3.895  -0.129  0.00  0.00    +0.100 A 
ATOM     14  C   LIG    1        5.964   3.821  -0.833  0.00  0.00    +0.040 A 
ATOM     15  C   LIG    1        6.771   4.936  -0.943  0.00  0.00    -0.050 A 
BRANCH  10  17
ATOM     16  C   LIG    1        8.403   7.076  -1.189  0.00  0.00    +0.250 C 
ATOM     17  O   LIG    1        7.191   7.224  -0.446  0.00  0.00    -0.320 OA
ENDBRANCH  10  17
ENDBRANCH   6  13
ENDBRANCH   1   8
BRANCH   4  18
ATOM     18  C   LIG    1       -1.211  -0.897   0.033  0.00  0.00    +0.330 C 
BRANCH  18  19
ATOM     19  N   LIG    1       -1.594  -1.184   1.422  0.00  0.00    -0.670 NA
ATOM     20  H   LIG    1       -1.750  -0.331   1.938  0.00  0.00    +0.350 HD
BRANCH  19  21
ATOM     21  C   LIG    1       -2.777  -2.054   1.473  0.00  0.00    +0.230 C 
ATOM     22  C   LIG    1       -4.042  -1.201   1.370  0.00  0.00    +0.010 C 
BRANCH  21  23
ATOM     23  C   LIG    1       -2.787  -2.812   2.776  0.00  0.00    -0.040 A 
ATOM     24  C   LIG    1       -2.408  -2.180   3.945  0.00  0.00    +0.020 A 
ATOM     25  C   LIG    1       -2.422  -2.873   5.142  0.00  0.00    +0.040 A 
ATOM     26  C   LIG    1       -2.803  -4.201   5.168  0.00  0.00    -0.020 A 
ATOM     27  C   LIG    1       -3.178  -4.836   3.996  0.00  0.00    +0.100 A 
ATOM     28  F   LIG    1       -3.551  -6.135   4.020  0.00  0.00    -0.140 F 
ATOM     29  C   LIG    1       -3.169  -4.140   2.799  0.00  0.00    -0.020 A 
ENDBRANCH  21  23
ENDBRANCH  19  21
ENDBRANCH  18  19
ENDBRANCH   4  18
TORSDOF 7
