REMARK  Name = ZINCrH000004q4oo.0
REMARK                            x       y       z     vdW  Elec       q    Type
REMARK                         _______ _______ _______ _____ _____    ______ ____
ROOT
ATOM      1  C   LIG    1        0.281  -3.178   0.371  0.00  0.00    +0.070 C 
ATOM      2  C   LIG    1        0.722  -4.065   1.538  0.00  0.00    +0.020 C 
ATOM      3  C   LIG    1       -0.090  -5.363   1.523  0.00  0.00    +0.260 C 
ATOM      4  N   LIG    1        0.047  -5.992   0.202  0.00  0.00    -0.610 N 
ATOM      5  C   LIG    1       -0.265  -5.197  -0.994  0.00  0.00    +0.270 C 
ATOM      6  C   LIG    1        0.451  -7.272   0.089  0.00  0.00    +0.520 C 
ATOM      7  O   LIG    1        0.647  -7.753  -1.007  0.00  0.00    -0.510 OA
ATOM      8  C   LIG    1        0.549  -3.901  -0.951  0.00  0.00    +0.020 C 
ENDROOT
BRANCH   1  11
ATOM      9  C   LIG    1       -0.920  -0.338   0.721  0.00  0.00    +0.140 C 
ATOM     10  C   LIG    1        0.544  -0.653   0.553  0.00  0.00    +0.080 A 
ATOM     11  C   LIG    1        1.054  -1.885   0.403  0.00  0.00    -0.160 A 
ATOM     12  C   LIG    1        2.506  -1.735   0.275  0.00  0.00    -0.090 A 
ATOM     13  C   LIG    1        3.562  -2.630   0.099  0.00  0.00    +0.050 A 
ATOM     14  C   LIG    1        4.843  -2.160   0.014  0.00  0.00    -0.030 A 
ATOM     15  C   LIG    1        5.101  -0.799   0.100  0.00  0.00    +0.020 A 
ATOM     16  C   LIG    1        4.074   0.102   0.274  0.00  0.00    -0.010 A 
ATOM     17  C   LIG    1        2.763  -0.354   0.363  0.00  0.00    +0.100 A 
ATOM     18  N   LIG    1        1.550   0.275   0.532  0.00  0.00    -0.590 N 
ATOM     19  H   LIG    1        1.426   1.233   0.622  0.00  0.00    +0.410 HD
ENDBRANCH   1  11
BRANCH   6  20
ATOM     20  C   LIG    1        0.661  -8.108   1.326  0.00  0.00    +0.150 C 
ATOM     21  C   LIG    1        1.966  -7.692   2.007  0.00  0.00    +0.040 C 
BRANCH  20  22
ATOM     22  O   LIG    1        0.732  -9.488   0.962  0.00  0.00    -0.350 OA
BRANCH  22  23
ATOM     23  C   LIG    1        0.261 -10.381   1.974  0.00  0.00    +0.190 C 
BRANCH  23  24
ATOM     24  C   LIG    1        0.383 -11.823   1.478  0.00  0.00    +0.160 C 
ATOM     25  C   LIG    1       -0.072 -12.811   2.582  0.00  0.00    +0.020 C 
ATOM     26  C   LIG    1       -0.485 -14.039   1.726  0.00  0.00    +0.000 C 
ATOM     27  C   LIG    1       -1.052 -13.375   0.453  0.00  0.00    +0.190 C 
ATOM     28  O   LIG    1       -0.514 -12.050   0.379  0.00  0.00    -0.370 OA
ENDBRANCH  23  24
ENDBRANCH  22  23
ENDBRANCH  20  22
ENDBRANCH   6  20
TORSDOF 5
