REMARK  Name = ZINCc70000001nQH.1
REMARK                            x       y       z     vdW  Elec       q    Type
REMARK                         _______ _______ _______ _____ _____    ______ ____
ROOT
ATOM      1  C   LIG    1       -3.650   2.999   0.030  0.00  0.00    +0.080 A 
ATOM      2  C   LIG    1       -3.629   1.623  -0.156  0.00  0.00    +0.060 A 
ATOM      3  C   LIG    1       -2.425   0.947  -0.171  0.00  0.00    -0.060 A 
ATOM      4  C   LIG    1       -1.236   1.642   0.001  0.00  0.00    +0.200 A 
ATOM      5  C   LIG    1       -1.257   3.018   0.194  0.00  0.00    -0.060 A 
ATOM      6  C   LIG    1       -2.461   3.694   0.202  0.00  0.00    +0.030 A 
ENDROOT
BRANCH   1   8
ATOM      7  C   LIG    1       -5.974   3.088   0.541  0.00  0.00    +0.510 C 
ATOM      8  N   LIG    1       -4.872   3.685   0.045  0.00  0.00    -0.670 N 
ATOM      9  H   LIG    1       -4.924   4.589  -0.301  0.00  0.00    +0.410 HD
ATOM     10  O   LIG    1       -5.890   1.995   1.061  0.00  0.00    -0.510 OA
BRANCH   7  11
ATOM     11  C   LIG    1       -7.310   3.778   0.450  0.00  0.00    +0.220 C 
BRANCH  11  12
ATOM     12  N   LIG    1       -8.343   2.928   1.057  0.00  0.00    -0.830 NA
ATOM     13  H   LIG    1       -9.249   3.369   1.008  0.00  0.00    +0.350 HD
ATOM     14  H   LIG    1       -8.105   2.695   2.009  0.00  0.00    +0.350 HD
ENDBRANCH  11  12
ENDBRANCH   7  11
ENDBRANCH   1   8
BRANCH   4  15
ATOM     15  N   LIG    1       -0.016   0.957  -0.014  0.00  0.00    -0.880 N 
ATOM     16  H   LIG    1        0.815   1.444   0.103  0.00  0.00    +0.400 HD
ATOM     17  H   LIG    1       -0.001  -0.004  -0.144  0.00  0.00    +0.400 HD
ENDBRANCH   4  15
TORSDOF 4
