REMARK  Name = ZINCpe000027pH60.0
REMARK                            x       y       z     vdW  Elec       q    Type
REMARK                         _______ _______ _______ _____ _____    ______ ____
ROOT
ATOM      1  C   LIG    1        0.291   1.041   2.993  0.00  0.00    +0.470 C 
ATOM      2  O   LIG    1        1.141   1.747   2.504  0.00  0.00    -0.480 OA
ENDROOT
BRANCH   1   3
ATOM      3  C   LIG    1       -0.440   1.490   4.232  0.00  0.00    +0.310 C 
BRANCH   3   4
ATOM      4  O   LIG    1        0.046   2.772   4.634  0.00  0.00    -0.220 OA
BRANCH   4   6
ATOM      5  C   LIG    1       -0.228   4.442   6.261  0.00  0.00    +0.300 C 
ATOM      6  N   LIG    1       -0.579   3.287   5.795  0.00  0.00    -0.340 NA
BRANCH   5  10
ATOM      7  C   LIG    1       -2.103   5.987   9.743  0.00  0.00    +0.150 A 
ATOM      8  C   LIG    1       -1.112   6.723   9.106  0.00  0.00    -0.020 A 
ATOM      9  C   LIG    1       -0.501   6.226   7.976  0.00  0.00    +0.100 A 
ATOM     10  C   LIG    1       -0.879   4.979   7.471  0.00  0.00    -0.110 A 
ATOM     11  C   LIG    1       -1.879   4.245   8.112  0.00  0.00    +0.110 A 
ATOM     12  C   LIG    1       -2.482   4.747   9.245  0.00  0.00    -0.090 A 
BRANCH   7  14
ATOM     13  C   LIG    1       -3.713   5.673  11.463  0.00  0.00    +0.240 C 
ATOM     14  O   LIG    1       -2.703   6.481  10.857  0.00  0.00    -0.310 OA
ENDBRANCH   7  14
ENDBRANCH   5  10
ENDBRANCH   4   6
ENDBRANCH   3   4
ENDBRANCH   1   3
BRANCH   1  15
ATOM     15  O   LIG    1       -0.002  -0.143   2.433  0.00  0.00    -0.320 OA
BRANCH  15  16
ATOM     16  C   LIG    1        0.742  -0.511   1.242  0.00  0.00    +0.200 C 
BRANCH  16  17
ATOM     17  C   LIG    1        0.870  -2.011   1.172  0.00  0.00    +0.520 C 
ATOM     18  N   LIG    1        1.611  -2.580   0.200  0.00  0.00    -0.690 N 
ATOM     19  H   LIG    1        2.062  -2.023  -0.454  0.00  0.00    +0.410 HD
ATOM     20  C   LIG    1        1.725  -3.921   0.138  0.00  0.00    +0.700 C 
ATOM     21  O   LIG    1        1.160  -4.618   0.958  0.00  0.00    -0.530 OA
ATOM     22  N   LIG    1        2.466  -4.490  -0.834  0.00  0.00    -0.850 N 
ATOM     23  H   LIG    1        2.549  -5.455  -0.878  0.00  0.00    +0.420 HD
ATOM     24  H   LIG    1        2.917  -3.934  -1.488  0.00  0.00    +0.400 HD
ATOM     25  O   LIG    1        0.306  -2.706   1.990  0.00  0.00    -0.440 OA
ENDBRANCH  16  17
BRANCH  16  26
ATOM     26  C   LIG    1        0.002  -0.004   0.002  0.00  0.00    -0.020 C 
ATOM     27  C   LIG    1       -1.433  -0.534   0.013  0.00  0.00    +0.050 C 
ATOM     28  C   LIG    1       -0.019   1.526   0.010  0.00  0.00    +0.040 C 
ENDBRANCH  16  26
ENDBRANCH  15  16
ENDBRANCH   1  15
TORSDOF 9
