REMARK  Name = ZINCrH00000No4yC.0
REMARK                            x       y       z     vdW  Elec       q    Type
REMARK                         _______ _______ _______ _____ _____    ______ ____
ROOT
ATOM      1  C   LIG    1       -0.889   3.102   1.200  0.00  0.00    -0.030 C 
ATOM      2  C   LIG    1       -0.745   1.579   1.266  0.00  0.00    +0.050 C 
ATOM      3  C   LIG    1       -0.018   1.084   0.011  0.00  0.00    +0.280 C 
ATOM      4  N   LIG    1       -0.732   1.575  -1.176  0.00  0.00    -0.610 N 
ATOM      5  C   LIG    1       -1.001   3.014  -1.294  0.00  0.00    +0.270 C 
ATOM      6  C   LIG    1       -1.132   0.720  -2.138  0.00  0.00    +0.550 C 
ATOM      7  O   LIG    1       -0.822  -0.455  -2.076  0.00  0.00    -0.540 OA
ATOM      8  C   LIG    1       -1.720   3.487  -0.026  0.00  0.00    +0.030 C 
ENDROOT
BRANCH   1  10
ATOM      9  O   LIG    1       -2.785   3.688   2.477  0.00  0.00    -0.450 OA
ATOM     10  C   LIG    1       -1.576   3.595   2.447  0.00  0.00    +0.400 C 
BRANCH  10  11
ATOM     11  C   LIG    1       -0.780   3.964   3.628  0.00  0.00    -0.170 A 
ATOM     12  C   LIG    1        0.614   3.852   3.600  0.00  0.00    +0.060 A 
ATOM     13  C   LIG    1        1.353   4.204   4.710  0.00  0.00    +0.000 A 
ATOM     14  C   LIG    1        0.718   4.657   5.853  0.00  0.00    +0.040 A 
ATOM     15  C   LIG    1       -0.661   4.766   5.891  0.00  0.00    +0.000 A 
ATOM     16  C   LIG    1       -1.414   4.423   4.788  0.00  0.00    +0.070 A 
ENDBRANCH  10  11
ENDBRANCH   1  10
BRANCH   6  17
ATOM     17  C   LIG    1       -1.939   1.205  -3.260  0.00  0.00    -0.050 C 
ATOM     18  C   LIG    1       -2.426   0.335  -4.166  0.00  0.00    +0.110 C 
BRANCH  18  19
ATOM     19  C   LIG    1       -3.238   0.823  -5.293  0.00  0.00    -0.020 A 
ATOM     20  C   LIG    1       -3.510   2.188  -5.424  0.00  0.00    +0.040 A 
ATOM     21  C   LIG    1       -4.267   2.638  -6.485  0.00  0.00    +0.110 A 
ATOM     22  C   LIG    1       -4.765   1.741  -7.413  0.00  0.00    -0.040 A 
ATOM     23  C   LIG    1       -4.505   0.388  -7.288  0.00  0.00    +0.110 A 
ATOM     24  C   LIG    1       -3.745  -0.077  -6.235  0.00  0.00    +0.050 A 
BRANCH  22  25
ATOM     25  N   LIG    1       -5.582   2.232  -8.547  0.00  0.00    +0.030 N 
ATOM     26  O   LIG    1       -5.812   3.422  -8.660  0.00  0.00    -0.160 OA
ATOM     27  O   LIG    1       -6.022   1.445  -9.365  0.00  0.00    -0.160 OA
ENDBRANCH  22  25
ENDBRANCH  18  19
ENDBRANCH   6  17
TORSDOF 5
