REMARK  Name = ZINCkj000005lDQw.0
REMARK                            x       y       z     vdW  Elec       q    Type
REMARK                         _______ _______ _______ _____ _____    ______ ____
ROOT
ATOM      1  O   LIG    1       -1.714   2.237  -1.058  0.00  0.00    -0.490 OA
ATOM      2  C   LIG    1       -0.713   1.566  -1.198  0.00  0.00    +0.520 C 
ATOM      3  N   LIG    1       -0.273   1.262  -2.435  0.00  0.00    -0.640 N 
ATOM      4  C   LIG    1        0.942   0.455  -2.628  0.00  0.00    +0.320 C 
ATOM      5  C   LIG    1        0.612  -0.686  -3.603  0.00  0.00    +0.260 C 
ATOM      6  N   LIG    1        0.056  -0.123  -4.840  0.00  0.00    -0.380 N 
ATOM      7  C   LIG    1       -1.226   0.536  -4.558  0.00  0.00    +0.260 C 
ATOM      8  H   LIG    1        0.702   0.551  -5.222  0.00  0.00    +0.420 HD
ATOM      9  C   LIG    1       -0.990   1.733  -3.630  0.00  0.00    +0.320 C 
ENDROOT
BRANCH   6  10
ATOM     10  C   LIG    1       -0.155  -1.201  -5.815  0.00  0.00    +0.170 C 
ATOM     11  C   LIG    1        1.173  -1.929  -6.111  0.00  0.00    +0.050 C 
ATOM     12  C   LIG    1        1.164  -2.268  -7.612  0.00  0.00    +0.050 C 
ATOM     13  C   LIG    1       -0.170  -1.735  -8.176  0.00  0.00    +0.020 C 
ATOM     14  C   LIG    1       -0.585  -0.618  -7.184  0.00  0.00    +0.180 C 
BRANCH  14  15
ATOM     15  O   LIG    1       -1.997  -0.403  -7.222  0.00  0.00    -0.560 OA
ATOM     16  H   LIG    1       -2.317  -0.038  -8.058  0.00  0.00    +0.410 HD
ENDBRANCH  14  15
ENDBRANCH   6  10
BRANCH   2  17
ATOM     17  C   LIG    1        0.038   1.073   0.012  0.00  0.00    +0.160 C 
BRANCH  17  18
ATOM     18  C   LIG    1       -0.657   1.547   1.262  0.00  0.00    -0.190 A 
ATOM     19  C   LIG    1       -1.621   0.885   1.904  0.00  0.00    +0.030 A 
ATOM     20  C   LIG    1       -2.108   1.518   3.035  0.00  0.00    +0.000 A 
ATOM     21  C   LIG    1       -1.546   2.696   3.307  0.00  0.00    -0.030 A 
ATOM     22  S   LIG    1       -0.325   3.061   2.094  0.00  0.00    +0.120 S 
ENDBRANCH  17  18
ENDBRANCH   2  17
TORSDOF 4
