REMARK  Name = ZINCpk00000ebIwk.0
REMARK                            x       y       z     vdW  Elec       q    Type
REMARK                         _______ _______ _______ _____ _____    ______ ____
ROOT
ATOM      1  O   LIG    1       -0.808   3.204  -3.459  0.00  0.00    -0.490 OA
ATOM      2  C   LIG    1       -1.279   3.699  -2.457  0.00  0.00    +0.520 C 
ATOM      3  N   LIG    1       -1.380   2.969  -1.329  0.00  0.00    -0.610 N 
ATOM      4  C   LIG    1       -2.022   3.521  -0.125  0.00  0.00    +0.250 C 
ATOM      5  C   LIG    1       -1.080   3.309   1.066  0.00  0.00    +0.210 C 
ATOM      6  O   LIG    1       -0.696   1.933   1.125  0.00  0.00    -0.370 OA
ATOM      7  C   LIG    1        0.034   1.480  -0.017  0.00  0.00    +0.240 C 
ATOM      8  C   LIG    1       -0.851   1.598  -1.264  0.00  0.00    +0.310 C 
ENDROOT
BRANCH   8   9
ATOM      9  C   LIG    1       -0.033   1.310  -2.496  0.00  0.00    +0.240 A 
ATOM     10  N   LIG    1       -0.240   0.328  -3.333  0.00  0.00    -0.310 NA
ATOM     11  N   LIG    1        0.744   0.430  -4.330  0.00  0.00    -0.370 N 
ATOM     12  C   LIG    1        1.496   1.498  -4.012  0.00  0.00    +0.480 A 
ATOM     13  N   LIG    1        1.016   2.019  -2.912  0.00  0.00    -0.520 NA
BRANCH  11  14
ATOM     14  C   LIG    1        0.917  -0.453  -5.486  0.00  0.00    +0.390 C 
BRANCH  14  15
ATOM     15  C   LIG    1        1.931  -1.518  -5.157  0.00  0.00    -0.120 A 
ATOM     16  C   LIG    1        3.271  -1.302  -5.420  0.00  0.00    +0.020 A 
ATOM     17  C   LIG    1        4.202  -2.278  -5.115  0.00  0.00    +0.010 A 
ATOM     18  C   LIG    1        3.791  -3.473  -4.554  0.00  0.00    +0.010 A 
ATOM     19  C   LIG    1        2.451  -3.691  -4.296  0.00  0.00    +0.010 A 
ATOM     20  C   LIG    1        1.521  -2.714  -4.598  0.00  0.00    +0.030 A 
ENDBRANCH  14  15
ENDBRANCH  11  14
ENDBRANCH   8   9
BRANCH   2  21
ATOM     21  C   LIG    1       -1.752   5.130  -2.474  0.00  0.00    +0.160 C 
ATOM     22  C   LIG    1       -0.737   6.040  -1.738  0.00  0.00    +0.040 C 
ATOM     23  C   LIG    1       -1.034   7.411  -2.405  0.00  0.00    +0.020 C 
ATOM     24  C   LIG    1       -1.396   7.002  -3.849  0.00  0.00    +0.190 C 
ATOM     25  O   LIG    1       -1.792   5.625  -3.822  0.00  0.00    -0.350 OA
ENDBRANCH   2  21
TORSDOF 4
