REMARK  Name = ZINCpe000000XD0o.0
REMARK                            x       y       z     vdW  Elec       q    Type
REMARK                         _______ _______ _______ _____ _____    ______ ____
ROOT
ATOM      1  C   LIG    1       -2.849   0.589  -2.014  0.00  0.00    +0.600 C 
ATOM      2  N   LIG    1       -2.241   0.389  -0.828  0.00  0.00    -0.600 N 
ATOM      3  C   LIG    1       -0.950  -0.309  -0.757  0.00  0.00    +0.260 C 
ATOM      4  C   LIG    1       -1.086  -1.494   0.208  0.00  0.00    +0.300 C 
ATOM      5  N   LIG    1       -1.700  -1.019   1.456  0.00  0.00    -0.990 NA
ATOM      6  C   LIG    1       -2.994  -0.318   1.383  0.00  0.00    +0.240 C 
ATOM      7  C   LIG    1       -4.069  -1.277   0.869  0.00  0.00    +0.050 C 
ATOM      8  C   LIG    1       -2.858   0.867   0.418  0.00  0.00    +0.290 C 
ATOM      9  O   LIG    1       -3.961   1.080  -2.053  0.00  0.00    -0.510 OA
ENDROOT
BRANCH   1  15
ATOM     10  C   LIG    1       -1.790  -1.191  -6.644  0.00  0.00    +0.160 C 
ATOM     11  C   LIG    1       -1.689  -0.559  -5.279  0.00  0.00    +0.030 A 
ATOM     12  N   LIG    1       -0.610  -0.042  -4.748  0.00  0.00    -0.270 NA
ATOM     13  N   LIG    1       -0.853   0.417  -3.573  0.00  0.00    -0.380 N 
ATOM     14  H   LIG    1       -0.202   0.844  -2.994  0.00  0.00    +0.440 HD
ATOM     15  C   LIG    1       -2.167   0.213  -3.263  0.00  0.00    -0.040 A 
ATOM     16  C   LIG    1       -2.728  -0.425  -4.356  0.00  0.00    +0.000 A 
ENDBRANCH   1  15
BRANCH   5  17
ATOM     17  S   LIG    1       -0.950  -1.266   2.911  0.00  0.00    +2.720 S 
ATOM     18  O   LIG    1       -0.086  -2.380   2.734  0.00  0.00    -0.940 OA
ATOM     19  O   LIG    1       -1.970  -1.222   3.901  0.00  0.00    -0.940 OA
BRANCH  17  20
ATOM     20  C   LIG    1        0.088   0.127   3.206  0.00  0.00    -0.800 A 
ATOM     21  C   LIG    1        1.385   0.289   2.852  0.00  0.00    +0.110 A 
ATOM     22  O   LIG    1        1.748   1.505   3.286  0.00  0.00    +0.100 OA
ATOM     23  N   LIG    1        0.837   2.065   3.850  0.00  0.00    -0.360 NA
ATOM     24  C   LIG    1        2.250  -0.700   2.114  0.00  0.00    +0.210 C 
ATOM     25  C   LIG    1       -0.238   1.331   3.871  0.00  0.00    +0.110 A 
ATOM     26  C   LIG    1       -1.567   1.692   4.484  0.00  0.00    +0.190 C 
ENDBRANCH  17  20
ENDBRANCH   5  17
TORSDOF 3
