REMARK  Name = ZINCpe000000XD0o.1
REMARK                            x       y       z     vdW  Elec       q    Type
REMARK                         _______ _______ _______ _____ _____    ______ ____
ROOT
ATOM      1  C   LIG    1       -2.849   0.588  -2.014  0.00  0.00    +0.610 C 
ATOM      2  N   LIG    1       -2.138   1.079  -0.979  0.00  0.00    -0.600 N 
ATOM      3  C   LIG    1       -0.669   1.100  -1.024  0.00  0.00    +0.280 C 
ATOM      4  C   LIG    1       -0.131   0.364   0.210  0.00  0.00    +0.280 C 
ATOM      5  N   LIG    1       -0.808   0.887   1.405  0.00  0.00    -0.990 NA
ATOM      6  C   LIG    1       -2.280   0.867   1.447  0.00  0.00    +0.240 C 
ATOM      7  C   LIG    1       -2.774  -0.581   1.437  0.00  0.00    +0.030 C 
ATOM      8  C   LIG    1       -2.818   1.603   0.214  0.00  0.00    +0.280 C 
ATOM      9  O   LIG    1       -4.054   0.457  -1.916  0.00  0.00    -0.520 OA
ENDROOT
BRANCH   1  13
ATOM     10  C   LIG    1       -1.852  -1.211  -6.646  0.00  0.00    +0.150 C 
ATOM     11  C   LIG    1       -1.746  -0.577  -5.283  0.00  0.00    +0.020 A 
ATOM     12  C   LIG    1       -2.745  -0.443  -4.380  0.00  0.00    -0.020 A 
ATOM     13  C   LIG    1       -2.164   0.210  -3.267  0.00  0.00    -0.010 A 
ATOM     14  N   LIG    1       -0.895   0.410  -3.558  0.00  0.00    -0.260 NA
ATOM     15  N   LIG    1       -0.635  -0.043  -4.731  0.00  0.00    -0.380 N 
ATOM     16  H   LIG    1        0.235  -0.008  -5.160  0.00  0.00    +0.450 HD
ENDBRANCH   1  13
BRANCH   5  17
ATOM     17  S   LIG    1        0.069   1.488   2.674  0.00  0.00    +2.720 S 
ATOM     18  O   LIG    1        1.356   0.891   2.592  0.00  0.00    -0.950 OA
ATOM     19  O   LIG    1       -0.764   1.387   3.821  0.00  0.00    -0.940 OA
BRANCH  17  20
ATOM     20  C   LIG    1        0.301   3.210   2.379  0.00  0.00    -0.800 A 
ATOM     21  C   LIG    1        1.318   3.813   1.719  0.00  0.00    +0.110 A 
ATOM     22  O   LIG    1        1.062   5.129   1.748  0.00  0.00    +0.100 OA
ATOM     23  N   LIG    1        0.037   5.369   2.342  0.00  0.00    -0.360 NA
ATOM     24  C   LIG    1        2.503   3.139   1.078  0.00  0.00    +0.220 C 
ATOM     25  C   LIG    1       -0.529   4.282   2.780  0.00  0.00    +0.110 A 
ATOM     26  C   LIG    1       -1.815   4.184   3.561  0.00  0.00    +0.190 C 
ENDBRANCH  17  20
ENDBRANCH   5  17
TORSDOF 3
