REMARK  Name = ZINCkj000005j0w1.0
REMARK                            x       y       z     vdW  Elec       q    Type
REMARK                         _______ _______ _______ _____ _____    ______ ____
ROOT
ATOM      1  C   LIG    1       -0.946  -2.537   2.690  0.00  0.00    +0.500 C 
ATOM      2  N   LIG    1       -1.510  -3.761   2.696  0.00  0.00    -0.700 N 
ATOM      3  H   LIG    1       -1.746  -4.190   1.859  0.00  0.00    +0.410 HD
ATOM      4  O   LIG    1       -0.650  -2.000   3.736  0.00  0.00    -0.520 OA
ENDROOT
BRANCH   1   6
ATOM      5  C   LIG    1        0.685  -2.254   0.844  0.00  0.00    +0.120 C 
ATOM      6  C   LIG    1       -0.684  -1.835   1.382  0.00  0.00    +0.160 C 
BRANCH   6   7
ATOM      7  N   LIG    1       -0.703  -0.381   1.594  0.00  0.00    -0.350 N 
ATOM      8  C   LIG    1       -2.052   0.015   2.043  0.00  0.00    +0.260 C 
ATOM      9  C   LIG    1       -1.935   1.304   2.816  0.00  0.00    +0.040 C 
ATOM     10  C   LIG    1       -2.221   2.525   1.923  0.00  0.00    +0.030 C 
ATOM     11  C   LIG    1       -1.591   2.371   0.524  0.00  0.00    +0.020 C 
ATOM     12  C   LIG    1       -0.206   1.779   0.580  0.00  0.00    +0.070 C 
ATOM     13  C   LIG    1       -0.305   0.249   0.413  0.00  0.00    +0.230 C 
ATOM     14  H   LIG    1       -0.040  -0.154   2.321  0.00  0.00    +0.430 HD
ENDBRANCH   6   7
ENDBRANCH   1   6
BRANCH   2  15
ATOM     15  C   LIG    1       -1.764  -4.443   3.967  0.00  0.00    +0.290 C 
BRANCH  15  16
ATOM     16  C   LIG    1       -2.405  -5.806   3.696  0.00  0.00    +0.160 C 
BRANCH  16  17
ATOM     17  C   LIG    1       -2.667  -6.508   5.003  0.00  0.00    +0.190 A 
ATOM     18  N   LIG    1       -3.761  -6.419   5.708  0.00  0.00    -0.480 NA
ATOM     19  C   LIG    1       -3.642  -7.176   6.808  0.00  0.00    +0.160 A 
ATOM     20  C   LIG    1       -2.426  -7.756   6.785  0.00  0.00    +0.140 A 
ATOM     21  N   LIG    1       -1.810  -7.337   5.637  0.00  0.00    -0.460 N 
ATOM     22  C   LIG    1       -0.469  -7.714   5.183  0.00  0.00    +0.330 C 
ENDBRANCH  16  17
ENDBRANCH  15  16
ENDBRANCH   2  15
TORSDOF 5
