REMARK  Name = ZINCvU0000000H8l.0
REMARK                            x       y       z     vdW  Elec       q    Type
REMARK                         _______ _______ _______ _____ _____    ______ ____
ROOT
ATOM      1  N   LIG    1        3.393   2.318  -0.018  0.00  0.00    -0.470 N 
ATOM      2  C   LIG    1        2.403   1.355  -0.021  0.00  0.00    +0.070 A 
ATOM      3  C   LIG    1        2.404  -0.032  -0.040  0.00  0.00    +0.010 A 
ATOM      4  C   LIG    1        1.206  -0.716  -0.039  0.00  0.00    +0.040 A 
ATOM      5  C   LIG    1        0.003  -0.027  -0.019  0.00  0.00    +0.000 A 
ATOM      6  C   LIG    1       -0.018   1.339  -0.001  0.00  0.00    +0.070 A 
ATOM      7  C   LIG    1        1.183   2.054  -0.002  0.00  0.00    +0.050 A 
ATOM      8  N   LIG    1        1.485   3.377   0.013  0.00  0.00    -0.460 NA
ATOM      9  C   LIG    1        2.777   3.531   0.003  0.00  0.00    +0.290 A 
ENDROOT
BRANCH   1  10
ATOM     10  C   LIG    1        4.838   2.077  -0.034  0.00  0.00    +0.350 C 
BRANCH  10  13
ATOM     11  N   LIG    1        6.625   1.799  -1.721  0.00  0.00    -0.660 N 
ATOM     12  H   LIG    1        7.266   1.766  -0.994  0.00  0.00    +0.420 HD
ATOM     13  C   LIG    1        5.320   2.013  -1.460  0.00  0.00    +0.490 C 
ATOM     14  O   LIG    1        4.535   2.155  -2.373  0.00  0.00    -0.500 OA
BRANCH  11  21
ATOM     15  C   LIG    1        8.375   1.908  -3.391  0.00  0.00    +0.100 A 
ATOM     16  C   LIG    1        8.795   1.733  -4.699  0.00  0.00    -0.050 A 
ATOM     17  C   LIG    1        7.906   1.278  -5.656  0.00  0.00    +0.040 A 
ATOM     18  C   LIG    1        6.598   0.996  -5.311  0.00  0.00    -0.100 A 
ATOM     19  C   LIG    1        6.172   1.162  -4.006  0.00  0.00    +0.060 A 
ATOM     20  C   LIG    1        5.634   0.500  -6.359  0.00  0.00    +0.100 C 
ATOM     21  C   LIG    1        7.056   1.624  -3.043  0.00  0.00    +0.120 A 
BRANCH  15  23
ATOM     22  C   LIG    1       10.583   2.626  -2.878  0.00  0.00    +0.250 C 
ATOM     23  O   LIG    1        9.247   2.355  -2.449  0.00  0.00    -0.320 OA
ENDBRANCH  15  23
ENDBRANCH  11  21
ENDBRANCH  10  13
ENDBRANCH   1  10
BRANCH   9  24
ATOM     24  C   LIG    1        3.489   4.859   0.014  0.00  0.00    +0.330 C 
BRANCH  24  25
ATOM     25  O   LIG    1        3.725   5.262   1.365  0.00  0.00    -0.300 OA
BRANCH  25  26
ATOM     26  C   LIG    1        4.362   6.448   1.553  0.00  0.00    +0.130 A 
ATOM     27  C   LIG    1        4.757   7.205   0.460  0.00  0.00    -0.060 A 
ATOM     28  C   LIG    1        5.401   8.412   0.653  0.00  0.00    +0.070 A 
ATOM     29  C   LIG    1        5.661   8.861   1.935  0.00  0.00    -0.070 A 
ATOM     30  C   LIG    1        5.272   8.104   3.027  0.00  0.00    +0.070 A 
ATOM     31 CL   LIG    1        6.476  10.375   2.176  0.00  0.00    -0.070 Cl
ATOM     32  C   LIG    1        4.624   6.899   2.838  0.00  0.00    +0.010 A 
ENDBRANCH  25  26
ENDBRANCH  24  25
ENDBRANCH   9  24
TORSDOF 7
