REMARK  Name = ZINCkj000005kA8t.0
REMARK                            x       y       z     vdW  Elec       q    Type
REMARK                         _______ _______ _______ _____ _____    ______ ____
ROOT
ATOM      1  N   LIG    1       -2.466  -0.020  -0.895  0.00  0.00    -0.510 N 
ATOM      2  H   LIG    1       -1.577  -0.492  -0.961  0.00  0.00    +0.430 HD
ATOM      3  H   LIG    1       -2.624   0.517  -1.735  0.00  0.00    +0.430 HD
ENDROOT
BRANCH   1   4
ATOM      4  C   LIG    1       -3.538  -1.013  -0.741  0.00  0.00    +0.230 C 
ATOM      5  C   LIG    1       -4.895  -0.306  -0.768  0.00  0.00    +0.110 C 
BRANCH   4  12
ATOM      6  C   LIG    1       -4.799  -3.636  -0.497  0.00  0.00    +0.120 C 
ATOM      7  C   LIG    1       -4.065  -3.254  -1.757  0.00  0.00    -0.110 A 
ATOM      8  C   LIG    1       -3.984  -4.139  -2.815  0.00  0.00    +0.290 A 
ATOM      9  N   LIG    1       -3.339  -3.813  -3.918  0.00  0.00    -0.460 NA
ATOM     10  C   LIG    1       -2.754  -2.640  -4.059  0.00  0.00    +0.290 A 
ATOM     11  C   LIG    1       -2.798  -1.702  -3.045  0.00  0.00    -0.050 A 
ATOM     12  C   LIG    1       -3.467  -2.008  -1.870  0.00  0.00    -0.100 A 
ENDBRANCH   4  12
ENDBRANCH   1   4
BRANCH   1  13
ATOM     13  C   LIG    1       -2.460   0.878   0.267  0.00  0.00    +0.290 C 
BRANCH  13  14
ATOM     14  C   LIG    1       -1.343   1.913   0.106  0.00  0.00    -0.110 C 
ATOM     15  C   LIG    1       -1.583   2.732  -1.166  0.00  0.00    +0.030 C 
ATOM     16  C   LIG    1       -0.504   3.815  -1.275  0.00  0.00    +0.240 C 
ATOM     17  O   LIG    1       -0.533   4.635  -0.105  0.00  0.00    -0.370 OA
ATOM     18  C   LIG    1       -0.269   3.930   1.109  0.00  0.00    +0.210 C 
ATOM     19  C   LIG    1       -1.338   2.853   1.315  0.00  0.00    +0.050 C 
BRANCH  14  20
ATOM     20  C   LIG    1       -0.014   1.209   0.009  0.00  0.00    +0.500 C 
ATOM     21  O   LIG    1        0.618   1.247  -1.025  0.00  0.00    -0.510 OA
ATOM     22  N   LIG    1        0.474   0.541   1.073  0.00  0.00    -0.850 N 
ATOM     23  H   LIG    1        0.004   0.570   1.921  0.00  0.00    +0.410 HD
ATOM     24  H   LIG    1        1.295   0.031   0.990  0.00  0.00    +0.420 HD
ENDBRANCH  14  20
ENDBRANCH  13  14
ENDBRANCH   1  13
TORSDOF 5
