REMARK  Name = ZINCvU000000098Y.0
REMARK                            x       y       z     vdW  Elec       q    Type
REMARK                         _______ _______ _______ _____ _____    ______ ____
ROOT
ATOM      1  C   LIG    1        5.999  -0.918  -0.930  0.00  0.00    +0.410 A 
ATOM      2  N   LIG    1        6.433  -1.161  -2.153  0.00  0.00    -0.540 NA
ATOM      3  C   LIG    1        5.722  -0.764  -3.217  0.00  0.00    +0.190 A 
ATOM      4  C   LIG    1        6.153  -1.006  -4.529  0.00  0.00    +0.030 A 
ATOM      5  C   LIG    1        5.392  -0.580  -5.577  0.00  0.00    +0.060 A 
ATOM      6  C   LIG    1        4.192   0.092  -5.365  0.00  0.00    +0.000 A 
ATOM      7  C   LIG    1        3.743   0.344  -4.101  0.00  0.00    +0.060 A 
ATOM      8  C   LIG    1        4.500  -0.079  -3.004  0.00  0.00    -0.200 A 
ATOM      9  C   LIG    1        4.083   0.154  -1.669  0.00  0.00    +0.480 A 
ATOM     10  N   LIG    1        4.859  -0.274  -0.685  0.00  0.00    -0.590 NA
ENDROOT
BRANCH   1  13
ATOM     11  C   LIG    1        8.779  -2.476   1.068  0.00  0.00    +0.140 A 
ATOM     12  C   LIG    1        8.017  -2.049  -0.005  0.00  0.00    -0.030 A 
ATOM     13  C   LIG    1        6.816  -1.376   0.218  0.00  0.00    +0.030 A 
ATOM     14  C   LIG    1        6.388  -1.130   1.522  0.00  0.00    -0.030 A 
ATOM     15  C   LIG    1        7.150  -1.563   2.592  0.00  0.00    +0.140 A 
ATOM     16  C   LIG    1        8.348  -2.235   2.369  0.00  0.00    +0.050 A 
BRANCH  11  18
ATOM     17  C   LIG    1       10.333  -3.345  -0.509  0.00  0.00    +0.240 C 
ATOM     18  O   LIG    1        9.951  -3.132   0.851  0.00  0.00    -0.300 OA
ENDBRANCH  11  18
BRANCH  15  19
ATOM     19  O   LIG    1        6.731  -1.327   3.865  0.00  0.00    -0.300 OA
ATOM     20  C   LIG    1        5.492  -0.632   4.021  0.00  0.00    +0.240 C 
ENDBRANCH  15  19
BRANCH  16  21
ATOM     21  O   LIG    1        9.098  -2.655   3.422  0.00  0.00    -0.310 OA
ATOM     22  C   LIG    1       10.078  -1.745   3.925  0.00  0.00    +0.230 C 
ENDBRANCH  16  21
ENDBRANCH   1  13
BRANCH   9  23
ATOM     23  N   LIG    1        2.903   0.815  -1.403  0.00  0.00    -0.690 N 
ATOM     24  H   LIG    1        2.346   1.127  -2.133  0.00  0.00    +0.410 HD
BRANCH  23  25
ATOM     25  C   LIG    1        2.490   1.046  -0.016  0.00  0.00    +0.330 C 
BRANCH  25  26
ATOM     26  C   LIG    1        1.175   1.783   0.000  0.00  0.00    -0.130 A 
ATOM     27  C   LIG    1       -0.013   1.076   0.008  0.00  0.00    +0.070 A 
ATOM     28  C   LIG    1       -1.219   1.750   0.017  0.00  0.00    -0.020 A 
ATOM     29  C   LIG    1       -1.237   3.135   0.030  0.00  0.00    +0.110 A 
ATOM     30  C   LIG    1       -0.047   3.842   0.023  0.00  0.00    -0.020 A 
ATOM     31  F   LIG    1       -2.416   3.795   0.045  0.00  0.00    -0.140 F 
ATOM     32  C   LIG    1        1.158   3.165   0.009  0.00  0.00    +0.070 A 
ENDBRANCH  25  26
ENDBRANCH  23  25
ENDBRANCH   9  23
TORSDOF 7
