REMARK  Name = ZINCkj00000dDyXP.0
REMARK                            x       y       z     vdW  Elec       q    Type
REMARK                         _______ _______ _______ _____ _____    ______ ____
ROOT
ATOM      1  N   LIG    1       -0.011   0.966   0.007  0.00  0.00    -0.690 N 
ATOM      2  H   LIG    1        0.002  -0.004   0.002  0.00  0.00    +0.410 HD
ATOM      3  C   LIG    1       -1.187   1.624   0.017  0.00  0.00    +0.510 C 
ATOM      4  O   LIG    1       -1.204   2.837   0.023  0.00  0.00    -0.520 OA
ENDROOT
BRANCH   3   5
ATOM      5  C   LIG    1       -2.482   0.853   0.018  0.00  0.00    +0.170 C 
ATOM      6  C   LIG    1       -2.815   0.382  -1.413  0.00  0.00    +0.120 C 
ATOM      7  C   LIG    1       -4.357   0.559  -1.486  0.00  0.00    +0.200 C 
ATOM      8  C   LIG    1       -4.569   1.836  -0.635  0.00  0.00    +0.240 C 
ATOM      9  N   LIG    1       -3.585   1.725   0.463  0.00  0.00    -0.500 N 
ATOM     10  H   LIG    1       -3.224   2.640   0.687  0.00  0.00    +0.440 HD
ATOM     11  H   LIG    1       -4.027   1.325   1.277  0.00  0.00    +0.440 HD
BRANCH   7  12
ATOM     12  O   LIG    1       -4.786   0.766  -2.834  0.00  0.00    -0.530 OA
ATOM     13  H   LIG    1       -5.726   0.975  -2.920  0.00  0.00    +0.400 HD
ENDBRANCH   7  12
ENDBRANCH   3   5
BRANCH   1  14
ATOM     14  C   LIG    1        1.248   1.716  -0.001  0.00  0.00    +0.300 C 
ATOM     15  C   LIG    1        1.635   2.077   1.435  0.00  0.00    +0.060 C 
BRANCH  14  19
ATOM     16  C   LIG    1        4.325  -0.683  -1.746  0.00  0.00    +0.170 A 
ATOM     17  C   LIG    1        4.254   0.673  -2.031  0.00  0.00    -0.060 A 
ATOM     18  C   LIG    1        3.258   1.446  -1.465  0.00  0.00    +0.100 A 
ATOM     19  C   LIG    1        2.332   0.870  -0.616  0.00  0.00    -0.140 A 
ATOM     20  C   LIG    1        2.403  -0.481  -0.326  0.00  0.00    +0.080 A 
ATOM     21  C   LIG    1        3.393  -1.260  -0.893  0.00  0.00    -0.130 A 
ATOM     22 BR   LIG    1        3.485  -3.107  -0.502  0.00  0.00    -0.020 Br
BRANCH  16  24
ATOM     23  C   LIG    1        6.226  -0.785  -3.170  0.00  0.00    +0.250 C 
ATOM     24  O   LIG    1        5.303  -1.445  -2.301  0.00  0.00    -0.300 OA
ENDBRANCH  16  24
ENDBRANCH  14  19
ENDBRANCH   1  14
TORSDOF 5
