REMARK  Name = ZINCrH000004tLWf.0
REMARK                            x       y       z     vdW  Elec       q    Type
REMARK                         _______ _______ _______ _____ _____    ______ ____
ROOT
ATOM      1  N   LIG    1       -2.760   9.295  -0.256  0.00  0.00    -0.520 NA
ATOM      2  C   LIG    1       -2.046  10.103   0.741  0.00  0.00    +0.170 C 
ATOM      3  C   LIG    1       -0.617   9.577   0.897  0.00  0.00    +0.050 C 
ATOM      4  C   LIG    1       -0.662   8.111   1.337  0.00  0.00    +0.020 C 
ATOM      5  C   LIG    1       -1.453   7.301   0.307  0.00  0.00    +0.010 C 
ATOM      6  C   LIG    1       -2.857   7.892   0.168  0.00  0.00    +0.210 C 
ENDROOT
BRANCH   5   7
ATOM      7  C   LIG    1       -1.553   5.868   0.763  0.00  0.00    +0.520 C 
ATOM      8  N   LIG    1       -0.433   5.143   0.956  0.00  0.00    -0.670 N 
ATOM      9  H   LIG    1        0.437   5.560   0.861  0.00  0.00    +0.410 HD
ATOM     10  O   LIG    1       -2.641   5.368   0.956  0.00  0.00    -0.520 OA
BRANCH   8  11
ATOM     11  C   LIG    1       -0.527   3.788   1.293  0.00  0.00    +0.140 A 
ATOM     12  C   LIG    1       -1.582   3.023   0.812  0.00  0.00    +0.020 A 
ATOM     13  C   LIG    1       -1.671   1.685   1.146  0.00  0.00    +0.030 A 
ATOM     14  C   LIG    1       -0.712   1.109   1.958  0.00  0.00    -0.020 A 
ATOM     15  C   LIG    1        0.336   1.869   2.443  0.00  0.00    +0.030 A 
ATOM     16  C   LIG    1        0.434   3.205   2.108  0.00  0.00    -0.030 A 
ENDBRANCH   8  11
ENDBRANCH   5   7
BRANCH   1  17
ATOM     17  C   LIG    1       -4.089   9.855  -0.533  0.00  0.00    +0.230 C 
BRANCH  17  19
ATOM     18  O   LIG    1       -4.014   8.385  -2.378  0.00  0.00    -0.490 OA
ATOM     19  C   LIG    1       -4.679   9.173  -1.741  0.00  0.00    +0.520 C 
ATOM     20  N   LIG    1       -5.947   9.440  -2.113  0.00  0.00    -0.670 N 
ATOM     21  H   LIG    1       -6.462  10.109  -1.635  0.00  0.00    +0.420 HD
BRANCH  20  22
ATOM     22  C   LIG    1       -6.521   8.751  -3.189  0.00  0.00    +0.120 A 
ATOM     23  C   LIG    1       -5.716   8.252  -4.204  0.00  0.00    +0.080 A 
ATOM     24  C   LIG    1       -6.284   7.567  -5.261  0.00  0.00    +0.050 A 
ATOM     25  C   LIG    1       -7.654   7.389  -5.317  0.00  0.00    -0.030 A 
ATOM     26  C   LIG    1       -8.462   7.890  -4.310  0.00  0.00    +0.020 A 
ATOM     27 CL   LIG    1       -8.364   6.534  -6.651  0.00  0.00    -0.050 Cl
ATOM     28  C   LIG    1       -7.899   8.570  -3.246  0.00  0.00    +0.080 A 
ATOM     29  F   LIG    1       -8.686   9.060  -2.264  0.00  0.00    -0.130 F 
ENDBRANCH  20  22
ENDBRANCH  17  19
ENDBRANCH   1  17
TORSDOF 5
