REMARK  Name = ZINCvU0000000CQz.0
REMARK                            x       y       z     vdW  Elec       q    Type
REMARK                         _______ _______ _______ _____ _____    ______ ____
ROOT
ATOM      1  N   LIG    1        4.867   4.271   0.079  0.00  0.00    -0.580 N 
ATOM      2  H   LIG    1        5.690   3.762   0.142  0.00  0.00    +0.380 HD
ATOM      3  C   LIG    1        3.684   3.632  -0.015  0.00  0.00    +0.580 C 
ATOM      4  O   LIG    1        2.652   4.270  -0.094  0.00  0.00    -0.480 OA
ENDROOT
BRANCH   3   5
ATOM      5  C   LIG    1        3.642   2.154  -0.021  0.00  0.00    -0.070 A 
ATOM      6  C   LIG    1        4.805   1.399  -0.050  0.00  0.00    +0.020 A 
ATOM      7  C   LIG    1        4.717  -0.002  -0.056  0.00  0.00    +0.200 A 
ATOM      8  N   LIG    1        3.563  -0.634  -0.035  0.00  0.00    -0.450 NA
ATOM      9  C   LIG    1        2.396   0.012  -0.006  0.00  0.00    +0.130 A 
ATOM     10  C   LIG    1        1.178  -0.691   0.016  0.00  0.00    +0.050 A 
ATOM     11  C   LIG    1        0.003  -0.004   0.044  0.00  0.00    +0.030 A 
ATOM     12  C   LIG    1       -0.016   1.388   0.053  0.00  0.00    +0.020 A 
ATOM     13  C   LIG    1        1.145   2.103   0.032  0.00  0.00    +0.060 A 
ATOM     14  C   LIG    1        2.371   1.429   0.002  0.00  0.00    -0.060 A 
BRANCH   7  15
ATOM     15  C   LIG    1        5.969  -0.797  -0.086  0.00  0.00    -0.060 A 
ATOM     16  C   LIG    1        7.205  -0.155  -0.115  0.00  0.00    +0.020 A 
ATOM     17  C   LIG    1        8.367  -0.900  -0.139  0.00  0.00    +0.010 A 
ATOM     18  C   LIG    1        8.305  -2.282  -0.145  0.00  0.00    +0.030 A 
ATOM     19  C   LIG    1        7.080  -2.925  -0.122  0.00  0.00    +0.010 A 
ATOM     20  C   LIG    1        5.912  -2.190  -0.093  0.00  0.00    +0.070 A 
ENDBRANCH   7  15
ENDBRANCH   3   5
BRANCH   1  22
ATOM     21  C   LIG    1        6.046   6.288   0.176  0.00  0.00    +0.230 C 
ATOM     22  N   LIG    1        4.907   5.672   0.086  0.00  0.00    -0.200 NA
BRANCH  21  27
ATOM     23  C   LIG    1        4.953   9.885   0.098  0.00  0.00    -0.110 A 
ATOM     24  C   LIG    1        6.170  10.533   0.194  0.00  0.00    +0.050 A 
ATOM     25  C   LIG    1        7.345   9.807   0.285  0.00  0.00    +0.000 A 
ATOM     26  C   LIG    1        7.312   8.428   0.280  0.00  0.00    +0.050 A 
ATOM     27  C   LIG    1        6.089   7.761   0.182  0.00  0.00    -0.090 A 
ATOM     28  C   LIG    1        4.902   8.501   0.085  0.00  0.00    +0.150 A 
BRANCH  28  29
ATOM     29  O   LIG    1        3.708   7.863  -0.015  0.00  0.00    -0.470 OA
ATOM     30  H   LIG    1        3.288   7.677   0.836  0.00  0.00    +0.390 HD
ENDBRANCH  28  29
BRANCH  23  31
ATOM     31  C   LIG    1        3.680  10.686  -0.001  0.00  0.00    +0.120 C 
BRANCH  31  33
ATOM     32  C   LIG    1        2.811  12.041   1.835  0.00  0.00    +0.010 C 
ATOM     33  C   LIG    1        3.080  10.845   1.373  0.00  0.00    -0.040 C 
ENDBRANCH  31  33
ENDBRANCH  23  31
ENDBRANCH  21  27
ENDBRANCH   1  22
TORSDOF 7
