REMARK  Name = ZINCzw0000000aB2.1
REMARK                            x       y       z     vdW  Elec       q    Type
REMARK                         _______ _______ _______ _____ _____    ______ ____
ROOT
ATOM      1  C   LIG    1        4.370   1.669   0.973  0.00  0.00    +0.200 C 
ATOM      2  C   LIG    1        5.689   2.026   0.786  0.00  0.00    +0.120 C 
ATOM      3  N   LIG    1        6.057   2.811   1.815  0.00  0.00    -0.490 N 
ATOM      4  C   LIG    1        5.031   2.963   2.636  0.00  0.00    +0.300 C 
ATOM      5  C   LIG    1        4.884   3.676   3.844  0.00  0.00    +0.110 C 
ATOM      6  C   LIG    1        3.695   3.657   4.495  0.00  0.00    +0.170 C 
ATOM      7  C   LIG    1        2.604   2.924   3.967  0.00  0.00    +0.130 C 
ATOM      8  C   LIG    1        2.763   2.253   2.802  0.00  0.00    +0.010 C 
ATOM      9  C   LIG    1        1.440   1.584   2.477  0.00  0.00    +0.140 C 
ATOM     10  C   LIG    1        0.469   2.324   3.428  0.00  0.00    +0.290 C 
ATOM     11  O   LIG    1        1.348   2.766   4.476  0.00  0.00    -0.270 OA
ATOM     12  H   LIG    1        6.936   3.204   1.935  0.00  0.00    +0.460 HD
ATOM     13  N   LIG    1        3.959   2.264   2.133  0.00  0.00    -0.280 N 
ENDROOT
BRANCH   2  14
ATOM     14  C   LIG    1        6.550   1.615  -0.348  0.00  0.00    -0.190 A 
ATOM     15  C   LIG    1        6.574   0.288  -0.788  0.00  0.00    +0.370 A 
ATOM     16  N   LIG    1        7.353  -0.033  -1.806  0.00  0.00    -0.490 NA
ATOM     17  C   LIG    1        8.107   0.873  -2.397  0.00  0.00    +0.560 A 
ATOM     18  N   LIG    1        8.118   2.134  -2.010  0.00  0.00    -0.490 NA
ATOM     19  C   LIG    1        7.365   2.543  -1.004  0.00  0.00    +0.360 A 
ENDBRANCH   2  14
BRANCH   1  20
ATOM     20  N   LIG    1        3.601   0.860   0.136  0.00  0.00    -0.590 N 
ATOM     21  H   LIG    1        4.118   0.043  -0.153  0.00  0.00    +0.390 HD
BRANCH  20  24
ATOM     22  C   LIG    1        3.825   3.092  -2.810  0.00  0.00    +0.300 C 
ATOM     23  C   LIG    1        4.243   1.799  -2.079  0.00  0.00    +0.030 C 
ATOM     24  C   LIG    1        3.117   1.615  -1.027  0.00  0.00    +0.230 C 
ATOM     25  C   LIG    1        2.805   3.084  -0.645  0.00  0.00    +0.270 C 
ATOM     26  N   LIG    1        2.937   3.837  -1.906  0.00  0.00    -0.590 N 
ATOM     27  C   LIG    1        2.345   5.017  -2.181  0.00  0.00    +0.680 C 
ATOM     28  O   LIG    1        2.530   5.553  -3.256  0.00  0.00    -0.540 OA
BRANCH  22  29
ATOM     29  C   LIG    1        5.043   3.921  -3.129  0.00  0.00    +0.450 C 
ATOM     30  O   LIG    1        5.341   4.854  -2.421  0.00  0.00    -0.490 OA
BRANCH  29  32
ATOM     31  C   LIG    1        6.955   4.462  -4.445  0.00  0.00    +0.290 C 
ATOM     32  O   LIG    1        5.796   3.622  -4.199  0.00  0.00    -0.350 OA
ENDBRANCH  29  32
ENDBRANCH  22  29
BRANCH  27  33
ATOM     33  O   LIG    1        1.550   5.601  -1.266  0.00  0.00    -0.360 OA
BRANCH  33  34
ATOM     34  C   LIG    1        0.947   6.870  -1.631  0.00  0.00    +0.140 C 
ATOM     35  C   LIG    1        2.047   7.891  -1.930  0.00  0.00    +0.050 C 
ATOM     36  C   LIG    1        0.083   7.377  -0.473  0.00  0.00    +0.090 C 
ATOM     37  C   LIG    1        0.074   6.682  -2.873  0.00  0.00    +0.040 C 
ENDBRANCH  33  34
ENDBRANCH  27  33
ENDBRANCH  20  24
ENDBRANCH   1  20
TORSDOF 7
