REMARK  Name = ZINCpk00001AZiKA.0
REMARK                            x       y       z     vdW  Elec       q    Type
REMARK                         _______ _______ _______ _____ _____    ______ ____
ROOT
ATOM      1  C   LIG    1       -7.311   3.268  -0.006  0.00  0.00    -0.120 C 
ATOM      2  C   LIG    1       -5.933   3.209   0.005  0.00  0.00    +0.170 A 
ATOM      3  N   LIG    1       -5.164   2.079   0.002  0.00  0.00    -0.640 N 
ATOM      4  H   LIG    1       -5.577   1.201  -0.009  0.00  0.00    +0.430 HD
ATOM      5  C   LIG    1       -3.848   2.205   0.020  0.00  0.00    +0.560 A 
ATOM      6  C   LIG    1       -3.351   3.580   0.029  0.00  0.00    -0.280 A 
ATOM      7  C   LIG    1       -2.053   3.998   0.043  0.00  0.00    +0.250 C 
ATOM      8  O   LIG    1       -3.102   1.243   0.023  0.00  0.00    -0.490 OA
ATOM      9  S   LIG    1       -4.814   4.583   0.025  0.00  0.00    +0.150 S 
ENDROOT
BRANCH   7  10
ATOM     10  C   LIG    1       -1.752   5.378  -0.059  0.00  0.00    -0.050 A 
ATOM     11  C   LIG    1       -2.652   6.427  -0.065  0.00  0.00    +0.240 A 
ATOM     12  N   LIG    1       -1.953   7.557  -0.168  0.00  0.00    -0.490 NA
ATOM     13  C   LIG    1       -0.673   7.285  -0.233  0.00  0.00    +0.250 A 
ATOM     14  C   LIG    1        0.438   8.301  -0.340  0.00  0.00    +0.160 C 
ATOM     15  C   LIG    1        1.419   7.863  -1.430  0.00  0.00    +0.020 C 
ATOM     16  C   LIG    1        2.486   6.956  -0.825  0.00  0.00    +0.020 C 
ATOM     17  C   LIG    1        1.891   6.120   0.308  0.00  0.00    +0.030 C 
ATOM     18  C   LIG    1        0.774   5.230  -0.242  0.00  0.00    +0.290 C 
ATOM     19  N   LIG    1       -0.501   5.949  -0.177  0.00  0.00    -0.440 N 
ENDBRANCH   7  10
BRANCH   1  21
ATOM     20  O   LIG    1       -7.304   5.543   0.012  0.00  0.00    -0.450 OA
ATOM     21  C   LIG    1       -7.959   4.512  -0.002  0.00  0.00    +0.470 C 
BRANCH  21  22
ATOM     22  C   LIG    1       -9.429   4.576  -0.013  0.00  0.00    -0.090 A 
ATOM     23  C   LIG    1      -10.182   5.713  -0.005  0.00  0.00    +0.040 A 
ATOM     24  C   LIG    1      -11.527   5.307  -0.025  0.00  0.00    -0.070 A 
ATOM     25  C   LIG    1      -11.534   3.957  -0.035  0.00  0.00    +0.210 A 
ATOM     26  O   LIG    1      -10.267   3.520  -0.028  0.00  0.00    -0.160 OA
ENDBRANCH  21  22
ENDBRANCH   1  21
TORSDOF 3
