REMARK  Name = ZINCAx0000000cnQ.0
REMARK                            x       y       z     vdW  Elec       q    Type
REMARK                         _______ _______ _______ _____ _____    ______ ____
ROOT
ATOM      1  C   LIG    1        3.474   4.880  -0.006  0.00  0.00    +0.270 C 
ENDROOT
BRANCH   1   4
ATOM      2  N   LIG    1        1.698   3.158   0.002  0.00  0.00    -0.650 N 
ATOM      3  H   LIG    1        1.045   3.876   0.012  0.00  0.00    +0.410 HD
ATOM      4  C   LIG    1        3.015   3.444  -0.009  0.00  0.00    +0.520 C 
ATOM      5  O   LIG    1        3.831   2.547  -0.021  0.00  0.00    -0.470 OA
BRANCH   2   9
ATOM      6  C   LIG    1        1.249  -0.401  -0.012  0.00  0.00    +0.110 A 
ATOM      7  N   LIG    1        0.002  -0.004   0.002  0.00  0.00    -0.270 NA
ATOM      8  N   LIG    1       -0.017   1.397   0.010  0.00  0.00    -0.340 N 
ATOM      9  C   LIG    1        1.273   1.830  -0.000  0.00  0.00    +0.310 A 
ATOM     10  C   LIG    1        2.073   0.728  -0.014  0.00  0.00    -0.080 A 
BRANCH   8  11
ATOM     11  C   LIG    1       -1.160   2.207   0.020  0.00  0.00    +0.160 A 
ATOM     12  C   LIG    1       -1.157   3.406   0.720  0.00  0.00    -0.030 A 
ATOM     13  C   LIG    1       -2.283   4.205   0.724  0.00  0.00    +0.050 A 
ATOM     14  C   LIG    1       -3.417   3.807   0.040  0.00  0.00    +0.010 A 
ATOM     15  C   LIG    1       -3.426   2.611  -0.653  0.00  0.00    +0.040 A 
ATOM     16  C   LIG    1       -2.301   1.810  -0.666  0.00  0.00    +0.030 A 
ENDBRANCH   8  11
BRANCH   6  18
ATOM     17  C   LIG    1        2.245  -2.209   1.361  0.00  0.00    +0.050 C 
ATOM     18  C   LIG    1        1.718  -1.833  -0.025  0.00  0.00    +0.010 C 
ATOM     19  C   LIG    1        2.836  -1.995  -1.057  0.00  0.00    +0.050 C 
ATOM     20  C   LIG    1        0.548  -2.749  -0.392  0.00  0.00    +0.040 C 
ENDBRANCH   6  18
ENDBRANCH   2   9
ENDBRANCH   1   4
BRANCH   1  21
ATOM     21  O   LIG    1        4.902   4.923  -0.019  0.00  0.00    -0.310 OA
BRANCH  21  22
ATOM     22  C   LIG    1        5.478   6.144  -0.018  0.00  0.00    +0.560 C 
ATOM     23  O   LIG    1        4.784   7.143  -0.007  0.00  0.00    -0.490 OA
BRANCH  22  24
ATOM     24  C   LIG    1        6.891   6.261  -0.031  0.00  0.00    -0.000 C 
ATOM     25  N   LIG    1        7.724   5.269  -0.038  0.00  0.00    -0.100 NA
ATOM     26  N   LIG    1        9.063   5.655  -0.054  0.00  0.00    -0.430 N 
ATOM     27  C   LIG    1        9.136   7.124  -0.048  0.00  0.00    +0.210 C 
ATOM     28  C   LIG    1        7.659   7.563  -0.032  0.00  0.00    +0.140 C 
BRANCH  26  29
ATOM     29  C   LIG    1       10.157   4.788  -0.070  0.00  0.00    +0.210 A 
ATOM     30  C   LIG    1       11.449   5.297  -0.086  0.00  0.00    -0.040 A 
ATOM     31  C   LIG    1       12.529   4.436  -0.097  0.00  0.00    +0.050 A 
ATOM     32  C   LIG    1       12.325   3.069  -0.101  0.00  0.00    -0.020 A 
ATOM     33  C   LIG    1       11.040   2.558  -0.090  0.00  0.00    +0.050 A 
ATOM     34  C   LIG    1        9.955   3.413  -0.075  0.00  0.00    -0.010 A 
ENDBRANCH  26  29
BRANCH  27  35
ATOM     35  C   LIG    1        9.848   7.613   1.187  0.00  0.00    +0.510 C 
ATOM     36  O   LIG    1       10.035   6.859   2.118  0.00  0.00    -0.510 OA
ATOM     37  N   LIG    1       10.277   8.889   1.257  0.00  0.00    -0.850 N 
ATOM     38  H   LIG    1       10.735   9.204   2.052  0.00  0.00    +0.410 HD
ATOM     39  H   LIG    1       10.128   9.492   0.512  0.00  0.00    +0.400 HD
ENDBRANCH  27  35
ENDBRANCH  22  24
ENDBRANCH  21  22
ENDBRANCH   1  21
TORSDOF 9
