REMARK  Name = ZINCqH0000038EUB.0
REMARK                            x       y       z     vdW  Elec       q    Type
REMARK                         _______ _______ _______ _____ _____    ______ ____
ROOT
ATOM      1  C   LIG    1       -1.725   7.597  -2.526  0.00  0.00    +0.610 C 
ATOM      2  N   LIG    1       -1.935   6.573  -1.675  0.00  0.00    -0.650 N 
ATOM      3  H   LIG    1       -1.549   6.595  -0.786  0.00  0.00    +0.400 HD
ATOM      4  O   LIG    1       -2.209   7.570  -3.643  0.00  0.00    -0.480 OA
ENDROOT
BRANCH   1   7
ATOM      5  C   LIG    1       -1.119  10.014  -4.270  0.00  0.00    +0.170 C 
ATOM      6  C   LIG    1       -0.625   9.837  -2.858  0.00  0.00    +0.180 A 
ATOM      7  C   LIG    1       -0.914   8.745  -2.107  0.00  0.00    -0.320 A 
ATOM      8  S   LIG    1       -0.147   8.956  -0.534  0.00  0.00    +0.160 S 
ATOM      9  C   LIG    1        0.486  10.463  -1.035  0.00  0.00    +0.100 A 
ATOM     10  N   LIG    1        0.121  10.725  -2.249  0.00  0.00    -0.470 NA
BRANCH   9  11
ATOM     11  C   LIG    1        1.342  11.362  -0.181  0.00  0.00    +0.280 C 
ATOM     12  C   LIG    1        2.757  10.787  -0.093  0.00  0.00    +0.020 C 
BRANCH  11  13
ATOM     13  N   LIG    1        0.765  11.453   1.167  0.00  0.00    -0.840 NA
ATOM     14  H   LIG    1        1.284  12.101   1.740  0.00  0.00    +0.360 HD
ATOM     15  H   LIG    1        0.718  10.543   1.602  0.00  0.00    +0.340 HD
ENDBRANCH  11  13
ENDBRANCH   9  11
ENDBRANCH   1   7
BRANCH   2  16
ATOM     16  C   LIG    1       -2.705   5.482  -2.074  0.00  0.00    +0.310 A 
ATOM     17  C   LIG    1       -3.301   5.318  -3.287  0.00  0.00    -0.090 A 
ATOM     18  C   LIG    1       -3.978   4.096  -3.270  0.00  0.00    +0.260 A 
ATOM     19  N   LIG    1       -3.798   3.539  -2.100  0.00  0.00    -0.280 NA
ATOM     20  N   LIG    1       -2.996   4.388  -1.325  0.00  0.00    -0.390 N 
BRANCH  20  21
ATOM     21  C   LIG    1       -2.556   4.141   0.050  0.00  0.00    +0.390 C 
BRANCH  21  22
ATOM     22  C   LIG    1       -1.241   3.405   0.033  0.00  0.00    -0.090 A 
ATOM     23  C   LIG    1       -0.054   4.113   0.025  0.00  0.00    +0.030 A 
ATOM     24  C   LIG    1        1.153   3.439   0.010  0.00  0.00    +0.070 A 
ATOM     25  C   LIG    1        1.174   2.057   0.002  0.00  0.00    -0.070 A 
ATOM     26  C   LIG    1       -0.016   1.347   0.009  0.00  0.00    +0.110 A 
ATOM     27  F   LIG    1        0.002  -0.004   0.002  0.00  0.00    -0.120 F 
ATOM     28 CL   LIG    1        2.690   1.211  -0.018  0.00  0.00    -0.040 Cl
ATOM     29  C   LIG    1       -1.224   2.023   0.019  0.00  0.00    +0.040 A 
ENDBRANCH  21  22
ENDBRANCH  20  21
ENDBRANCH   2  16
TORSDOF 6
