REMARK  Name = ZINCrH000004qWiN.0
REMARK                            x       y       z     vdW  Elec       q    Type
REMARK                         _______ _______ _______ _____ _____    ______ ____
ROOT
ATOM      1  C   LIG    1       -2.115   0.969   1.202  0.00  0.00    +0.010 C 
ENDROOT
BRANCH   1   2
ATOM      2  C   LIG    1       -2.912   1.480   2.374  0.00  0.00    +0.550 C 
ATOM      3  N   LIG    1       -2.746   0.931   3.593  0.00  0.00    -0.720 N 
ATOM      4  H   LIG    1       -2.113   0.206   3.716  0.00  0.00    +0.400 HD
ATOM      5  O   LIG    1       -3.704   2.386   2.220  0.00  0.00    -0.520 OA
BRANCH   3   6
ATOM      6  C   LIG    1       -3.521   1.428   4.732  0.00  0.00    +0.280 C 
ATOM      7  C   LIG    1       -2.812   2.639   5.343  0.00  0.00    +0.040 C 
BRANCH   6   8
ATOM      8  C   LIG    1       -3.643   0.342   5.770  0.00  0.00    -0.100 A 
ATOM      9  C   LIG    1       -2.564  -0.478   6.042  0.00  0.00    +0.000 A 
ATOM     10  C   LIG    1       -2.674  -1.472   6.996  0.00  0.00    +0.010 A 
ATOM     11  C   LIG    1       -3.866  -1.652   7.672  0.00  0.00    +0.000 A 
ATOM     12  C   LIG    1       -4.947  -0.835   7.396  0.00  0.00    +0.020 A 
ATOM     13  C   LIG    1       -4.835   0.161   6.445  0.00  0.00    +0.020 A 
ENDBRANCH   6   8
ENDBRANCH   3   6
ENDBRANCH   1   2
BRANCH   1  14
ATOM     14  C   LIG    1       -0.709   1.571   1.240  0.00  0.00    +0.020 C 
ATOM     15  C   LIG    1       -0.809   3.097   1.304  0.00  0.00    +0.030 C 
ATOM     16  C   LIG    1        0.034   1.057   2.474  0.00  0.00    +0.030 C 
ENDBRANCH   1  14
BRANCH   1  17
ATOM     17  S   LIG    1       -2.936   1.447  -0.343  0.00  0.00    +0.090 S 
BRANCH  17  24
ATOM     18  C   LIG    1       -2.406  -0.176  -7.063  0.00  0.00    +0.160 C 
ATOM     19  C   LIG    1       -2.344   0.054  -5.575  0.00  0.00    +0.120 A 
ATOM     20  C   LIG    1       -1.354  -0.524  -4.846  0.00  0.00    +0.030 A 
ATOM     21  C   LIG    1       -1.321  -0.291  -3.454  0.00  0.00    +0.220 A 
ATOM     22  N   LIG    1       -0.537  -0.674  -2.470  0.00  0.00    -0.270 NA
ATOM     23  N   LIG    1       -0.950  -0.165  -1.362  0.00  0.00    -0.240 NA
ATOM     24  C   LIG    1       -2.025   0.564  -1.566  0.00  0.00    +0.120 A 
ATOM     25  N   LIG    1       -2.299   0.516  -2.900  0.00  0.00    -0.420 N 
ATOM     26  C   LIG    1       -3.256   1.057  -3.702  0.00  0.00    +0.370 A 
ATOM     27  C   LIG    1       -4.322   1.936  -3.099  0.00  0.00    +0.210 C 
ATOM     28  N   LIG    1       -3.264   0.826  -4.985  0.00  0.00    -0.480 NA
ENDBRANCH  17  24
ENDBRANCH   1  17
TORSDOF 6
