REMARK  Name = ZINCpk000004Gyjl.0
REMARK                            x       y       z     vdW  Elec       q    Type
REMARK                         _______ _______ _______ _____ _____    ______ ____
ROOT
ATOM      1  N   LIG    1        5.805   5.852   0.117  0.00  0.00    -0.740 N 
ATOM      2  H   LIG    1        5.727   5.543  -0.799  0.00  0.00    +0.400 HD
ATOM      3  C   LIG    1        4.739   5.796   0.940  0.00  0.00    +0.720 C 
ATOM      4  N   LIG    1        3.595   5.218   0.523  0.00  0.00    -0.630 N 
ATOM      5  C   LIG    1        2.462   5.051   1.443  0.00  0.00    +0.320 C 
ATOM      6  C   LIG    1        2.038   3.579   1.441  0.00  0.00    +0.020 C 
ATOM      7  C   LIG    1        1.751   3.138   0.004  0.00  0.00    +0.270 C 
ATOM      8  C   LIG    1        3.022   3.275  -0.837  0.00  0.00    +0.030 C 
ATOM      9  C   LIG    1        3.457   4.744  -0.861  0.00  0.00    +0.290 C 
ATOM     10  O   LIG    1        4.810   6.267   2.058  0.00  0.00    -0.580 OA
ENDROOT
BRANCH   7  11
ATOM     11  N   LIG    1        1.313   1.740   0.002  0.00  0.00    -0.350 N 
ATOM     12  C   LIG    1        2.106   0.649  -0.011  0.00  0.00    +0.300 A 
ATOM     13  C   LIG    1        1.281  -0.440  -0.009  0.00  0.00    -0.110 A 
ATOM     14  N   LIG    1        0.007  -0.009   0.006  0.00  0.00    -0.200 NA
ATOM     15  N   LIG    1       -0.011   1.278   0.012  0.00  0.00    -0.060 NA
BRANCH  13  16
ATOM     16  C   LIG    1        1.714  -1.850  -0.020  0.00  0.00    +0.610 C 
ATOM     17  O   LIG    1        2.899  -2.122  -0.033  0.00  0.00    -0.540 OA
ATOM     18  N   LIG    1        0.796  -2.837  -0.015  0.00  0.00    -0.840 N 
ATOM     19  H   LIG    1        1.081  -3.764  -0.022  0.00  0.00    +0.410 HD
ATOM     20  H   LIG    1       -0.149  -2.620  -0.004  0.00  0.00    +0.410 HD
ENDBRANCH  13  16
ENDBRANCH   7  11
BRANCH   1  21
ATOM     21  C   LIG    1        7.081   6.379   0.606  0.00  0.00    +0.300 C 
BRANCH  21  22
ATOM     22  C   LIG    1        8.117   6.332  -0.519  0.00  0.00    +0.290 C 
ATOM     23  F   LIG    1        7.673   7.108  -1.595  0.00  0.00    -0.190 F 
ATOM     24  F   LIG    1        8.289   5.008  -0.939  0.00  0.00    -0.190 F 
BRANCH  22  26
ATOM     25  C   LIG    1        9.936   6.033   1.168  0.00  0.00    +0.060 C 
ATOM     26  C   LIG    1        9.450   6.882  -0.009  0.00  0.00    -0.100 C 
ATOM     27  C   LIG    1        9.262   8.329   0.451  0.00  0.00    +0.060 C 
ATOM     28  C   LIG    1       10.486   6.835  -1.133  0.00  0.00    +0.060 C 
ENDBRANCH  22  26
ENDBRANCH  21  22
ENDBRANCH   1  21
TORSDOF 5
