REMARK  Name = ZINCrD0000075IzD.0
REMARK                            x       y       z     vdW  Elec       q    Type
REMARK                         _______ _______ _______ _____ _____    ______ ____
ROOT
ATOM      1  O   LIG    1        5.906  -1.826  -1.114  0.00  0.00    -0.530 OA
ATOM      2  C   LIG    1        5.658  -0.700  -1.503  0.00  0.00    +0.570 C 
ATOM      3  N   LIG    1        4.523  -0.087  -1.111  0.00  0.00    -0.720 N 
ATOM      4  H   LIG    1        4.325   0.810  -1.421  0.00  0.00    +0.400 HD
ENDROOT
BRANCH   2   5
ATOM      5  C   LIG    1        6.599  -0.006  -2.402  0.00  0.00    -0.170 A 
ATOM      6  C   LIG    1        6.312   1.285  -2.854  0.00  0.00    +0.080 A 
ATOM      7  C   LIG    1        7.194   1.931  -3.690  0.00  0.00    -0.040 A 
ATOM      8  C   LIG    1        8.365   1.297  -4.094  0.00  0.00    +0.140 A 
ATOM      9  C   LIG    1        8.651   0.009  -3.649  0.00  0.00    -0.030 A 
ATOM     10  C   LIG    1        7.776  -0.641  -2.809  0.00  0.00    +0.120 A 
BRANCH   8  11
ATOM     11  N   LIG    1        9.251   1.950  -4.943  0.00  0.00    -0.470 N 
ATOM     12  C   LIG    1        9.307   3.392  -4.640  0.00  0.00    +0.210 C 
ATOM     13  C   LIG    1       10.780   3.739  -4.340  0.00  0.00    -0.010 C 
ATOM     14  C   LIG    1       11.559   2.597  -5.043  0.00  0.00    +0.170 C 
ATOM     15  C   LIG    1       10.614   1.390  -4.820  0.00  0.00    +0.220 C 
BRANCH  14  16
ATOM     16  O   LIG    1       12.825   2.379  -4.416  0.00  0.00    -0.560 OA
ATOM     17  H   LIG    1       13.415   3.144  -4.446  0.00  0.00    +0.390 HD
ENDBRANCH  14  16
ENDBRANCH   8  11
ENDBRANCH   2   5
BRANCH   3  18
ATOM     18  C   LIG    1        3.589  -0.776  -0.217  0.00  0.00    +0.410 C 
BRANCH  18  19
ATOM     19  C   LIG    1        2.204  -0.214  -0.408  0.00  0.00    -0.100 A 
ATOM     20  C   LIG    1        1.109  -1.058  -0.408  0.00  0.00    +0.030 A 
ATOM     21  C   LIG    1       -0.161  -0.542  -0.583  0.00  0.00    +0.010 A 
ATOM     22  C   LIG    1       -0.337   0.818  -0.756  0.00  0.00    +0.020 A 
ATOM     23  C   LIG    1        0.757   1.662  -0.755  0.00  0.00    +0.010 A 
ATOM     24  C   LIG    1        2.028   1.146  -0.583  0.00  0.00    +0.010 A 
ENDBRANCH  18  19
BRANCH  18  25
ATOM     25  C   LIG    1        4.021  -0.575   1.212  0.00  0.00    -0.020 A 
ATOM     26  C   LIG    1        3.988  -1.506   2.182  0.00  0.00    -0.040 A 
ATOM     27  C   LIG    1        4.479  -0.891   3.357  0.00  0.00    -0.060 A 
ATOM     28  C   LIG    1        4.782   0.379   3.035  0.00  0.00    +0.160 A 
ATOM     29  O   LIG    1        4.508   0.563   1.733  0.00  0.00    -0.170 OA
ENDBRANCH  18  25
ENDBRANCH   3  18
TORSDOF 6
