REMARK  Name = ZINCpk000000nX8F.0
REMARK                            x       y       z     vdW  Elec       q    Type
REMARK                         _______ _______ _______ _____ _____    ______ ____
ROOT
ATOM      1  N   LIG    1        1.225   5.431  -1.643  0.00  0.00    -0.730 N 
ATOM      2  H   LIG    1        1.174   6.056  -0.903  0.00  0.00    +0.400 HD
ATOM      3  C   LIG    1        1.228   4.104  -1.404  0.00  0.00    +0.510 C 
ATOM      4  O   LIG    1        1.291   3.322  -2.329  0.00  0.00    -0.520 OA
ENDROOT
BRANCH   3   5
ATOM      5  C   LIG    1        1.151   3.593   0.011  0.00  0.00    +0.070 C 
ATOM      6  C   LIG    1        2.349   4.114   0.807  0.00  0.00    +0.110 C 
ATOM      7  C   LIG    1        3.605   3.420   0.353  0.00  0.00    +0.520 C 
ATOM      8  N   LIG    1        3.581   2.128  -0.021  0.00  0.00    -0.660 N 
ATOM      9  H   LIG    1        4.402   1.692  -0.299  0.00  0.00    +0.420 HD
ATOM     10  C   LIG    1        2.382   1.410  -0.013  0.00  0.00    +0.210 A 
ATOM     11  C   LIG    1        2.400   0.022  -0.021  0.00  0.00    -0.050 A 
ATOM     12  C   LIG    1        1.209  -0.683  -0.013  0.00  0.00    +0.140 A 
ATOM     13  C   LIG    1        0.002  -0.004   0.002  0.00  0.00    -0.030 A 
ATOM     14  C   LIG    1       -0.017   1.379   0.010  0.00  0.00    +0.100 A 
ATOM     15  F   LIG    1        1.224  -2.034  -0.022  0.00  0.00    -0.130 F 
ATOM     16  O   LIG    1        4.651   4.033   0.326  0.00  0.00    -0.510 OA
ATOM     17  C   LIG    1        1.169   2.086   0.002  0.00  0.00    -0.120 A 
ENDBRANCH   3   5
BRANCH   1  18
ATOM     18  C   LIG    1        1.300   5.928  -3.019  0.00  0.00    +0.220 C 
BRANCH  18  19
ATOM     19  C   LIG    1        1.280   7.457  -3.010  0.00  0.00    +0.220 C 
BRANCH  19  23
ATOM     20  C   LIG    1        3.840   7.469  -7.214  0.00  0.00    +0.060 C 
ATOM     21  C   LIG    1        2.630   8.047  -6.477  0.00  0.00    +0.110 C 
ATOM     22  C   LIG    1        2.561   7.457  -5.066  0.00  0.00    +0.160 C 
ATOM     23  N   LIG    1        1.355   7.956  -4.390  0.00  0.00    -0.520 NA
ATOM     24  C   LIG    1        0.147   7.595  -5.147  0.00  0.00    +0.150 C 
ATOM     25  C   LIG    1        0.240   8.183  -6.557  0.00  0.00    +0.220 C 
ATOM     26  C   LIG    1        2.764   9.568  -6.390  0.00  0.00    +0.020 C 
ATOM     27  O   LIG    1        1.434   7.712  -7.187  0.00  0.00    -0.380 OA
ENDBRANCH  19  23
ENDBRANCH  18  19
ENDBRANCH   1  18
TORSDOF 4
