REMARK  Name = ZINCrD00000hQ770.0
REMARK                            x       y       z     vdW  Elec       q    Type
REMARK                         _______ _______ _______ _____ _____    ______ ____
ROOT
ATOM      1  C   LIG    1        4.512   6.451  -0.575  0.00  0.00    +0.060 C 
ATOM      2  C   LIG    1        3.589   5.939   0.533  0.00  0.00    -0.080 C 
ATOM      3  C   LIG    1        3.239   7.022   1.574  0.00  0.00    +0.270 C 
ATOM      4  N   LIG    1        3.106   6.287   2.853  0.00  0.00    -0.620 N 
ATOM      5  C   LIG    1        4.200   5.290   2.818  0.00  0.00    +0.280 C 
ATOM      6  C   LIG    1        2.195   6.481   3.827  0.00  0.00    +0.580 C 
ATOM      7  O   LIG    1        2.145   5.720   4.773  0.00  0.00    -0.530 OA
ATOM      8  C   LIG    1        2.277   5.341  -0.021  0.00  0.00    +0.220 C 
ATOM      9  N   LIG    1        2.528   3.875  -0.059  0.00  0.00    -0.440 N 
ATOM     10  C   LIG    1        3.237   3.611   1.221  0.00  0.00    +0.220 C 
ATOM     11  C   LIG    1        4.228   4.787   1.359  0.00  0.00    +0.010 C 
ENDROOT
BRANCH   6  12
ATOM     12  C   LIG    1        1.255   7.620   3.744  0.00  0.00    -0.140 A 
ATOM     13  C   LIG    1        1.566   8.729   2.956  0.00  0.00    +0.050 A 
ATOM     14  C   LIG    1        0.683   9.786   2.879  0.00  0.00    +0.010 A 
ATOM     15  C   LIG    1       -0.504   9.753   3.590  0.00  0.00    -0.040 A 
ATOM     16  C   LIG    1       -0.815   8.659   4.378  0.00  0.00    +0.010 A 
ATOM     17  C   LIG    1        0.057   7.593   4.459  0.00  0.00    +0.070 A 
BRANCH  15  18
ATOM     18  C   LIG    1       -1.461  10.913   3.506  0.00  0.00    +0.020 C 
ATOM     19  C   LIG    1       -1.575  11.517   2.096  0.00  0.00    +0.030 C 
ATOM     20  C   LIG    1       -1.609  12.897   2.777  0.00  0.00    +0.010 C 
ATOM     21  C   LIG    1       -0.847  12.252   3.947  0.00  0.00    +0.020 C 
ENDBRANCH  15  18
ENDBRANCH   6  12
BRANCH   9  22
ATOM     22  C   LIG    1        1.338   3.170  -0.122  0.00  0.00    +0.480 A 
ATOM     23  N   LIG    1        1.373   1.847  -0.164  0.00  0.00    -0.520 NA
ATOM     24  C   LIG    1        0.254   1.143  -0.224  0.00  0.00    +0.340 A 
ATOM     25  C   LIG    1       -0.962   1.807  -0.250  0.00  0.00    -0.100 A 
ATOM     26  C   LIG    1       -0.962   3.192  -0.200  0.00  0.00    +0.340 A 
ATOM     27  N   LIG    1        0.193   3.835  -0.140  0.00  0.00    -0.550 NA
ENDBRANCH   9  22
TORSDOF 3
