REMARK  Name = ZINCpe000000Yo79.0
REMARK                            x       y       z     vdW  Elec       q    Type
REMARK                         _______ _______ _______ _____ _____    ______ ____
ROOT
ATOM      1  C   LIG    1        0.015   4.348   0.022  0.00  0.00    +0.600 C 
ATOM      2  N   LIG    1        0.086   5.694   0.030  0.00  0.00    -0.660 N 
ATOM      3  H   LIG    1        0.948   6.134   0.098  0.00  0.00    +0.420 HD
ATOM      4  O   LIG    1       -1.068   3.797   0.022  0.00  0.00    -0.490 OA
ENDROOT
BRANCH   1   8
ATOM      5  C   LIG    1        4.777   4.297   0.010  0.00  0.00    +0.360 C 
ATOM      6  N   LIG    1        3.543   3.508   0.009  0.00  0.00    -0.360 N 
ATOM      7  N   LIG    1        2.425   4.131   0.015  0.00  0.00    -0.190 NA
ATOM      8  C   LIG    1        1.253   3.544   0.015  0.00  0.00    +0.050 A 
ATOM      9  C   LIG    1        1.186   2.074   0.006  0.00  0.00    -0.040 A 
ATOM     10  C   LIG    1       -0.016   1.375   0.004  0.00  0.00    +0.070 A 
ATOM     11  C   LIG    1        0.003  -0.004  -0.005  0.00  0.00    +0.060 A 
ATOM     12  C   LIG    1        1.205  -0.698  -0.011  0.00  0.00    +0.030 A 
ATOM     13  C   LIG    1        2.408  -0.025  -0.009  0.00  0.00    +0.090 A 
ATOM     14  C   LIG    1        2.410   1.366  -0.001  0.00  0.00    -0.140 A 
ATOM     15  C   LIG    1        3.645   2.163   0.001  0.00  0.00    +0.520 A 
ATOM     16  O   LIG    1        4.736   1.621  -0.005  0.00  0.00    -0.490 OA
ENDBRANCH   1   8
BRANCH   2  17
ATOM     17  C   LIG    1       -1.082   6.457  -0.060  0.00  0.00    +0.120 A 
ATOM     18  C   LIG    1       -1.074   7.664  -0.747  0.00  0.00    +0.060 A 
ATOM     19  C   LIG    1       -2.232   8.412  -0.839  0.00  0.00    +0.020 A 
ATOM     20  C   LIG    1       -3.395   7.965  -0.239  0.00  0.00    +0.120 A 
ATOM     21  C   LIG    1       -3.405   6.766   0.449  0.00  0.00    -0.660 A 
ATOM     22  C   LIG    1       -2.252   6.011   0.541  0.00  0.00    +0.140 A 
BRANCH  21  23
ATOM     23  S   LIG    1       -4.890   6.201   1.212  0.00  0.00    +2.700 S 
ATOM     24  O   LIG    1       -4.766   4.791   1.335  0.00  0.00    -0.950 OA
ATOM     25  O   LIG    1       -5.960   6.830   0.521  0.00  0.00    -0.960 OA
BRANCH  23  26
ATOM     26  N   LIG    1       -4.909   6.805   2.754  0.00  0.00    -1.250 NA
ATOM     27  H   LIG    1       -4.075   6.965   3.222  0.00  0.00    +0.420 HD
ATOM     28  H   LIG    1       -5.755   6.998   3.188  0.00  0.00    +0.420 HD
ENDBRANCH  23  26
ENDBRANCH  21  23
ENDBRANCH   2  17
TORSDOF 4
