REMARK  Name = ZINCrD000000D5Ug.2
REMARK                            x       y       z     vdW  Elec       q    Type
REMARK                         _______ _______ _______ _____ _____    ______ ____
ROOT
ATOM      1  O   LIG    1       -2.336   0.952  -1.707  0.00  0.00    -0.940 OA
ATOM      2  S   LIG    1       -1.135   1.670  -1.457  0.00  0.00    +2.610 S 
ATOM      3  O   LIG    1       -1.108   3.090  -1.502  0.00  0.00    -0.940 OA
ENDROOT
BRANCH   2   4
ATOM      4  C   LIG    1       -0.335   1.065   0.054  0.00  0.00    -0.460 C 
ATOM      5  C   LIG    1        1.050   1.722   0.226  0.00  0.00    +0.080 C 
ATOM      6  C   LIG    1        0.965   2.494   1.561  0.00  0.00    +0.170 C 
ATOM      7  N   LIG    1       -0.110   1.807   2.322  0.00  0.00    -0.490 NA
ATOM      8  C   LIG    1       -1.141   1.496   1.299  0.00  0.00    +0.210 C 
BRANCH   7   9
ATOM      9  C   LIG    1       -0.655   2.682   3.369  0.00  0.00    +0.260 C 
BRANCH   9  10
ATOM     10  C   LIG    1       -1.439   3.800   2.731  0.00  0.00    -0.130 A 
ATOM     11  C   LIG    1       -0.808   4.985   2.400  0.00  0.00    +0.010 A 
ATOM     12  C   LIG    1       -1.526   6.008   1.810  0.00  0.00    +0.010 A 
ATOM     13  C   LIG    1       -2.877   5.851   1.562  0.00  0.00    +0.010 A 
ATOM     14  C   LIG    1       -3.509   4.668   1.898  0.00  0.00    +0.010 A 
ATOM     15  C   LIG    1       -2.789   3.643   2.483  0.00  0.00    +0.000 A 
ENDBRANCH   9  10
ENDBRANCH   7   9
ENDBRANCH   2   4
BRANCH   2  16
ATOM     16  N   LIG    1       -0.119   1.204  -2.678  0.00  0.00    -0.960 NA
BRANCH  16  17
ATOM     17  C   LIG    1        1.056   2.016  -3.005  0.00  0.00    +0.210 C 
ATOM     18  C   LIG    1        1.912   1.575  -4.194  0.00  0.00    +0.030 C 
ATOM     19  C   LIG    1        2.433   1.394  -2.766  0.00  0.00    +0.000 C 
ENDBRANCH  16  17
BRANCH  16  20
ATOM     20  C   LIG    1       -0.394  -0.022  -3.433  0.00  0.00    +0.360 C 
BRANCH  20  21
ATOM     21  C   LIG    1        0.364  -1.171  -2.819  0.00  0.00    -0.150 A 
ATOM     22  C   LIG    1        1.562  -1.581  -3.371  0.00  0.00    +0.060 A 
ATOM     23  C   LIG    1        2.261  -2.631  -2.804  0.00  0.00    +0.000 A 
ATOM     24  C   LIG    1        1.756  -3.279  -1.692  0.00  0.00    +0.050 A 
ATOM     25  C   LIG    1        0.555  -2.873  -1.142  0.00  0.00    -0.010 A 
ATOM     26  C   LIG    1       -0.143  -1.818  -1.705  0.00  0.00    +0.100 A 
ATOM     27  F   LIG    1       -1.317  -1.421  -1.167  0.00  0.00    -0.130 F 
ENDBRANCH  20  21
ENDBRANCH  16  20
ENDBRANCH   2  16
TORSDOF 7
