REMARK  Name = ZINCtV00001bB3KG.0
REMARK                            x       y       z     vdW  Elec       q    Type
REMARK                         _______ _______ _______ _____ _____    ______ ____
ROOT
ATOM      1  C   LIG    1       -0.771   2.996   3.372  0.00  0.00    +0.090 A 
ATOM      2  N   LIG    1       -0.046   2.656   2.342  0.00  0.00    -0.440 NA
ATOM      3  C   LIG    1       -0.686   2.367   1.233  0.00  0.00    +0.070 A 
ATOM      4  C   LIG    1       -2.019   2.460   1.287  0.00  0.00    -0.020 A 
ATOM      5  S   LIG    1       -2.472   2.954   2.917  0.00  0.00    +0.150 S 
ENDROOT
BRANCH   1   6
ATOM      6  C   LIG    1       -0.249   3.355   4.704  0.00  0.00    +0.050 C 
ATOM      7  C   LIG    1       -1.111   3.694   5.704  0.00  0.00    +0.140 C 
BRANCH   7   8
ATOM      8  C   LIG    1       -0.606   3.906   7.067  0.00  0.00    -0.030 A 
ATOM      9  C   LIG    1        0.523   3.211   7.516  0.00  0.00    +0.050 A 
ATOM     10  C   LIG    1        0.993   3.420   8.794  0.00  0.00    +0.110 A 
ATOM     11  C   LIG    1        0.345   4.307   9.638  0.00  0.00    -0.030 A 
ATOM     12  C   LIG    1       -0.775   4.995   9.203  0.00  0.00    +0.110 A 
ATOM     13  C   LIG    1       -1.255   4.801   7.926  0.00  0.00    +0.070 A 
BRANCH  11  14
ATOM     14  N   LIG    1        0.853   4.521  11.012  0.00  0.00    +0.020 N 
ATOM     15  O   LIG    1        1.839   3.917  11.397  0.00  0.00    -0.150 OA
ATOM     16  O   LIG    1        0.286   5.300  11.756  0.00  0.00    -0.150 OA
ENDBRANCH  11  14
ENDBRANCH   7   8
BRANCH   6  18
ATOM     17  N   LIG    1        2.282   3.345   5.137  0.00  0.00    -0.380 NA
ATOM     18  C   LIG    1        1.162   3.349   4.945  0.00  0.00    +0.250 C 
ENDBRANCH   6  18
ENDBRANCH   1   6
BRANCH   3  19
ATOM     19  C   LIG    1        0.037   1.961  -0.026  0.00  0.00    +0.200 C 
BRANCH  19  20
ATOM     20  S   LIG    1        0.238   0.162  -0.052  0.00  0.00    +0.030 S 
BRANCH  20  21
ATOM     21  C   LIG    1        1.088  -0.028  -1.584  0.00  0.00    +0.080 A 
ATOM     22  N   LIG    1        1.408   0.940  -2.374  0.00  0.00    -0.470 NA
ATOM     23  C   LIG    1        2.062   0.635  -3.512  0.00  0.00    +0.090 A 
ATOM     24  C   LIG    1        2.521   1.502  -4.526  0.00  0.00    +0.070 A 
ATOM     25  C   LIG    1        3.169   1.001  -5.628  0.00  0.00    +0.040 A 
ATOM     26  C   LIG    1        3.383  -0.362  -5.762  0.00  0.00    +0.040 A 
ATOM     27  C   LIG    1        2.944  -1.228  -4.784  0.00  0.00    +0.060 A 
ATOM     28  C   LIG    1        2.285  -0.738  -3.660  0.00  0.00    -0.170 A 
ATOM     29  S   LIG    1        1.611  -1.565  -2.257  0.00  0.00    +0.110 S 
ENDBRANCH  20  21
ENDBRANCH  19  20
ENDBRANCH   3  19
TORSDOF 7
