REMARK  Name = ZINCrH000004usbo.0
REMARK                            x       y       z     vdW  Elec       q    Type
REMARK                         _______ _______ _______ _____ _____    ______ ____
ROOT
ATOM      1  O   LIG    1        0.615  -4.737   0.172  0.00  0.00    -0.520 OA
ATOM      2  C   LIG    1       -0.057  -4.110  -0.620  0.00  0.00    +0.530 C 
ATOM      3  N   LIG    1        0.155  -2.790  -0.787  0.00  0.00    -0.730 N 
ATOM      4  H   LIG    1       -0.383  -2.289  -1.421  0.00  0.00    +0.400 HD
ENDROOT
BRANCH   2   5
ATOM      5  C   LIG    1       -1.129  -4.808  -1.417  0.00  0.00    +0.100 C 
ATOM      6  C   LIG    1       -2.483  -4.232  -1.082  0.00  0.00    -0.090 A 
ATOM      7  C   LIG    1       -3.008  -2.965  -1.206  0.00  0.00    +0.030 A 
ATOM      8  C   LIG    1       -4.309  -2.711  -0.811  0.00  0.00    +0.020 A 
ATOM      9  C   LIG    1       -5.087  -3.729  -0.289  0.00  0.00    +0.020 A 
ATOM     10  C   LIG    1       -4.570  -5.002  -0.160  0.00  0.00    +0.030 A 
ATOM     11  C   LIG    1       -3.258  -5.265  -0.557  0.00  0.00    -0.040 A 
ATOM     12  C   LIG    1       -2.462  -6.517  -0.531  0.00  0.00    -0.060 A 
ATOM     13  C   LIG    1       -2.787  -7.805  -0.102  0.00  0.00    +0.020 A 
ATOM     14  C   LIG    1       -1.852  -8.815  -0.184  0.00  0.00    +0.020 A 
ATOM     15  C   LIG    1       -0.591  -8.558  -0.691  0.00  0.00    +0.020 A 
ATOM     16  C   LIG    1       -0.261  -7.284  -1.118  0.00  0.00    +0.040 A 
ATOM     17  C   LIG    1       -1.190  -6.268  -1.039  0.00  0.00    -0.070 A 
ENDBRANCH   2   5
BRANCH   3  18
ATOM     18  C   LIG    1        1.197  -2.111  -0.013  0.00  0.00    +0.310 C 
BRANCH  18  19
ATOM     19  C   LIG    1        1.229  -0.629  -0.390  0.00  0.00    +0.130 C 
ATOM     20  C   LIG    1        2.381   0.069   0.347  0.00  0.00    +0.240 C 
ATOM     21  O   LIG    1        2.373   1.453  -0.019  0.00  0.00    -0.300 OA
ATOM     22  C   LIG    1        1.168   2.084   0.002  0.00  0.00    +0.050 A 
ATOM     23  C   LIG    1        1.126   3.470   0.015  0.00  0.00    +0.030 A 
ATOM     24  C   LIG    1       -0.090   4.126   0.032  0.00  0.00    +0.020 A 
ATOM     25  C   LIG    1       -1.268   3.403   0.037  0.00  0.00    +0.020 A 
ATOM     26  C   LIG    1       -1.233   2.021   0.030  0.00  0.00    +0.020 A 
ATOM     27  C   LIG    1       -0.016   1.357   0.009  0.00  0.00    +0.050 A 
ATOM     28  O   LIG    1        0.002  -0.004   0.002  0.00  0.00    -0.300 OA
ENDBRANCH  18  19
ENDBRANCH   3  18
TORSDOF 3
