REMARK  Name = ZINCqH00000074CV.0
REMARK                            x       y       z     vdW  Elec       q    Type
REMARK                         _______ _______ _______ _____ _____    ______ ____
ROOT
ATOM      1  C   LIG    1       -5.092   4.755  -0.544  0.00  0.00    -0.090 A 
ATOM      2  C   LIG    1       -5.975   5.384   0.330  0.00  0.00    +0.050 A 
ATOM      3  C   LIG    1       -6.252   4.817   1.560  0.00  0.00    +0.040 A 
ATOM      4  C   LIG    1       -5.660   3.623   1.929  0.00  0.00    +0.020 A 
ATOM      5  C   LIG    1       -4.784   2.981   1.073  0.00  0.00    +0.040 A 
ATOM      6  C   LIG    1       -4.494   3.536  -0.170  0.00  0.00    -0.100 A 
ENDROOT
BRANCH   6   7
ATOM      7  C   LIG    1       -3.558   2.854  -1.090  0.00  0.00    +0.560 C 
ATOM      8  N   LIG    1       -2.331   2.497  -0.660  0.00  0.00    -0.590 N 
ATOM      9  C   LIG    1       -1.893   2.878   0.684  0.00  0.00    +0.260 C 
ATOM     10  C   LIG    1       -0.443   3.384   0.775  0.00  0.00    +0.100 C 
ATOM     11  S   LIG    1       -0.063   4.502  -0.581  0.00  0.00    -0.240 S 
ATOM     12  C   LIG    1        0.394   3.376  -1.939  0.00  0.00    +0.120 C 
ATOM     13  C   LIG    1       -0.760   2.697  -2.515  0.00  0.00    -0.020 C 
ATOM     14  C   LIG    1       -0.301   1.896  -3.736  0.00  0.00    +0.040 C 
ATOM     15  C   LIG    1       -1.458   1.740  -1.531  0.00  0.00    +0.290 C 
ATOM     16  O   LIG    1       -3.895   2.615  -2.233  0.00  0.00    -0.510 OA
ENDBRANCH   6   7
BRANCH   1  17
ATOM     17  C   LIG    1       -4.789   5.360  -1.859  0.00  0.00    +0.450 C 
ATOM     18  O   LIG    1       -4.030   6.306  -1.932  0.00  0.00    -0.440 OA
BRANCH  17  22
ATOM     19  C   LIG    1       -6.569   3.790  -5.379  0.00  0.00    +0.160 A 
ATOM     20  C   LIG    1       -5.758   4.917  -5.456  0.00  0.00    -0.030 A 
ATOM     21  C   LIG    1       -5.179   5.429  -4.317  0.00  0.00    +0.120 A 
ATOM     22  C   LIG    1       -5.407   4.815  -3.081  0.00  0.00    -0.190 A 
ATOM     23  C   LIG    1       -6.220   3.678  -3.010  0.00  0.00    +0.140 A 
ATOM     24  C   LIG    1       -6.799   3.175  -4.153  0.00  0.00    -0.100 A 
BRANCH  19  26
ATOM     25  C   LIG    1       -7.960   2.129  -6.354  0.00  0.00    +0.240 C 
ATOM     26  O   LIG    1       -7.138   3.288  -6.504  0.00  0.00    -0.310 OA
ENDBRANCH  19  26
ENDBRANCH  17  22
ENDBRANCH   1  17
TORSDOF 4
