REMARK  Name = ZINCrD0000075tTq.0
REMARK                            x       y       z     vdW  Elec       q    Type
REMARK                         _______ _______ _______ _____ _____    ______ ____
ROOT
ATOM      1  O   LIG    1        5.523  -1.898  -2.221  0.00  0.00    -0.490 OA
ATOM      2  C   LIG    1        5.051  -1.055  -2.947  0.00  0.00    +0.470 C 
ENDROOT
BRANCH   2   3
ATOM      3  O   LIG    1        4.851  -1.323  -4.247  0.00  0.00    -0.330 OA
BRANCH   3   4
ATOM      4  C   LIG    1        5.223  -2.648  -4.711  0.00  0.00    +0.230 C 
BRANCH   4   5
ATOM      5  C   LIG    1        4.928  -2.764  -6.184  0.00  0.00    +0.430 C 
ATOM      6  O   LIG    1        4.450  -1.823  -6.784  0.00  0.00    -0.440 OA
BRANCH   5   7
ATOM      7  C   LIG    1        5.208  -3.973  -6.870  0.00  0.00    -0.270 A 
ATOM      8  C   LIG    1        5.752  -5.121  -6.335  0.00  0.00    +0.330 A 
ATOM      9  N   LIG    1        5.866  -6.058  -7.295  0.00  0.00    -0.560 N 
ATOM     10  H   LIG    1        6.222  -6.950  -7.156  0.00  0.00    +0.420 HD
ATOM     11  C   LIG    1        5.413  -5.574  -8.505  0.00  0.00    +0.070 A 
ATOM     12  C   LIG    1        5.322  -6.130  -9.777  0.00  0.00    +0.000 A 
ATOM     13  C   LIG    1        4.813  -5.386 -10.819  0.00  0.00    +0.030 A 
ATOM     14  C   LIG    1        4.388  -4.082 -10.615  0.00  0.00    +0.000 A 
ATOM     15  C   LIG    1        4.469  -3.513  -9.362  0.00  0.00    +0.060 A 
ATOM     16  C   LIG    1        4.981  -4.254  -8.301  0.00  0.00    -0.060 A 
ENDBRANCH   5   7
ENDBRANCH   4   5
ENDBRANCH   3   4
ENDBRANCH   2   3
BRANCH   2  17
ATOM     17  C   LIG    1        4.689   0.299  -2.392  0.00  0.00    +0.140 C 
BRANCH  17  18
ATOM     18  C   LIG    1        5.016   0.342  -0.898  0.00  0.00    +0.070 C 
ATOM     19  S   LIG    1        3.942  -0.821  -0.005  0.00  0.00    -0.050 S 
ATOM     20  C   LIG    1        2.398   0.036  -0.013  0.00  0.00    -0.150 A 
ATOM     21  C   LIG    1        1.210  -0.677  -0.009  0.00  0.00    +0.080 A 
ATOM     22  C   LIG    1        0.002  -0.004   0.002  0.00  0.00    +0.010 A 
ATOM     23  C   LIG    1       -0.017   1.378   0.010  0.00  0.00    +0.050 A 
ATOM     24  C   LIG    1        1.165   2.094   0.002  0.00  0.00    -0.010 A 
ATOM     25  C   LIG    1        2.387   1.430  -0.013  0.00  0.00    +0.160 A 
ATOM     26  N   LIG    1        3.562   2.176  -0.035  0.00  0.00    -0.650 N 
ATOM     27  H   LIG    1        3.494   3.110   0.217  0.00  0.00    +0.420 HD
ATOM     28  C   LIG    1        4.770   1.730  -0.367  0.00  0.00    +0.530 C 
ATOM     29  O   LIG    1        5.718   2.475  -0.236  0.00  0.00    -0.500 OA
ENDBRANCH  17  18
ENDBRANCH   2  17
TORSDOF 6
