REMARK  Name = ZINCpe000000XElB.0
REMARK                            x       y       z     vdW  Elec       q    Type
REMARK                         _______ _______ _______ _____ _____    ______ ____
ROOT
ATOM      1  N   LIG    1       -6.150  -1.132   2.509  0.00  0.00    -0.680 N 
ATOM      2  H   LIG    1       -6.711  -1.308   1.738  0.00  0.00    +0.410 HD
ATOM      3  C   LIG    1       -4.983  -0.476   2.358  0.00  0.00    +0.710 C 
ATOM      4  N   LIG    1       -4.540  -0.163   1.124  0.00  0.00    -0.730 N 
ATOM      5  H   LIG    1       -5.062  -0.410   0.345  0.00  0.00    +0.400 HD
ATOM      6  O   LIG    1       -4.328  -0.167   3.335  0.00  0.00    -0.560 OA
ENDROOT
BRANCH   1  14
ATOM      7  C   LIG    1       -8.929  -1.532   2.974  0.00  0.00    +0.110 C 
ATOM      8  C   LIG    1       -7.900  -1.767   4.049  0.00  0.00    -0.060 A 
ATOM      9  C   LIG    1       -8.294  -2.190   5.303  0.00  0.00    +0.050 A 
ATOM     10  C   LIG    1       -7.350  -2.407   6.290  0.00  0.00    -0.030 A 
ATOM     11  C   LIG    1       -6.009  -2.202   6.025  0.00  0.00    -0.030 A 
ATOM     12  C   LIG    1       -5.607  -1.784   4.771  0.00  0.00    +0.120 A 
ATOM     13  C   LIG    1       -7.784  -2.869   7.657  0.00  0.00    +0.130 C 
ATOM     14  C   LIG    1       -6.553  -1.560   3.779  0.00  0.00    +0.160 A 
BRANCH  11  15
ATOM     15  N   LIG    1       -5.001  -2.435   7.084  0.00  0.00    +0.030 N 
ATOM     16  O   LIG    1       -5.359  -2.733   8.209  0.00  0.00    -0.160 OA
ATOM     17  O   LIG    1       -3.815  -2.329   6.830  0.00  0.00    -0.160 OA
ENDBRANCH  11  15
ENDBRANCH   1  14
BRANCH   4  18
ATOM     18  C   LIG    1       -3.271   0.550   0.960  0.00  0.00    +0.280 C 
BRANCH  18  19
ATOM     19  C   LIG    1       -3.004   0.779  -0.529  0.00  0.00    +0.320 C 
BRANCH  19  20
ATOM     20  N   LIG    1       -1.735   1.492  -0.693  0.00  0.00    -0.530 N 
ATOM     21  C   LIG    1       -0.572   0.784  -0.826  0.00  0.00    +0.350 A 
ATOM     22  C   LIG    1        0.597   1.441  -0.983  0.00  0.00    -0.110 A 
ATOM     23  C   LIG    1        0.595   2.857  -1.001  0.00  0.00    +0.550 A 
ATOM     24  N   LIG    1       -0.572   3.518  -0.862  0.00  0.00    -0.660 N 
ATOM     25  H   LIG    1       -0.582   4.488  -0.874  0.00  0.00    +0.430 HD
ATOM     26  O   LIG    1        1.637   3.472  -1.141  0.00  0.00    -0.510 OA
ATOM     27  C   LIG    1       -1.723   2.838  -0.708  0.00  0.00    +0.700 A 
ATOM     28  O   LIG    1       -2.768   3.448  -0.584  0.00  0.00    -0.530 OA
ENDBRANCH  19  20
ENDBRANCH  18  19
ENDBRANCH   4  18
TORSDOF 5
