REMARK  Name = ZINCrg000000o08o.0
REMARK                            x       y       z     vdW  Elec       q    Type
REMARK                         _______ _______ _______ _____ _____    ______ ____
ROOT
ATOM      1  C   LIG    1        0.339   0.469   2.350  0.00  0.00    -0.250 C 
ATOM      2  C   LIG    1        0.068  -0.551   1.508  0.00  0.00    +0.250 C 
ATOM      3  N   LIG    1       -0.941  -1.433   1.772  0.00  0.00    -0.650 N 
ATOM      4  H   LIG    1       -1.096  -2.153   1.141  0.00  0.00    +0.430 HD
ATOM      5  C   LIG    1       -1.726  -1.361   2.854  0.00  0.00    +0.710 C 
ATOM      6  N   LIG    1       -1.581  -0.395   3.782  0.00  0.00    -0.710 N 
ATOM      7  H   LIG    1       -2.162  -0.361   4.559  0.00  0.00    +0.430 HD
ATOM      8  O   LIG    1       -2.599  -2.193   3.003  0.00  0.00    -0.560 OA
ATOM      9  C   LIG    1       -0.520   0.608   3.590  0.00  0.00    +0.280 C 
ATOM     10  C   LIG    1       -1.177   1.990   3.563  0.00  0.00    +0.030 C 
ENDROOT
BRANCH   1  11
ATOM     11  C   LIG    1        1.387   1.381   2.080  0.00  0.00    +0.530 C 
ATOM     12  O   LIG    1        1.981   1.329   1.020  0.00  0.00    -0.500 OA
BRANCH  11  13
ATOM     13  O   LIG    1        1.727   2.309   2.999  0.00  0.00    -0.350 OA
BRANCH  13  15
ATOM     14  C   LIG    1        3.035   4.170   3.817  0.00  0.00    +0.070 C 
ATOM     15  C   LIG    1        2.794   3.197   2.660  0.00  0.00    +0.200 C 
ENDBRANCH  13  15
ENDBRANCH  11  13
ENDBRANCH   1  11
BRANCH   2  16
ATOM     16  C   LIG    1        0.894  -0.722   0.260  0.00  0.00    +0.260 C 
BRANCH  16  17
ATOM     17  N   LIG    1        0.347   0.124  -0.810  0.00  0.00    -0.510 NA
ATOM     18  C   LIG    1       -0.993  -0.329  -1.205  0.00  0.00    +0.170 C 
ATOM     19  C   LIG    1       -1.600   0.679  -2.187  0.00  0.00    +0.280 C 
ATOM     20  N   LIG    1       -0.657   0.875  -3.298  0.00  0.00    -0.610 N 
ATOM     21  C   LIG    1        0.741   1.196  -2.976  0.00  0.00    +0.300 C 
ATOM     22  C   LIG    1       -1.064   0.762  -4.578  0.00  0.00    +0.590 C 
ATOM     23  O   LIG    1       -0.254   0.842  -5.483  0.00  0.00    -0.530 OA
ATOM     24  C   LIG    1        1.256   0.168  -1.963  0.00  0.00    +0.190 C 
BRANCH  22  25
ATOM     25  C   LIG    1       -2.481   0.542  -4.881  0.00  0.00    -0.280 A 
ATOM     26  C   LIG    1       -2.967  -0.054  -6.010  0.00  0.00    +0.100 A 
ATOM     27  C   LIG    1       -4.340  -0.132  -6.036  0.00  0.00    +0.000 A 
ATOM     28  C   LIG    1       -4.958   0.383  -4.966  0.00  0.00    -0.070 A 
ATOM     29  S   LIG    1       -3.827   0.996  -3.845  0.00  0.00    +0.220 S 
ENDBRANCH  22  25
ENDBRANCH  16  17
ENDBRANCH   2  16
TORSDOF 6
