REMARK  Name = ZINCvU000000091w.0
REMARK                            x       y       z     vdW  Elec       q    Type
REMARK                         _______ _______ _______ _____ _____    ______ ____
ROOT
ATOM      1  C   LIG    1       -0.016   1.344   0.009  0.00  0.00    +0.520 C 
ATOM      2  N   LIG    1        0.002  -0.004   0.002  0.00  0.00    -0.710 N 
ATOM      3  H   LIG    1        0.849  -0.478  -0.009  0.00  0.00    +0.400 HD
ATOM      4  O   LIG    1       -1.075   1.936   0.018  0.00  0.00    -0.540 OA
ENDROOT
BRANCH   1  10
ATOM      5  C   LIG    1        4.796   2.836  -0.949  0.00  0.00    +0.650 C 
ATOM      6  N   LIG    1        3.921   2.999   0.063  0.00  0.00    -0.590 N 
ATOM      7  C   LIG    1        3.344   4.308   0.276  0.00  0.00    +0.280 C 
ATOM      8  C   LIG    1        2.047   4.446  -0.558  0.00  0.00    +0.010 C 
ATOM      9  C   LIG    1        0.980   3.611   0.013  0.00  0.00    +0.030 C 
ATOM     10  C   LIG    1        1.278   2.115   0.001  0.00  0.00    -0.010 C 
ATOM     11  C   LIG    1        2.086   1.756   1.224  0.00  0.00    +0.040 C 
ATOM     12  C   LIG    1        3.591   1.834   0.907  0.00  0.00    +0.290 C 
ATOM     13  O   LIG    1        5.296   1.747  -1.151  0.00  0.00    -0.570 OA
BRANCH   5  14
ATOM     14  O   LIG    1        5.117   3.881  -1.736  0.00  0.00    -0.360 OA
BRANCH  14  16
ATOM     15  C   LIG    1        5.506   2.565  -3.748  0.00  0.00    +0.040 C 
ATOM     16  C   LIG    1        6.067   3.632  -2.806  0.00  0.00    +0.140 C 
ATOM     17  C   LIG    1        7.389   3.144  -2.211  0.00  0.00    +0.040 C 
ATOM     18  C   LIG    1        6.306   4.926  -3.586  0.00  0.00    +0.080 C 
ENDBRANCH  14  16
ENDBRANCH   5  14
ENDBRANCH   1  10
BRANCH   2  19
ATOM     19  C   LIG    1       -1.256  -0.754   0.010  0.00  0.00    +0.260 C 
BRANCH  19  20
ATOM     20  C   LIG    1       -1.773  -0.899  -1.423  0.00  0.00    -0.080 C 
ATOM     21  C   LIG    1       -2.009   0.488  -2.023  0.00  0.00    +0.030 C 
ATOM     22  C   LIG    1       -3.087  -1.682  -1.415  0.00  0.00    +0.040 C 
ATOM     23  C   LIG    1       -0.738  -1.649  -2.264  0.00  0.00    +0.040 C 
ENDBRANCH  19  20
BRANCH  19  24
ATOM     24  C   LIG    1       -1.020  -2.141   0.610  0.00  0.00    +0.130 C 
BRANCH  24  25
ATOM     25  C   LIG    1       -0.630  -2.002   2.059  0.00  0.00    +0.070 A 
ATOM     26  C   LIG    1       -1.286  -2.618   3.047  0.00  0.00    -0.050 A 
ATOM     27  S   LIG    1       -0.505  -2.188   4.567  0.00  0.00    +0.190 S 
ATOM     28  C   LIG    1        0.621  -1.216   3.724  0.00  0.00    -0.060 A 
ATOM     29  N   LIG    1        0.383  -1.258   2.456  0.00  0.00    -0.420 NA
BRANCH  28  30
ATOM     30  C   LIG    1        1.730  -0.425   4.367  0.00  0.00    +0.490 C 
ATOM     31  F   LIG    1        1.565   0.933   4.075  0.00  0.00    -0.180 F 
ATOM     32  F   LIG    1        2.963  -0.863   3.872  0.00  0.00    -0.180 F 
ENDBRANCH  28  30
ENDBRANCH  24  25
ENDBRANCH  19  24
ENDBRANCH   2  19
TORSDOF 8
