REMARK  Name = ZINCpe000000TpuP.0
REMARK                            x       y       z     vdW  Elec       q    Type
REMARK                         _______ _______ _______ _____ _____    ______ ____
ROOT
ATOM      1  N   LIG    1        0.217   1.352  -0.558  0.00  0.00    -0.540 N 
ATOM      2  C   LIG    1        1.061   1.544   0.473  0.00  0.00    +0.710 A 
ATOM      3  N   LIG    1        0.803   2.460   1.423  0.00  0.00    -0.660 N 
ATOM      4  H   LIG    1        1.428   2.579   2.156  0.00  0.00    +0.430 HD
ATOM      5  C   LIG    1       -0.315   3.210   1.373  0.00  0.00    +0.560 A 
ATOM      6  C   LIG    1       -1.218   3.039   0.306  0.00  0.00    -0.140 A 
ATOM      7  O   LIG    1       -0.541   4.034   2.243  0.00  0.00    -0.500 OA
ATOM      8  O   LIG    1        2.075   0.877   0.545  0.00  0.00    -0.530 OA
ATOM      9  C   LIG    1       -0.936   2.095  -0.660  0.00  0.00    +0.480 A 
ENDROOT
BRANCH   6  10
ATOM     10  N   LIG    1       -2.392   3.817   0.229  0.00  0.00    -0.530 N 
ATOM     11  C   LIG    1       -2.308   5.146   0.010  0.00  0.00    +0.530 C 
ATOM     12  O   LIG    1       -1.222   5.684  -0.046  0.00  0.00    -0.500 OA
BRANCH  11  13
ATOM     13  C   LIG    1       -3.563   5.961  -0.166  0.00  0.00    +0.160 C 
BRANCH  13  14
ATOM     14  C   LIG    1       -3.196   7.405  -0.395  0.00  0.00    -0.160 A 
ATOM     15  C   LIG    1       -2.976   7.962  -1.587  0.00  0.00    +0.000 A 
ATOM     16  C   LIG    1       -2.652   9.308  -1.550  0.00  0.00    +0.000 A 
ATOM     17  C   LIG    1       -2.610   9.843  -0.329  0.00  0.00    -0.060 A 
ATOM     18  S   LIG    1       -3.001   8.614   0.867  0.00  0.00    +0.120 S 
ENDBRANCH  13  14
ENDBRANCH  11  13
BRANCH  10  19
ATOM     19  C   LIG    1       -3.703   3.182   0.387  0.00  0.00    +0.290 C 
BRANCH  19  20
ATOM     20  C   LIG    1       -4.063   3.118   1.872  0.00  0.00    +0.150 C 
BRANCH  20  21
ATOM     21  O   LIG    1       -4.222   4.444   2.381  0.00  0.00    -0.380 OA
ATOM     22  C   LIG    1       -4.561   4.497   3.768  0.00  0.00    +0.210 C 
ENDBRANCH  20  21
ENDBRANCH  19  20
ENDBRANCH  10  19
ENDBRANCH   6  10
BRANCH   9  23
ATOM     23  N   LIG    1       -1.798   1.899  -1.712  0.00  0.00    -0.830 N 
ATOM     24  H   LIG    1       -2.640   2.381  -1.746  0.00  0.00    +0.420 HD
ATOM     25  H   LIG    1       -1.566   1.278  -2.420  0.00  0.00    +0.410 HD
ENDBRANCH   9  23
BRANCH   1  26
ATOM     26  C   LIG    1        0.528   0.346  -1.576  0.00  0.00    +0.300 C 
BRANCH  26  28
ATOM     27  C   LIG    1        0.252  -2.049  -2.229  0.00  0.00    +0.030 C 
ATOM     28  C   LIG    1       -0.073  -0.999  -1.165  0.00  0.00    +0.010 C 
ENDBRANCH  26  28
ENDBRANCH   1  26
TORSDOF 9
