REMARK  Name = ZINCvU0000000EB8.0
REMARK                            x       y       z     vdW  Elec       q    Type
REMARK                         _______ _______ _______ _____ _____    ______ ____
ROOT
ATOM      1  C   LIG    1        1.774  -4.174  -0.119  0.00  0.00    -0.240 A 
ATOM      2  C   LIG    1        1.045  -3.620  -1.113  0.00  0.00    +0.250 A 
ATOM      3  N   LIG    1        0.311  -2.610  -0.577  0.00  0.00    -0.320 N 
ATOM      4  N   LIG    1        0.593  -2.549   0.793  0.00  0.00    -0.270 NA
ATOM      5  C   LIG    1        1.473  -3.487   1.073  0.00  0.00    +0.130 A 
ENDROOT
BRANCH   3   6
ATOM      6  C   LIG    1       -0.577  -1.779  -1.273  0.00  0.00    +0.160 A 
ATOM      7  C   LIG    1       -1.271  -0.784  -0.599  0.00  0.00    +0.020 A 
ATOM      8  C   LIG    1       -2.146   0.034  -1.288  0.00  0.00    +0.040 A 
ATOM      9  C   LIG    1       -2.330  -0.138  -2.648  0.00  0.00    +0.000 A 
ATOM     10  C   LIG    1       -1.639  -1.129  -3.322  0.00  0.00    +0.040 A 
ATOM     11  C   LIG    1       -0.764  -1.950  -2.639  0.00  0.00    -0.010 A 
ENDBRANCH   3   6
BRANCH   5  12
ATOM     12  C   LIG    1        2.047  -3.772   2.412  0.00  0.00    -0.020 A 
ATOM     13  C   LIG    1        2.235  -5.089   2.826  0.00  0.00    +0.030 A 
ATOM     14  C   LIG    1        2.774  -5.348   4.070  0.00  0.00    +0.010 A 
ATOM     15  C   LIG    1        3.117  -4.303   4.909  0.00  0.00    +0.020 A 
ATOM     16  C   LIG    1        2.928  -2.994   4.505  0.00  0.00    +0.010 A 
ATOM     17  C   LIG    1        2.395  -2.723   3.261  0.00  0.00    +0.040 A 
ENDBRANCH   5  12
BRANCH   1  18
ATOM     18  C   LIG    1        2.736  -5.326  -0.261  0.00  0.00    +0.370 C 
BRANCH  18  19
ATOM     19  N   LIG    1        2.857  -5.690  -1.674  0.00  0.00    -0.610 N 
ATOM     20  C   LIG    1        1.967  -6.536  -2.231  0.00  0.00    +0.550 C 
ATOM     21  O   LIG    1        2.118  -6.907  -3.379  0.00  0.00    -0.530 OA
BRANCH  20  22
ATOM     22  C   LIG    1        0.814  -7.009  -1.451  0.00  0.00    -0.090 C 
ATOM     23  C   LIG    1       -0.008  -7.920  -1.964  0.00  0.00    +0.150 C 
ENDBRANCH  20  22
BRANCH  19  24
ATOM     24  C   LIG    1        3.945  -5.135  -2.483  0.00  0.00    +0.290 C 
BRANCH  24  25
ATOM     25  C   LIG    1        5.204  -5.984  -2.295  0.00  0.00    +0.020 C 
BRANCH  25  26
ATOM     26  C   LIG    1        6.376  -5.327  -3.027  0.00  0.00    -0.040 C 
ATOM     27  C   LIG    1        7.704  -5.213  -2.275  0.00  0.00    +0.010 C 
ATOM     28  C   LIG    1        6.852  -3.965  -2.518  0.00  0.00    +0.000 C 
ENDBRANCH  25  26
BRANCH  25  29
ATOM     29  C   LIG    1        4.966  -7.383  -2.867  0.00  0.00    +0.180 C 
BRANCH  29  31
ATOM     30  C   LIG    1        7.060  -8.916  -2.352  0.00  0.00    -0.010 C 
ATOM     31  C   LIG    1        6.131  -8.236  -2.581  0.00  0.00    -0.180 C 
ENDBRANCH  29  31
ENDBRANCH  25  29
ENDBRANCH  24  25
ENDBRANCH  19  24
ENDBRANCH  18  19
ENDBRANCH   1  18
TORSDOF 10
