REMARK  Name = ZINCnE00000jSf6U.0
REMARK                            x       y       z     vdW  Elec       q    Type
REMARK                         _______ _______ _______ _____ _____    ______ ____
ROOT
ATOM      1  C   LIG    1       -7.435   4.725   2.481  0.00  0.00    +0.110 A 
ATOM      2  N   LIG    1       -6.624   4.139   3.312  0.00  0.00    -0.270 NA
ATOM      3  N   LIG    1       -5.525   3.664   2.581  0.00  0.00    -0.520 NA
ATOM      4  C   LIG    1       -5.742   4.016   1.275  0.00  0.00    +0.440 A 
ATOM      5  N   LIG    1       -4.956   3.766   0.262  0.00  0.00    -0.670 NA
ATOM      6  O   LIG    1       -6.923   4.666   1.232  0.00  0.00    -0.290 OA
ENDROOT
BRANCH   5   7
ATOM      7  C   LIG    1       -3.698   3.046   0.471  0.00  0.00    +0.180 C 
ATOM      8  C   LIG    1       -3.690   1.764  -0.371  0.00  0.00    +0.020 C 
ATOM      9  C   LIG    1       -2.487   0.921   0.046  0.00  0.00    +0.060 C 
ATOM     10  C   LIG    1       -1.228   1.748   0.017  0.00  0.00    -0.070 A 
ATOM     11  C   LIG    1       -0.013   1.076   0.008  0.00  0.00    +0.000 A 
ATOM     12  C   LIG    1        1.176   1.776   0.000  0.00  0.00    -0.010 A 
ATOM     13  C   LIG    1        1.159   3.158   0.007  0.00  0.00    -0.010 A 
ATOM     14  C   LIG    1       -0.048   3.828   0.019  0.00  0.00    +0.000 A 
ATOM     15  C   LIG    1       -1.245   3.125   0.025  0.00  0.00    -0.060 A 
ATOM     16  C   LIG    1       -2.525   3.919   0.030  0.00  0.00    +0.070 C 
ENDBRANCH   5   7
BRANCH   1  21
ATOM     17  C   LIG    1      -12.414   7.212   3.757  0.00  0.00    +0.110 C 
ATOM     18  C   LIG    1      -11.097   6.549   3.444  0.00  0.00    +0.100 A 
ATOM     19  C   LIG    1      -10.366   5.972   4.467  0.00  0.00    -0.040 A 
ATOM     20  C   LIG    1       -9.157   5.365   4.177  0.00  0.00    +0.090 A 
ATOM     21  C   LIG    1       -8.719   5.360   2.848  0.00  0.00    -0.020 A 
ATOM     22  C   LIG    1       -9.513   5.969   1.875  0.00  0.00    +0.270 A 
ATOM     23  N   LIG    1      -10.659   6.529   2.200  0.00  0.00    -0.480 NA
ENDBRANCH   1  21
TORSDOF 2
