REMARK  Name = ZINCtV00000L6jxy.0
REMARK                            x       y       z     vdW  Elec       q    Type
REMARK                         _______ _______ _______ _____ _____    ______ ____
ROOT
ATOM      1  C   LIG    1       -0.664  -3.251  -1.673  0.00  0.00    +0.150 A 
ATOM      2  C   LIG    1       -0.805  -2.770  -2.959  0.00  0.00    -0.120 A 
ATOM      3  C   LIG    1       -0.772  -1.394  -3.178  0.00  0.00    +0.210 A 
ATOM      4  N   LIG    1       -0.618  -0.564  -2.168  0.00  0.00    -0.450 NA
ATOM      5  C   LIG    1       -0.488  -1.013  -0.915  0.00  0.00    +0.280 A 
ATOM      6  C   LIG    1       -0.315  -0.359   0.311  0.00  0.00    -0.200 A 
ATOM      7  C   LIG    1       -0.245  -1.346   1.301  0.00  0.00    +0.130 A 
ATOM      8  N   LIG    1       -0.359  -2.522   0.735  0.00  0.00    -0.300 NA
ATOM      9  C   LIG    1       -0.067  -1.097   2.777  0.00  0.00    +0.180 C 
ATOM     10  C   LIG    1       -0.916  -0.854  -4.577  0.00  0.00    +0.160 C 
ATOM     11  N   LIG    1       -0.509  -2.356  -0.646  0.00  0.00    -0.300 N 
ENDROOT
BRANCH   6  12
ATOM     12  C   LIG    1       -0.230   1.105   0.521  0.00  0.00    +0.010 A 
ATOM     13  C   LIG    1       -1.326   1.918   0.237  0.00  0.00    +0.020 A 
ATOM     14  C   LIG    1       -1.242   3.280   0.440  0.00  0.00    +0.000 A 
ATOM     15  C   LIG    1       -0.069   3.841   0.914  0.00  0.00    +0.000 A 
ATOM     16  C   LIG    1        1.024   3.040   1.193  0.00  0.00    +0.000 A 
ATOM     17  C   LIG    1        0.950   1.676   0.999  0.00  0.00    +0.010 A 
ENDBRANCH   6  12
BRANCH   1  18
ATOM     18  S   LIG    1       -0.702  -4.984  -1.355  0.00  0.00    -0.050 S 
BRANCH  18  19
ATOM     19  C   LIG    1        0.995  -5.234  -0.778  0.00  0.00    +0.070 C 
BRANCH  19  20
ATOM     20  C   LIG    1        1.189  -6.700  -0.384  0.00  0.00    +0.050 C 
BRANCH  20  22
ATOM     21  C   LIG    1        2.817  -8.378   0.497  0.00  0.00    +0.030 C 
ATOM     22  C   LIG    1        2.623  -6.912   0.104  0.00  0.00    +0.000 C 
ENDBRANCH  20  22
ENDBRANCH  19  20
ENDBRANCH  18  19
ENDBRANCH   1  18
BRANCH   2  23
ATOM     23  C   LIG    1       -0.983  -3.721  -4.114  0.00  0.00    +0.170 C 
BRANCH  23  24
ATOM     24  C   LIG    1       -2.452  -3.908  -4.390  0.00  0.00    -0.080 A 
ATOM     25  C   LIG    1       -3.181  -4.829  -3.662  0.00  0.00    +0.020 A 
ATOM     26  C   LIG    1       -4.530  -4.997  -3.911  0.00  0.00    +0.000 A 
ATOM     27  C   LIG    1       -5.149  -4.250  -4.896  0.00  0.00    +0.000 A 
ATOM     28  C   LIG    1       -4.419  -3.333  -5.629  0.00  0.00    +0.000 A 
ATOM     29  C   LIG    1       -3.071  -3.161  -5.376  0.00  0.00    +0.010 A 
ENDBRANCH  23  24
ENDBRANCH   2  23
TORSDOF 7
