REMARK  Name = ZINCrg00000fSAsR.0
REMARK                            x       y       z     vdW  Elec       q    Type
REMARK                         _______ _______ _______ _____ _____    ______ ____
ROOT
ATOM      1  O   LIG    1        3.894  -2.740   6.812  0.00  0.00    -0.490 OA
ATOM      2  C   LIG    1        3.912  -1.532   6.707  0.00  0.00    +0.520 C 
ATOM      3  N   LIG    1        4.634  -0.790   7.570  0.00  0.00    -0.670 N 
ATOM      4  H   LIG    1        4.589   0.178   7.534  0.00  0.00    +0.420 HD
ENDROOT
BRANCH   3   5
ATOM      5  C   LIG    1        5.450  -1.419   8.520  0.00  0.00    +0.160 A 
ATOM      6  C   LIG    1        5.643  -0.832   9.765  0.00  0.00    +0.010 A 
ATOM      7  C   LIG    1        6.443  -1.449  10.707  0.00  0.00    +0.060 A 
ATOM      8  C   LIG    1        7.063  -2.652  10.407  0.00  0.00    +0.080 A 
ATOM      9  N   LIG    1        7.910  -3.495  11.126  0.00  0.00    -0.640 N 
ATOM     10  H   LIG    1        8.221  -3.349  12.033  0.00  0.00    +0.440 HD
ATOM     11  C   LIG    1        8.223  -4.547  10.345  0.00  0.00    +0.690 A 
ATOM     12  N   LIG    1        7.614  -4.422   9.151  0.00  0.00    -0.640 N 
ATOM     13  H   LIG    1        7.678  -5.048   8.413  0.00  0.00    +0.440 HD
ATOM     14  O   LIG    1        8.946  -5.470  10.670  0.00  0.00    -0.550 OA
ATOM     15  C   LIG    1        6.875  -3.241   9.155  0.00  0.00    +0.110 A 
ATOM     16  C   LIG    1        6.069  -2.622   8.213  0.00  0.00    +0.040 A 
ENDBRANCH   3   5
BRANCH   2  17
ATOM     17  C   LIG    1        3.126  -0.859   5.611  0.00  0.00    +0.270 C 
BRANCH  17  18
ATOM     18  O   LIG    1        2.438  -1.865   4.821  0.00  0.00    -0.330 OA
BRANCH  18  19
ATOM     19  C   LIG    1        1.685  -1.426   3.793  0.00  0.00    +0.530 C 
ATOM     20  O   LIG    1        1.605  -0.235   3.564  0.00  0.00    -0.520 OA
BRANCH  19  21
ATOM     21  C   LIG    1        0.958  -2.390   2.949  0.00  0.00    -0.220 A 
ATOM     22  C   LIG    1        0.951  -3.748   3.278  0.00  0.00    +0.130 A 
ATOM     23  C   LIG    1        0.276  -4.645   2.480  0.00  0.00    -0.070 A 
ATOM     24  C   LIG    1       -0.405  -4.207   1.355  0.00  0.00    +0.100 A 
ATOM     25  C   LIG    1       -0.413  -2.868   1.020  0.00  0.00    -0.090 A 
ATOM     26  C   LIG    1        0.263  -1.948   1.811  0.00  0.00    +0.290 A 
BRANCH  26  27
ATOM     27  N   LIG    1        0.256  -0.601   1.476  0.00  0.00    -0.720 N 
ATOM     28  H   LIG    1        0.649   0.050   2.078  0.00  0.00    +0.420 HD
BRANCH  27  29
ATOM     29  C   LIG    1       -0.345  -0.163   0.214  0.00  0.00    +0.260 C 
BRANCH  29  30
ATOM     30  C   LIG    1       -0.221   1.357   0.090  0.00  0.00    +0.170 C 
BRANCH  30  31
ATOM     31  O   LIG    1        1.159   1.716  -0.004  0.00  0.00    -0.570 OA
ATOM     32  H   LIG    1        1.313   2.667  -0.085  0.00  0.00    +0.380 HD
ENDBRANCH  30  31
ENDBRANCH  29  30
ENDBRANCH  27  29
ENDBRANCH  26  27
ENDBRANCH  19  21
ENDBRANCH  18  19
ENDBRANCH  17  18
ENDBRANCH   2  17
TORSDOF 9
