REMARK  Name = ZINCvU0000000ArL.0
REMARK                            x       y       z     vdW  Elec       q    Type
REMARK                         _______ _______ _______ _____ _____    ______ ____
ROOT
ATOM      1  O   LIG    1       -3.612  -0.697   1.458  0.00  0.00    -0.350 OA
ENDROOT
BRANCH   1   2
ATOM      2  C   LIG    1       -2.546   0.091   1.245  0.00  0.00    +0.470 C 
ATOM      3  O   LIG    1       -1.633   0.099   2.036  0.00  0.00    -0.490 OA
BRANCH   2   5
ATOM      4  C   LIG    1       -3.670   1.937   0.030  0.00  0.00    +0.070 C 
ATOM      5  C   LIG    1       -2.489   0.965   0.019  0.00  0.00    -0.010 C 
ATOM      6  C   LIG    1       -2.559   0.091  -1.235  0.00  0.00    +0.070 C 
BRANCH   5   7
ATOM      7  C   LIG    1       -1.198   1.744   0.017  0.00  0.00    -0.080 A 
ATOM      8  C   LIG    1       -0.013   1.076   0.008  0.00  0.00    +0.050 A 
ATOM      9  C   LIG    1        1.193   1.799   0.000  0.00  0.00    -0.050 A 
ATOM     10  C   LIG    1        2.436   1.145  -0.015  0.00  0.00    +0.030 A 
ATOM     11  C   LIG    1        3.583   1.878  -0.022  0.00  0.00    +0.000 A 
ATOM     12  C   LIG    1        3.544   3.271  -0.015  0.00  0.00    +0.010 A 
ATOM     13  C   LIG    1        2.358   3.938  -0.000  0.00  0.00    +0.020 A 
ATOM     14  C   LIG    1        1.153   3.216   0.008  0.00  0.00    -0.050 A 
ATOM     15  C   LIG    1       -0.090   3.870   0.023  0.00  0.00    +0.020 A 
ATOM     16  C   LIG    1       -1.237   3.137   0.030  0.00  0.00    +0.020 A 
ENDBRANCH   5   7
ENDBRANCH   2   5
ENDBRANCH   1   2
BRANCH   1  17
ATOM     17  C   LIG    1       -3.599  -1.512   2.660  0.00  0.00    +0.330 C 
BRANCH  17  18
ATOM     18  C   LIG    1       -4.867  -2.324   2.729  0.00  0.00    +0.060 A 
ATOM     19  C   LIG    1       -5.814  -2.243   1.790  0.00  0.00    -0.030 A 
ATOM     20  S   LIG    1       -7.122  -3.339   2.230  0.00  0.00    +0.110 S 
ATOM     21  C   LIG    1       -6.239  -3.802   3.682  0.00  0.00    +0.120 A 
ATOM     22  N   LIG    1       -5.112  -3.150   3.721  0.00  0.00    -0.450 NA
BRANCH  21  23
ATOM     23  C   LIG    1       -6.703  -4.774   4.695  0.00  0.00    -0.020 A 
ATOM     24  C   LIG    1       -5.910  -5.057   5.808  0.00  0.00    +0.090 A 
ATOM     25  C   LIG    1       -6.344  -5.964   6.752  0.00  0.00    +0.050 A 
ATOM     26  C   LIG    1       -7.569  -6.598   6.599  0.00  0.00    +0.050 A 
ATOM     27  O   LIG    1       -8.212  -7.516   7.377  0.00  0.00    -0.300 OA
ATOM     28  C   LIG    1       -9.218  -8.101   6.530  0.00  0.00    +0.440 C 
ATOM     29  O   LIG    1       -9.508  -7.063   5.575  0.00  0.00    -0.300 OA
ATOM     30  C   LIG    1       -8.366  -6.318   5.490  0.00  0.00    +0.040 A 
ATOM     31  C   LIG    1       -7.939  -5.406   4.544  0.00  0.00    +0.060 A 
ENDBRANCH  21  23
ENDBRANCH  17  18
ENDBRANCH   1  17
TORSDOF 6
