REMARK  Name = ZINCrH000004rv3N.0
REMARK                            x       y       z     vdW  Elec       q    Type
REMARK                         _______ _______ _______ _____ _____    ______ ____
ROOT
ATOM      1  C   LIG    1       -3.144   3.216   4.855  0.00  0.00    +0.130 C 
ATOM      2  C   LIG    1       -2.363   2.728   3.663  0.00  0.00    +0.030 A 
ATOM      3  C   LIG    1       -1.604   3.611   2.924  0.00  0.00    -0.010 A 
ATOM      4  C   LIG    1       -0.882   3.163   1.832  0.00  0.00    +0.160 A 
ATOM      5  C   LIG    1       -0.924   1.829   1.468  0.00  0.00    -0.690 A 
ATOM      6  C   LIG    1       -1.679   0.935   2.198  0.00  0.00    +0.160 A 
ATOM      7  C   LIG    1       -2.406   1.379   3.303  0.00  0.00    -0.160 A 
ENDROOT
BRANCH   7   8
ATOM      8  C   LIG    1       -3.217   0.426   4.091  0.00  0.00    +0.560 C 
ATOM      9  N   LIG    1       -3.358  -0.846   3.671  0.00  0.00    -0.730 N 
ATOM     10  H   LIG    1       -2.927  -1.137   2.852  0.00  0.00    +0.400 HD
ATOM     11  O   LIG    1       -3.756   0.791   5.117  0.00  0.00    -0.520 OA
BRANCH   9  12
ATOM     12  C   LIG    1       -4.161  -1.790   4.451  0.00  0.00    +0.270 C 
BRANCH  12  13
ATOM     13  C   LIG    1       -4.158  -3.155   3.760  0.00  0.00    +0.060 C 
BRANCH  13  14
ATOM     14  C   LIG    1       -4.985  -4.127   4.562  0.00  0.00    -0.120 C 
ATOM     15  C   LIG    1       -6.226  -4.287   4.229  0.00  0.00    -0.050 C 
ATOM     16  C   LIG    1       -7.172  -5.213   4.936  0.00  0.00    +0.050 C 
ATOM     17  C   LIG    1       -6.393  -6.212   5.794  0.00  0.00    +0.010 C 
ATOM     18  C   LIG    1       -5.375  -5.436   6.638  0.00  0.00    +0.010 C 
ATOM     19  C   LIG    1       -4.320  -4.843   5.701  0.00  0.00    +0.060 C 
ENDBRANCH  13  14
ENDBRANCH  12  13
ENDBRANCH   9  12
ENDBRANCH   7   8
BRANCH   5  20
ATOM     20  S   LIG    1       -0.006   1.270   0.071  0.00  0.00    +2.690 S 
ATOM     21  O   LIG    1        1.046   2.207  -0.118  0.00  0.00    -0.950 OA
ATOM     22  O   LIG    1        0.217  -0.119   0.268  0.00  0.00    -0.950 OA
BRANCH  20  23
ATOM     23  N   LIG    1       -0.994   1.403  -1.250  0.00  0.00    -1.000 NA
ATOM     24  C   LIG    1       -1.856   0.284  -1.656  0.00  0.00    +0.290 C 
ATOM     25  C   LIG    1       -3.300   0.795  -1.768  0.00  0.00    +0.010 C 
ATOM     26  C   LIG    1       -3.339   1.994  -2.718  0.00  0.00    +0.020 C 
ATOM     27  C   LIG    1       -2.472   3.122  -2.154  0.00  0.00    +0.010 C 
ATOM     28  C   LIG    1       -1.022   2.639  -2.044  0.00  0.00    +0.290 C 
ENDBRANCH  20  23
ENDBRANCH   5  20
TORSDOF 6
