REMARK  Name = ZINCqH0000034fr9.0
REMARK                            x       y       z     vdW  Elec       q    Type
REMARK                         _______ _______ _______ _____ _____    ______ ____
ROOT
ATOM      1  C   LIG    1        0.757  -0.535   1.216  0.00  0.00    +0.020 C 
ATOM      2  C   LIG    1        0.057  -0.028  -0.047  0.00  0.00    +0.030 C 
ATOM      3  C   LIG    1        0.017   1.502  -0.030  0.00  0.00    +0.010 C 
ATOM      4  C   LIG    1        1.449   2.047  -0.019  0.00  0.00    +0.270 C 
ATOM      5  N   LIG    1        2.173   1.450   1.111  0.00  0.00    -0.600 N 
ATOM      6  C   LIG    1        2.803   2.229   2.011  0.00  0.00    +0.560 C 
ATOM      7  O   LIG    1        3.309   1.732   2.999  0.00  0.00    -0.520 OA
ATOM      8  C   LIG    1        2.198  -0.014   1.241  0.00  0.00    +0.290 C 
ENDROOT
BRANCH   6   9
ATOM      9  C   LIG    1        2.880   3.688   1.799  0.00  0.00    -0.090 A 
ATOM     10  C   LIG    1        3.388   4.198   0.603  0.00  0.00    +0.070 A 
ATOM     11  C   LIG    1        3.452   5.562   0.403  0.00  0.00    +0.050 A 
ATOM     12  C   LIG    1        3.028   6.435   1.389  0.00  0.00    +0.060 A 
ATOM     13  C   LIG    1        2.527   5.944   2.585  0.00  0.00    +0.070 A 
ATOM     14  N   LIG    1        2.033   6.554   3.738  0.00  0.00    -0.650 N 
ATOM     15  H   LIG    1        1.958   7.509   3.895  0.00  0.00    +0.450 HD
ATOM     16  C   LIG    1        1.680   5.575   4.594  0.00  0.00    +0.640 A 
ATOM     17  O   LIG    1        1.209   5.747   5.702  0.00  0.00    -0.480 OA
ATOM     18  O   LIG    1        1.928   4.381   4.033  0.00  0.00    -0.230 OA
ATOM     19  C   LIG    1        2.449   4.569   2.799  0.00  0.00    +0.080 A 
ENDBRANCH   6   9
BRANCH   1  23
ATOM     20  C   LIG    1        0.787  -4.807   1.210  0.00  0.00    -0.080 A 
ATOM     21  C   LIG    1        0.164  -4.121   2.236  0.00  0.00    +0.000 A 
ATOM     22  C   LIG    1        0.154  -2.739   2.238  0.00  0.00    +0.010 A 
ATOM     23  C   LIG    1        0.768  -2.042   1.214  0.00  0.00    -0.080 A 
ATOM     24  C   LIG    1        1.387  -2.728   0.185  0.00  0.00    +0.010 A 
ATOM     25  C   LIG    1        1.400  -4.110   0.186  0.00  0.00    +0.000 A 
BRANCH  20  27
ATOM     26  C   LIG    1       -0.434  -6.831   0.463  0.00  0.00    +0.030 C 
ATOM     27  C   LIG    1        0.797  -6.314   1.208  0.00  0.00    +0.050 C 
ENDBRANCH  20  27
ENDBRANCH   1  23
TORSDOF 3
