REMARK  Name = ZINCnE000001TyCN.0
REMARK                            x       y       z     vdW  Elec       q    Type
REMARK                         _______ _______ _______ _____ _____    ______ ____
ROOT
ATOM      1  C   LIG    1       -3.043   1.522  -0.015  0.00  0.00    +0.210 C 
ATOM      2  C   LIG    1       -2.529   1.095  -1.394  0.00  0.00    +0.020 C 
ATOM      3  C   LIG    1       -1.087   1.579  -1.569  0.00  0.00    +0.000 C 
ATOM      4  C   LIG    1       -0.199   0.936  -0.502  0.00  0.00    +0.010 C 
ATOM      5  C   LIG    1       -0.685   1.361   0.887  0.00  0.00    +0.260 C 
ATOM      6  N   LIG    1       -2.112   1.029   1.010  0.00  0.00    -0.600 N 
ATOM      7  C   LIG    1       -2.558   0.287   2.042  0.00  0.00    +0.580 C 
ATOM      8  O   LIG    1       -3.719  -0.078   2.073  0.00  0.00    -0.470 OA
ENDROOT
BRANCH   7   9
ATOM      9  C   LIG    1       -1.643  -0.083   3.131  0.00  0.00    -0.010 A 
ATOM     10  C   LIG    1       -1.938  -0.939   4.144  0.00  0.00    +0.060 A 
ATOM     11  C   LIG    1       -0.741  -1.004   4.981  0.00  0.00    -0.110 A 
ATOM     12  C   LIG    1       -0.408  -1.692   6.150  0.00  0.00    +0.040 A 
ATOM     13  C   LIG    1        0.845  -1.530   6.702  0.00  0.00    +0.080 A 
ATOM     14  C   LIG    1        1.771  -0.686   6.100  0.00  0.00    +0.030 A 
ATOM     15  C   LIG    1        1.454  -0.001   4.947  0.00  0.00    +0.060 A 
ATOM     16  F   LIG    1        1.173  -2.192   7.832  0.00  0.00    -0.140 F 
ATOM     17  C   LIG    1        0.198  -0.150   4.372  0.00  0.00    +0.050 A 
ATOM     18  O   LIG    1       -0.380   0.372   3.272  0.00  0.00    -0.170 OA
ENDBRANCH   7   9
BRANCH   1  19
ATOM     19  C   LIG    1       -4.432   0.927   0.221  0.00  0.00    +0.070 C 
BRANCH  19  20
ATOM     20  C   LIG    1       -5.412   1.494  -0.808  0.00  0.00    -0.090 C 
BRANCH  20  22
ATOM     21  O   LIG    1       -6.908  -0.031   0.205  0.00  0.00    -0.690 OA
ATOM     22  C   LIG    1       -6.751   0.823  -0.651  0.00  0.00    +0.490 C 
ATOM     23  O   LIG    1       -7.678   1.133  -1.380  0.00  0.00    -0.710 OA
ENDBRANCH  20  22
ENDBRANCH  19  20
ENDBRANCH   1  19
TORSDOF 4
