REMARK  Name = ZINCvU00000004B0.0
REMARK                            x       y       z     vdW  Elec       q    Type
REMARK                         _______ _______ _______ _____ _____    ______ ____
ROOT
ATOM      1  C   LIG    1        2.405   0.110  -0.022  0.00  0.00    +0.170 A 
ATOM      2  N   LIG    1        2.338   1.435  -0.016  0.00  0.00    -0.490 NA
ATOM      3  C   LIG    1        1.192   2.083  -0.001  0.00  0.00    +0.220 A 
ATOM      4  C   LIG    1       -0.024   1.399   0.009  0.00  0.00    -0.190 A 
ATOM      5  C   LIG    1       -0.016  -0.017   0.004  0.00  0.00    +0.140 A 
ATOM      6  C   LIG    1        1.194   3.590   0.004  0.00  0.00    +0.160 C 
ATOM      7  C   LIG    1        1.235  -0.670  -0.012  0.00  0.00    -0.050 A 
ENDROOT
BRANCH   5   8
ATOM      8  C   LIG    1       -1.271  -0.782   0.014  0.00  0.00    -0.230 A 
ATOM      9  C   LIG    1       -1.715  -1.587  -0.995  0.00  0.00    +0.070 A 
ATOM     10  C   LIG    1       -2.923  -2.189  -0.719  0.00  0.00    +0.010 A 
ATOM     11  C   LIG    1       -3.452  -1.879   0.468  0.00  0.00    -0.070 A 
ATOM     12  S   LIG    1       -2.443  -0.801   1.324  0.00  0.00    +0.240 S 
ENDBRANCH   5   8
BRANCH   4  13
ATOM     13  C   LIG    1       -1.296   2.138   0.020  0.00  0.00    +0.580 C 
ATOM     14  N   LIG    1       -1.886   2.481  -1.143  0.00  0.00    -0.660 N 
ATOM     15  H   LIG    1       -1.434   2.312  -1.984  0.00  0.00    +0.410 HD
ATOM     16  O   LIG    1       -1.816   2.440   1.077  0.00  0.00    -0.490 OA
BRANCH  14  17
ATOM     17  C   LIG    1       -3.149   3.081  -1.136  0.00  0.00    +0.140 A 
ATOM     18  C   LIG    1       -4.012   2.873  -0.068  0.00  0.00    +0.020 A 
ATOM     19  C   LIG    1       -5.259   3.467  -0.064  0.00  0.00    +0.030 A 
ATOM     20  C   LIG    1       -5.649   4.267  -1.122  0.00  0.00    -0.010 A 
ATOM     21  C   LIG    1       -4.792   4.476  -2.188  0.00  0.00    +0.030 A 
ATOM     22  C   LIG    1       -3.541   3.890  -2.194  0.00  0.00    -0.110 A 
ATOM     23  C   LIG    1       -2.606   4.124  -3.352  0.00  0.00    +0.080 C 
ENDBRANCH  14  17
ENDBRANCH   4  13
BRANCH   7  24
ATOM     24  C   LIG    1        1.312  -2.100  -0.018  0.00  0.00    +0.250 C 
ATOM     25  N   LIG    1        1.373  -3.235  -0.022  0.00  0.00    -0.370 NA
ENDBRANCH   7  24
BRANCH   1  26
ATOM     26  S   LIG    1        3.979  -0.681  -0.041  0.00  0.00    +0.060 S 
BRANCH  26  27
ATOM     27  C   LIG    1        5.060   0.770  -0.047  0.00  0.00    +0.150 C 
BRANCH  27  28
ATOM     28  C   LIG    1        6.500   0.324  -0.065  0.00  0.00    +0.480 C 
ATOM     29  O   LIG    1        6.767  -0.854  -0.072  0.00  0.00    -0.490 OA
BRANCH  28  30
ATOM     30  O   LIG    1        7.485   1.236  -0.072  0.00  0.00    -0.350 OA
BRANCH  30  32
ATOM     31  C   LIG    1        9.825   1.911  -0.094  0.00  0.00    +0.070 C 
ATOM     32  C   LIG    1        8.847   0.734  -0.088  0.00  0.00    +0.200 C 
ENDBRANCH  30  32
ENDBRANCH  28  30
ENDBRANCH  27  28
ENDBRANCH  26  27
ENDBRANCH   1  26
TORSDOF 9
