REMARK  Name = ZINCvU00000007Pr.0
REMARK                            x       y       z     vdW  Elec       q    Type
REMARK                         _______ _______ _______ _____ _____    ______ ____
ROOT
ATOM      1  O   LIG    1       -1.064  -0.901   2.209  0.00  0.00    -0.480 OA
ATOM      2  C   LIG    1       -1.654  -1.187   1.184  0.00  0.00    +0.570 C 
ATOM      3  C   LIG    1       -2.964  -1.844   1.264  0.00  0.00    -0.160 A 
ATOM      4  C   LIG    1       -3.551  -2.148   2.493  0.00  0.00    +0.110 A 
ATOM      5  C   LIG    1       -4.783  -2.765   2.526  0.00  0.00    -0.010 A 
ATOM      6  C   LIG    1       -5.447  -3.087   1.351  0.00  0.00    +0.060 A 
ATOM      7  C   LIG    1       -4.884  -2.794   0.125  0.00  0.00    -0.010 A 
ATOM      8  C   LIG    1       -3.642  -2.172   0.071  0.00  0.00    +0.050 A 
ATOM      9  C   LIG    1       -2.996  -1.837  -1.214  0.00  0.00    -0.300 C 
ATOM     10  C   LIG    1       -1.686  -1.176  -1.175  0.00  0.00    +0.580 C 
ATOM     11  O   LIG    1       -1.129  -0.881  -2.217  0.00  0.00    -0.520 OA
ATOM     12  C   LIG    1       -3.606  -2.132  -2.414  0.00  0.00    +0.430 C 
ATOM     13  N   LIG    1       -1.095  -0.896  -0.003  0.00  0.00    -0.530 N 
ENDROOT
BRANCH  13  14
ATOM     14  C   LIG    1        0.158  -0.269  -0.017  0.00  0.00    +0.170 A 
ATOM     15  C   LIG    1        1.318  -1.032  -0.033  0.00  0.00    +0.040 A 
ATOM     16  C   LIG    1        2.551  -0.411  -0.047  0.00  0.00    +0.060 A 
ATOM     17  C   LIG    1        2.632   0.969  -0.044  0.00  0.00    +0.030 A 
ATOM     18  C   LIG    1        1.478   1.732  -0.028  0.00  0.00    +0.080 A 
ATOM     19  C   LIG    1        0.242   1.117  -0.014  0.00  0.00    -0.160 A 
BRANCH  19  20
ATOM     20  C   LIG    1       -1.014   1.949  -0.003  0.00  0.00    +0.500 C 
ATOM     21  F   LIG    1       -1.758   1.654   1.144  0.00  0.00    -0.170 F 
ATOM     22  F   LIG    1       -1.776   1.659  -1.140  0.00  0.00    -0.170 F 
ATOM     23  F   LIG    1       -0.675   3.306  -0.003  0.00  0.00    -0.170 F 
ENDBRANCH  19  20
ENDBRANCH  13  14
BRANCH  12  24
ATOM     24  N   LIG    1       -3.070  -1.679  -3.578  0.00  0.00    -0.620 N 
ATOM     25  H   LIG    1       -2.238  -1.181  -3.568  0.00  0.00    +0.430 HD
BRANCH  24  26
ATOM     26  C   LIG    1       -3.719  -1.931  -4.790  0.00  0.00    +0.170 A 
ATOM     27  C   LIG    1       -4.908  -2.648  -4.807  0.00  0.00    -0.020 A 
ATOM     28  C   LIG    1       -5.549  -2.892  -6.006  0.00  0.00    +0.090 A 
ATOM     29  C   LIG    1       -5.003  -2.430  -7.190  0.00  0.00    -0.130 A 
ATOM     30  C   LIG    1       -3.817  -1.719  -7.177  0.00  0.00    +0.090 A 
ATOM     31  I   LIG    1       -5.975  -2.809  -9.007  0.00  0.00    -0.030 I 
ATOM     32  C   LIG    1       -3.173  -1.468  -5.981  0.00  0.00    -0.010 A 
ENDBRANCH  24  26
ENDBRANCH  12  24
TORSDOF 4
