REMARK  Name = ZINCtV00001bB3fT.0
REMARK                            x       y       z     vdW  Elec       q    Type
REMARK                         _______ _______ _______ _____ _____    ______ ____
ROOT
ATOM      1  C   LIG    1       -3.052   4.158   1.255  0.00  0.00    +0.280 A 
ATOM      2  N   LIG    1       -4.173   4.793   1.384  0.00  0.00    -0.450 NA
ATOM      3  C   LIG    1       -4.575   5.012   2.640  0.00  0.00    +0.090 A 
ATOM      4  C   LIG    1       -3.729   4.538   3.599  0.00  0.00    -0.080 A 
ATOM      5  S   LIG    1       -2.392   3.787   2.843  0.00  0.00    +0.170 S 
ENDROOT
BRANCH   1   8
ATOM      6  C   LIG    1       -2.411   3.798  -2.429  0.00  0.00    +0.110 C 
ATOM      7  C   LIG    1       -3.056   4.160  -1.116  0.00  0.00    +0.510 C 
ATOM      8  N   LIG    1       -2.458   3.824   0.044  0.00  0.00    -0.470 N 
ATOM      9  O   LIG    1       -4.113   4.754  -1.103  0.00  0.00    -0.470 OA
BRANCH   8  10
ATOM     10  C   LIG    1       -1.236   3.138   0.029  0.00  0.00    +0.090 A 
ATOM     11  C   LIG    1       -1.218   1.749   0.017  0.00  0.00    -0.060 A 
ATOM     12  C   LIG    1       -0.013   1.076   0.008  0.00  0.00    +0.010 A 
ATOM     13  C   LIG    1        1.176   1.783   0.000  0.00  0.00    +0.040 A 
ATOM     14  C   LIG    1        1.161   3.166   0.008  0.00  0.00    +0.010 A 
ATOM     15  C   LIG    1       -2.513   0.978   0.019  0.00  0.00    +0.110 C 
ATOM     16  C   LIG    1       -0.041   3.845   0.022  0.00  0.00    -0.060 A 
ATOM     17  C   LIG    1       -0.056   5.352   0.029  0.00  0.00    +0.100 C 
ENDBRANCH   8  10
ENDBRANCH   1   8
BRANCH   3  18
ATOM     18  C   LIG    1       -5.822   5.712   2.960  0.00  0.00    +0.170 C 
ATOM     19  C   LIG    1       -6.623   6.161   1.962  0.00  0.00    -0.060 C 
BRANCH  19  20
ATOM     20  C   LIG    1       -7.826   6.837   2.272  0.00  0.00    +0.420 C 
ATOM     21  O   LIG    1       -8.143   7.015   3.434  0.00  0.00    -0.440 OA
BRANCH  20  22
ATOM     22  C   LIG    1       -8.699   7.327   1.183  0.00  0.00    -0.140 A 
ATOM     23  C   LIG    1       -8.339   7.125  -0.150  0.00  0.00    +0.110 A 
ATOM     24  C   LIG    1       -9.159   7.584  -1.161  0.00  0.00    -0.050 A 
ATOM     25  C   LIG    1      -10.337   8.245  -0.855  0.00  0.00    +0.080 A 
ATOM     26  C   LIG    1      -10.700   8.448   0.464  0.00  0.00    +0.040 A 
ATOM     27 CL   LIG    1       -8.712   7.334  -2.819  0.00  0.00    -0.050 Cl
ATOM     28  C   LIG    1       -9.892   7.989   1.485  0.00  0.00    +0.010 A 
ATOM     29 CL   LIG    1      -10.353   8.240   3.140  0.00  0.00    -0.030 Cl
ENDBRANCH  20  22
ENDBRANCH  19  20
ENDBRANCH   3  18
TORSDOF 5
