REMARK  Name = ZINCpk00000y6ycY.0
REMARK                            x       y       z     vdW  Elec       q    Type
REMARK                         _______ _______ _______ _____ _____    ______ ____
ROOT
ATOM      1  C   LIG    1        3.593  -1.579   3.161  0.00  0.00    +0.280 C 
ATOM      2  C   LIG    1        3.658  -3.107   3.279  0.00  0.00    +0.310 C 
ATOM      3  N   LIG    1        4.876  -3.462   4.024  0.00  0.00    -1.000 NA
ATOM      4  C   LIG    1        5.126  -2.785   5.306  0.00  0.00    +0.280 C 
ATOM      5  C   LIG    1        4.989  -1.274   5.089  0.00  0.00    +0.230 C 
ATOM      6  O   LIG    1        3.735  -1.000   4.460  0.00  0.00    -0.350 OA
ENDROOT
BRANCH   1  10
ATOM      7  C   LIG    1        0.731  -0.503   1.223  0.00  0.00    +0.180 A 
ATOM      8  N   LIG    1        0.199  -0.774   2.381  0.00  0.00    -0.290 NA
ATOM      9  N   LIG    1        1.117  -1.177   3.188  0.00  0.00    -0.250 NA
ATOM     10  C   LIG    1        2.265  -1.177   2.572  0.00  0.00    +0.150 A 
ATOM     11  O   LIG    1        2.047  -0.756   1.315  0.00  0.00    -0.220 OA
BRANCH   7  13
ATOM     12  C   LIG    1       -0.019   1.526   0.010  0.00  0.00    +0.060 C 
ATOM     13  C   LIG    1        0.002  -0.004   0.002  0.00  0.00    +0.190 C 
ENDBRANCH   7  13
ENDBRANCH   1  10
BRANCH   3  14
ATOM     14  S   LIG    1        5.935  -4.592   3.436  0.00  0.00    +2.600 S 
ATOM     15  O   LIG    1        5.135  -5.424   2.608  0.00  0.00    -0.940 OA
ATOM     16  O   LIG    1        6.574  -5.109   4.595  0.00  0.00    -0.930 OA
BRANCH  14  17
ATOM     17  C   LIG    1        7.107  -3.636   2.436  0.00  0.00    -0.290 C 
BRANCH  17  18
ATOM     18  C   LIG    1        8.134  -4.565   1.840  0.00  0.00    -0.100 A 
ATOM     19  C   LIG    1        7.906  -5.143   0.604  0.00  0.00    +0.070 A 
ATOM     20  C   LIG    1        8.843  -5.997   0.049  0.00  0.00    +0.030 A 
ATOM     21  C   LIG    1       10.011  -6.278   0.727  0.00  0.00    +0.080 A 
ATOM     22  C   LIG    1       10.247  -5.698   1.975  0.00  0.00    -0.020 A 
ATOM     23  C   LIG    1        9.300  -4.832   2.526  0.00  0.00    +0.080 A 
BRANCH  22  24
ATOM     24  C   LIG    1       11.458  -5.984   2.684  0.00  0.00    +0.250 C 
ATOM     25  N   LIG    1       12.419  -6.212   3.246  0.00  0.00    -0.400 NA
ENDBRANCH  22  24
ENDBRANCH  17  18
ENDBRANCH  14  17
ENDBRANCH   3  14
TORSDOF 6
