REMARK  Name = ZINCvU0000000Jyo.0
REMARK                            x       y       z     vdW  Elec       q    Type
REMARK                         _______ _______ _______ _____ _____    ______ ____
ROOT
ATOM      1  C   LIG    1        2.406   0.965  -4.273  0.00  0.00    +0.230 C 
ENDROOT
BRANCH   1   5
ATOM      2  C   LIG    1       -0.295   1.345  -7.564  0.00  0.00    +0.220 A 
ATOM      3  C   LIG    1       -0.282   2.304  -6.559  0.00  0.00    -0.080 A 
ATOM      4  C   LIG    1        0.592   2.179  -5.497  0.00  0.00    +0.060 A 
ATOM      5  C   LIG    1        1.454   1.099  -5.434  0.00  0.00    -0.140 A 
ATOM      6  C   LIG    1        1.447   0.145  -6.434  0.00  0.00    +0.090 A 
ATOM      7  C   LIG    1        0.572   0.262  -7.496  0.00  0.00    -0.080 A 
BRANCH   2   9
ATOM      8  C   LIG    1       -2.176   2.542  -8.648  0.00  0.00    +0.280 C 
ATOM      9  N   LIG    1       -1.178   1.469  -8.639  0.00  0.00    -0.640 N 
ATOM     10  C   LIG    1       -1.105   0.527  -9.759  0.00  0.00    +0.280 C 
ENDBRANCH   2   9
ENDBRANCH   1   5
BRANCH   1  11
ATOM     11  N   LIG    1        3.705   0.482  -4.760  0.00  0.00    -0.520 NA
ATOM     12  C   LIG    1        4.635   0.257  -3.644  0.00  0.00    +0.150 C 
ATOM     13  C   LIG    1        5.953  -0.300  -4.189  0.00  0.00    +0.230 C 
ATOM     14  O   LIG    1        6.482   0.606  -5.160  0.00  0.00    -0.390 OA
ATOM     15  C   LIG    1        5.603   0.848  -6.261  0.00  0.00    +0.220 C 
ATOM     16  C   LIG    1        4.282   1.417  -5.737  0.00  0.00    +0.150 C 
ENDBRANCH   1  11
BRANCH   1  17
ATOM     17  C   LIG    1        1.847  -0.017  -3.276  0.00  0.00    -0.080 A 
ATOM     18  C   LIG    1        1.204   0.443  -2.141  0.00  0.00    +0.010 A 
ATOM     19  C   LIG    1        0.692  -0.455  -1.225  0.00  0.00    -0.090 A 
ATOM     20  C   LIG    1        0.827  -1.818  -1.441  0.00  0.00    +0.110 A 
ATOM     21  C   LIG    1        1.468  -2.277  -2.583  0.00  0.00    -0.090 A 
ATOM     22  C   LIG    1        1.979  -1.375  -3.496  0.00  0.00    +0.060 A 
BRANCH  21  23
ATOM     23  C   LIG    1        1.611  -3.758  -2.824  0.00  0.00    -0.020 C 
ATOM     24  C   LIG    1        0.224  -4.398  -2.902  0.00  0.00    +0.030 C 
ATOM     25  C   LIG    1        2.399  -4.388  -1.674  0.00  0.00    +0.030 C 
ATOM     26  C   LIG    1        2.355  -3.990  -4.140  0.00  0.00    +0.040 C 
ENDBRANCH  21  23
BRANCH  19  27
ATOM     27  C   LIG    1       -0.008   0.047   0.012  0.00  0.00    -0.020 C 
ATOM     28  C   LIG    1       -1.449  -0.469   0.027  0.00  0.00    +0.030 C 
ATOM     29  C   LIG    1        0.727  -0.458   1.255  0.00  0.00    +0.040 C 
ATOM     30  C   LIG    1       -0.015   1.577   0.009  0.00  0.00    +0.030 C 
ENDBRANCH  19  27
BRANCH  20  31
ATOM     31  O   LIG    1        0.329  -2.703  -0.538  0.00  0.00    -0.490 OA
ATOM     32  H   LIG    1       -0.586  -2.967  -0.709  0.00  0.00    +0.380 HD
ENDBRANCH  20  31
ENDBRANCH   1  17
TORSDOF 7
