REMARK  Name = ZINCpk00000KaWDx.0
REMARK                            x       y       z     vdW  Elec       q    Type
REMARK                         _______ _______ _______ _____ _____    ______ ____
ROOT
ATOM      1  O   LIG    1       -4.296   3.604   4.635  0.00  0.00    -0.520 OA
ATOM      2  C   LIG    1       -3.219   3.977   4.214  0.00  0.00    +0.580 C 
ATOM      3  N   LIG    1       -2.443   3.132   3.507  0.00  0.00    -0.590 N 
ATOM      4  C   LIG    1       -1.128   3.557   3.003  0.00  0.00    +0.310 C 
ATOM      5  C   LIG    1       -1.053   3.233   1.507  0.00  0.00    +0.170 C 
ATOM      6  N   LIG    1       -1.367   1.813   1.301  0.00  0.00    -0.530 NA
ATOM      7  C   LIG    1       -2.743   1.506   1.716  0.00  0.00    +0.150 C 
ATOM      8  C   LIG    1       -2.887   1.759   3.220  0.00  0.00    +0.300 C 
ENDROOT
BRANCH   2   9
ATOM      9  C   LIG    1       -2.759   5.360   4.478  0.00  0.00    +0.030 A 
ATOM     10  C   LIG    1       -3.669   6.333   4.890  0.00  0.00    +0.290 A 
ATOM     11  N   LIG    1       -3.254   7.565   5.124  0.00  0.00    -0.440 NA
ATOM     12  C   LIG    1       -1.979   7.875   4.969  0.00  0.00    +0.260 A 
ATOM     13  C   LIG    1       -1.071   6.909   4.558  0.00  0.00    +0.230 A 
ATOM     14  N   LIG    1       -1.476   5.676   4.327  0.00  0.00    -0.410 NA
ENDBRANCH   2   9
BRANCH   6  15
ATOM     15  C   LIG    1       -1.139   1.421  -0.097  0.00  0.00    +0.250 C 
BRANCH  15  16
ATOM     16  C   LIG    1       -1.232  -0.079  -0.219  0.00  0.00    -0.060 A 
ATOM     17  C   LIG    1       -0.107  -0.861  -0.023  0.00  0.00    +0.130 A 
ATOM     18  C   LIG    1       -0.195  -2.238  -0.132  0.00  0.00    +0.050 A 
ATOM     19  C   LIG    1       -1.403  -2.830  -0.446  0.00  0.00    +0.080 A 
ATOM     20  C   LIG    1       -2.526  -2.048  -0.646  0.00  0.00    +0.090 A 
ATOM     21  F   LIG    1        1.075  -0.281   0.278  0.00  0.00    -0.110 F 
ATOM     22  C   LIG    1       -2.440  -0.673  -0.532  0.00  0.00    -0.010 A 
BRANCH  22  23
ATOM     23  N   LIG    1       -3.642   0.163  -0.747  0.00  0.00    +0.020 N 
ATOM     24  O   LIG    1       -3.547   1.228  -1.331  0.00  0.00    -0.150 OA
ATOM     25  O   LIG    1       -4.727  -0.214  -0.341  0.00  0.00    -0.130 OA
ENDBRANCH  22  23
ENDBRANCH  15  16
ENDBRANCH   6  15
TORSDOF 4
