REMARK  Name = ZINCpk00000ebdt0.0
REMARK                            x       y       z     vdW  Elec       q    Type
REMARK                         _______ _______ _______ _____ _____    ______ ____
ROOT
ATOM      1  C   LIG    1        0.002  -0.004   0.002  0.00  0.00    +0.600 C 
ATOM      2  N   LIG    1       -1.155  -0.689  -0.092  0.00  0.00    -0.610 N 
ATOM      3  C   LIG    1       -2.439   0.020  -0.181  0.00  0.00    +0.290 C 
ATOM      4  C   LIG    1       -3.173  -0.462  -1.444  0.00  0.00    +0.270 C 
ATOM      5  N   LIG    1       -3.173  -1.932  -1.454  0.00  0.00    -0.610 N 
ATOM      6  C   LIG    1       -1.889  -2.641  -1.359  0.00  0.00    +0.280 C 
ATOM      7  C   LIG    1       -4.330  -2.617  -1.547  0.00  0.00    +0.520 C 
ATOM      8  O   LIG    1       -4.317  -3.830  -1.554  0.00  0.00    -0.530 OA
ATOM      9  C   LIG    1       -1.155  -2.159  -0.102  0.00  0.00    +0.280 C 
ATOM     10  O   LIG    1       -0.015   1.209   0.089  0.00  0.00    -0.530 OA
ENDROOT
BRANCH   1  13
ATOM     11  C   LIG    1        2.502   0.663  -1.771  0.00  0.00    +0.180 C 
ATOM     12  C   LIG    1        2.385  -0.451  -0.762  0.00  0.00    +0.070 A 
ATOM     13  C   LIG    1        1.288  -0.725  -0.000  0.00  0.00    -0.240 A 
ATOM     14  C   LIG    1        1.657  -1.885   0.824  0.00  0.00    -0.030 A 
ATOM     15  C   LIG    1        2.916  -2.197   0.477  0.00  0.00    +0.180 A 
ATOM     16  O   LIG    1        3.339  -1.337  -0.463  0.00  0.00    -0.170 OA
ENDBRANCH   1  13
BRANCH   7  17
ATOM     17  C   LIG    1       -5.638  -1.877  -1.644  0.00  0.00    +0.050 C 
BRANCH  17  18
ATOM     18  C   LIG    1       -6.788  -2.882  -1.739  0.00  0.00    +0.290 C 
BRANCH  18  19
ATOM     19  N   LIG    1       -8.060  -2.162  -1.833  0.00  0.00    -0.730 N 
ATOM     20  H   LIG    1       -8.070  -1.192  -1.827  0.00  0.00    +0.400 HD
ATOM     21  C   LIG    1       -9.217  -2.847  -1.926  0.00  0.00    +0.520 C 
ATOM     22  O   LIG    1       -9.204  -4.060  -1.932  0.00  0.00    -0.530 OA
BRANCH  21  23
ATOM     23  C   LIG    1      -10.526  -2.107  -2.023  0.00  0.00    -0.090 C 
ATOM     24  C   LIG    1      -10.520  -1.220  -3.270  0.00  0.00    +0.050 C 
ATOM     25  C   LIG    1      -10.712  -1.236  -0.779  0.00  0.00    +0.050 C 
ATOM     26  C   LIG    1      -11.675  -3.112  -2.117  0.00  0.00    +0.050 C 
ENDBRANCH  21  23
ENDBRANCH  18  19
ENDBRANCH  17  18
ENDBRANCH   7  17
TORSDOF 5
