REMARK  Name = ZINCqH0000038PwQ.0
REMARK                            x       y       z     vdW  Elec       q    Type
REMARK                         _______ _______ _______ _____ _____    ______ ____
ROOT
ATOM      1  C   LIG    1       -0.515   4.644   0.271  0.00  0.00    +0.600 C 
ATOM      2  N   LIG    1       -0.023   4.959   1.486  0.00  0.00    -0.650 N 
ATOM      3  H   LIG    1       -0.278   4.437   2.262  0.00  0.00    +0.420 HD
ATOM      4  O   LIG    1       -0.130   5.243  -0.715  0.00  0.00    -0.440 OA
ENDROOT
BRANCH   1   7
ATOM      5  C   LIG    1       -3.688   4.961   0.119  0.00  0.00    +0.220 C 
ATOM      6  C   LIG    1       -2.885   3.687   0.070  0.00  0.00    +0.030 A 
ATOM      7  C   LIG    1       -1.518   3.575   0.138  0.00  0.00    -0.240 A 
ATOM      8  C   LIG    1       -1.303   2.116   0.040  0.00  0.00    +0.090 A 
ATOM      9  N   LIG    1       -2.503   1.600  -0.056  0.00  0.00    -0.320 NA
ATOM     10  O   LIG    1       -3.363   2.446  -0.041  0.00  0.00    +0.110 OA
BRANCH   8  11
ATOM     11  C   LIG    1       -0.009   1.392   0.054  0.00  0.00    -0.020 A 
ATOM     12  C   LIG    1        0.964   1.679  -0.902  0.00  0.00    -0.010 A 
ATOM     13  C   LIG    1        2.166   0.998  -0.887  0.00  0.00    +0.040 A 
ATOM     14  C   LIG    1        2.404   0.032   0.075  0.00  0.00    +0.070 A 
ATOM     15  C   LIG    1        1.443  -0.257   1.026  0.00  0.00    +0.040 A 
ATOM     16 CL   LIG    1        0.667   2.891  -2.110  0.00  0.00    -0.020 Cl
ATOM     17  C   LIG    1        0.237   0.417   1.021  0.00  0.00    -0.000 A 
ATOM     18 CL   LIG    1       -0.969   0.052   2.216  0.00  0.00    -0.040 Cl
ENDBRANCH   8  11
ENDBRANCH   1   7
BRANCH   2  19
ATOM     19  C   LIG    1        0.851   6.034   1.626  0.00  0.00    +0.360 A 
ATOM     20  C   LIG    1        1.269   6.422   2.898  0.00  0.00    -0.040 A 
ATOM     21  C   LIG    1        2.141   7.487   3.029  0.00  0.00    +0.100 A 
ATOM     22  C   LIG    1        2.564   8.143   1.882  0.00  0.00    +0.010 A 
ATOM     23  C   LIG    1        2.104   7.709   0.642  0.00  0.00    +0.110 A 
ATOM     24  N   LIG    1        1.271   6.679   0.552  0.00  0.00    -0.450 NA
BRANCH  23  25
ATOM     25  C   LIG    1        2.549   8.402  -0.590  0.00  0.00    +0.580 C 
ATOM     26  O   LIG    1        3.312   9.345  -0.514  0.00  0.00    -0.540 OA
ATOM     27  N   LIG    1        2.108   7.986  -1.793  0.00  0.00    -0.830 N 
ATOM     28  H   LIG    1        2.399   8.440  -2.600  0.00  0.00    +0.400 HD
ATOM     29  H   LIG    1        1.499   7.233  -1.853  0.00  0.00    +0.420 HD
ENDBRANCH  23  25
ENDBRANCH   2  19
TORSDOF 4
