REMARK  Name = ZINCrH00000tj1mT.0
REMARK                            x       y       z     vdW  Elec       q    Type
REMARK                         _______ _______ _______ _____ _____    ______ ____
ROOT
ATOM      1  C   LIG    1       -3.865   4.503   1.029  0.00  0.00    +0.560 C 
ATOM      2  O   LIG    1       -3.475   5.177   1.961  0.00  0.00    -0.480 OA
ENDROOT
BRANCH   1   3
ATOM      3  C   LIG    1       -2.985   3.461   0.449  0.00  0.00    -0.020 A 
ATOM      4  N   LIG    1       -3.268   2.662  -0.552  0.00  0.00    -0.290 NA
ATOM      5  O   LIG    1       -2.351   1.914  -0.801  0.00  0.00    +0.160 OA
ATOM      6  C   LIG    1       -1.305   2.118   0.020  0.00  0.00    +0.010 A 
ATOM      7  C   LIG    1       -1.672   3.124   0.869  0.00  0.00    +0.040 A 
BRANCH   6   8
ATOM      8  C   LIG    1       -0.017   1.393   0.010  0.00  0.00    -0.030 A 
ATOM      9  C   LIG    1        1.186   2.100   0.002  0.00  0.00    +0.070 A 
ATOM     10  C   LIG    1        2.385   1.418  -0.013  0.00  0.00    +0.030 A 
ATOM     11  C   LIG    1        2.397   0.035  -0.020  0.00  0.00    +0.050 A 
ATOM     12  C   LIG    1        1.209  -0.674  -0.013  0.00  0.00    +0.030 A 
ATOM     13  C   LIG    1        0.002  -0.004   0.002  0.00  0.00    -0.010 A 
ATOM     14 CL   LIG    1       -1.488  -0.895   0.011  0.00  0.00    -0.050 Cl
ENDBRANCH   6   8
ENDBRANCH   1   3
BRANCH   1  15
ATOM     15  O   LIG    1       -5.097   4.703   0.523  0.00  0.00    -0.320 OA
BRANCH  15  16
ATOM     16  C   LIG    1       -5.903   5.741   1.141  0.00  0.00    +0.260 C 
BRANCH  16  18
ATOM     17  O   LIG    1       -7.486   5.074  -0.477  0.00  0.00    -0.420 OA
ATOM     18  C   LIG    1       -7.239   5.819   0.447  0.00  0.00    +0.400 C 
BRANCH  18  19
ATOM     19  C   LIG    1       -8.240   6.798   0.890  0.00  0.00    -0.160 A 
ATOM     20  C   LIG    1       -7.956   7.659   1.957  0.00  0.00    +0.090 A 
ATOM     21  C   LIG    1       -8.897   8.576   2.369  0.00  0.00    +0.040 A 
ATOM     22  C   LIG    1      -10.129   8.650   1.732  0.00  0.00    +0.070 A 
ATOM     23  O   LIG    1      -11.207   9.456   1.948  0.00  0.00    -0.300 OA
ATOM     24  C   LIG    1      -12.309   8.813   1.280  0.00  0.00    +0.440 C 
ATOM     25  O   LIG    1      -11.680   8.068   0.221  0.00  0.00    -0.300 OA
ATOM     26  C   LIG    1      -10.419   7.794   0.667  0.00  0.00    +0.020 A 
ATOM     27  C   LIG    1       -9.480   6.877   0.243  0.00  0.00    +0.110 A 
ENDBRANCH  18  19
ENDBRANCH  16  18
ENDBRANCH  15  16
ENDBRANCH   1  15
TORSDOF 6
