REMARK  Name = ZINCpe00000MJM58.0
REMARK                            x       y       z     vdW  Elec       q    Type
REMARK                         _______ _______ _______ _____ _____    ______ ____
ROOT
ATOM      1  C   LIG    1        0.839   1.411   0.362  0.00  0.00    +0.300 C 
ENDROOT
BRANCH   1   2
ATOM      2  C   LIG    1        0.307   1.912   1.706  0.00  0.00    +0.170 C 
ATOM      3  C   LIG    1        0.326   3.460   1.751  0.00  0.00    +0.070 C 
ATOM      4  C   LIG    1       -0.766   3.757   2.812  0.00  0.00    +0.150 C 
ATOM      5  C   LIG    1       -1.810   2.650   2.554  0.00  0.00    +0.210 C 
ATOM      6  N   LIG    1       -1.117   1.547   1.864  0.00  0.00    -0.460 N 
BRANCH   6   7
ATOM      7  C   LIG    1       -1.251   0.360   2.566  0.00  0.00    +0.340 A 
ATOM      8  C   LIG    1       -2.516  -0.170   2.829  0.00  0.00    -0.090 A 
ATOM      9  C   LIG    1       -2.596  -1.356   3.531  0.00  0.00    +0.340 A 
ATOM     10  N   LIG    1       -1.480  -1.948   3.930  0.00  0.00    -0.530 NA
ATOM     11  C   LIG    1       -0.301  -1.422   3.667  0.00  0.00    +0.520 A 
ATOM     12  N   LIG    1       -0.177  -0.296   2.995  0.00  0.00    -0.570 NA
ENDBRANCH   6   7
BRANCH   4  13
ATOM     13  O   LIG    1       -1.337   5.050   2.602  0.00  0.00    -0.370 OA
ATOM     14  C   LIG    1       -1.899   5.636   3.778  0.00  0.00    +0.210 C 
ENDBRANCH   4  13
ENDBRANCH   1   2
BRANCH   1  16
ATOM     15  C   LIG    1        1.026  -0.699  -0.842  0.00  0.00    +0.570 C 
ATOM     16  N   LIG    1        0.632  -0.036   0.264  0.00  0.00    -0.720 N 
ATOM     17  H   LIG    1        0.212  -0.517   0.994  0.00  0.00    +0.400 HD
ATOM     18  O   LIG    1        1.553  -0.097  -1.757  0.00  0.00    -0.520 OA
BRANCH  15  24
ATOM     19  C   LIG    1        1.112  -2.849  -2.123  0.00  0.00    +0.240 A 
ATOM     20  N   LIG    1        0.910  -4.154  -2.168  0.00  0.00    -0.520 NA
ATOM     21  C   LIG    1        0.439  -4.805  -1.122  0.00  0.00    +0.530 A 
ATOM     22  N   LIG    1        0.148  -4.194   0.010  0.00  0.00    -0.520 NA
ATOM     23  C   LIG    1        0.326  -2.891   0.145  0.00  0.00    +0.340 A 
ATOM     24  C   LIG    1        0.818  -2.159  -0.941  0.00  0.00    -0.250 A 
BRANCH  19  26
ATOM     25  C   LIG    1        3.166  -1.962  -3.192  0.00  0.00    +0.050 C 
ATOM     26  C   LIG    1        1.650  -2.116  -3.324  0.00  0.00    +0.110 C 
ENDBRANCH  19  26
ENDBRANCH  15  24
ENDBRANCH   1  16
TORSDOF 6
