REMARK  Name = ZINCnE000008Jd13.0
REMARK                            x       y       z     vdW  Elec       q    Type
REMARK                         _______ _______ _______ _____ _____    ______ ____
ROOT
ATOM      1  C   LIG    1        3.869   5.531  -0.004  0.00  0.00    +0.190 A 
ATOM      2  N   LIG    1        4.491   4.386  -0.017  0.00  0.00    -0.260 NA
ATOM      3  N   LIG    1        3.631   3.429  -0.014  0.00  0.00    -0.270 NA
ATOM      4  C   LIG    1        2.420   3.935   0.000  0.00  0.00    +0.210 A 
ATOM      5  O   LIG    1        2.548   5.277   0.000  0.00  0.00    -0.220 OA
ENDROOT
BRANCH   4   6
ATOM      6  C   LIG    1        1.152   3.176   0.008  0.00  0.00    -0.060 A 
ATOM      7  C   LIG    1        1.172   1.780   0.000  0.00  0.00    +0.120 A 
ATOM      8  C   LIG    1       -0.013   1.076   0.008  0.00  0.00    -0.010 A 
ATOM      9  C   LIG    1       -1.225   1.753   0.017  0.00  0.00    +0.150 A 
ATOM     10  C   LIG    1       -1.249   3.142   0.030  0.00  0.00    -0.070 A 
ATOM     11  C   LIG    1       -0.069   3.853   0.022  0.00  0.00    +0.100 A 
BRANCH   9  12
ATOM     12  O   LIG    1       -2.391   1.055   0.019  0.00  0.00    -0.310 OA
ATOM     13  C   LIG    1       -3.601   1.814   0.029  0.00  0.00    +0.240 C 
ENDBRANCH   9  12
ENDBRANCH   4   6
BRANCH   1  14
ATOM     14  C   LIG    1        4.513   6.893  -0.003  0.00  0.00    +0.130 C 
ATOM     15  C   LIG    1        5.082   7.187   1.387  0.00  0.00    +0.090 C 
BRANCH  14  16
ATOM     16  S   LIG    1        5.853   6.930  -1.225  0.00  0.00    +0.020 S 
BRANCH  16  22
ATOM     17  C   LIG    1        7.815  13.310  -1.054  0.00  0.00    +0.160 C 
ATOM     18  N   LIG    1        8.135  12.053  -1.737  0.00  0.00    -0.640 NA
ATOM     19  C   LIG    1        7.461  10.964  -1.455  0.00  0.00    +0.330 A 
ATOM     20  N   LIG    1        6.440  10.822  -0.560  0.00  0.00    -0.510 NA
ATOM     21  N   LIG    1        5.894   9.563  -0.455  0.00  0.00    -0.250 NA
ATOM     22  C   LIG    1        6.378   8.611  -1.188  0.00  0.00    -0.080 A 
ATOM     23  S   LIG    1        7.672   9.346  -2.151  0.00  0.00    -0.090 S 
ENDBRANCH  16  22
ENDBRANCH  14  16
ENDBRANCH   1  14
TORSDOF 5
