REMARK  Name = ZINCvU0000000JSi.0
REMARK                            x       y       z     vdW  Elec       q    Type
REMARK                         _______ _______ _______ _____ _____    ______ ____
ROOT
ATOM      1  C   LIG    1        1.333  -2.084  -0.021  0.00  0.00    +0.320 C 
ENDROOT
BRANCH   1   4
ATOM      2  C   LIG    1       -0.016   1.298   0.009  0.00  0.00    +0.130 A 
ATOM      3  N   LIG    1        0.002  -0.004   0.002  0.00  0.00    -0.460 NA
ATOM      4  C   LIG    1        1.180  -0.585  -0.012  0.00  0.00    +0.060 A 
ATOM      5  C   LIG    1        2.235   0.236  -0.018  0.00  0.00    -0.030 A 
ATOM      6  S   LIG    1        1.642   1.896  -0.003  0.00  0.00    +0.090 S 
BRANCH   2  10
ATOM      7  C   LIG    1       -3.515   3.714   0.040  0.00  0.00    +0.130 A 
ATOM      8  C   LIG    1       -3.627   2.331   0.033  0.00  0.00    -0.040 A 
ATOM      9  C   LIG    1       -2.493   1.545   0.023  0.00  0.00    +0.080 A 
ATOM     10  C   LIG    1       -1.231   2.140   0.020  0.00  0.00    -0.030 A 
ATOM     11  C   LIG    1       -1.118   3.531   0.033  0.00  0.00    -0.010 A 
ATOM     12  C   LIG    1       -2.258   4.314   0.038  0.00  0.00    +0.100 A 
BRANCH  12  13
ATOM     13  O   LIG    1       -2.151   5.670   0.044  0.00  0.00    -0.300 OA
ATOM     14  C   LIG    1       -0.831   6.217   0.041  0.00  0.00    +0.240 C 
ENDBRANCH  12  13
BRANCH   7  15
ATOM     15  O   LIG    1       -4.635   4.484   0.050  0.00  0.00    -0.300 OA
BRANCH  15  17
ATOM     16  C   LIG    1       -7.027   4.829   0.065  0.00  0.00    +0.070 C 
ATOM     17  C   LIG    1       -5.891   3.804   0.053  0.00  0.00    +0.170 C 
ENDBRANCH  15  17
ENDBRANCH   7  15
ENDBRANCH   2  10
ENDBRANCH   1   4
BRANCH   1  18
ATOM     18  O   LIG    1        2.744  -2.426  -0.036  0.00  0.00    -0.350 OA
BRANCH  18  19
ATOM     19  C   LIG    1        3.054  -3.732  -0.046  0.00  0.00    +0.470 C 
ATOM     20  O   LIG    1        2.176  -4.562  -0.042  0.00  0.00    -0.500 OA
BRANCH  19  21
ATOM     21  C   LIG    1        4.498  -4.164  -0.061  0.00  0.00    +0.040 C 
BRANCH  21  22
ATOM     22  C   LIG    1        5.182  -3.612  -1.314  0.00  0.00    +0.040 C 
ATOM     23  C   LIG    1        5.217  -2.084  -1.246  0.00  0.00    +0.020 C 
ENDBRANCH  21  22
BRANCH  21  24
ATOM     24  C   LIG    1        4.574  -5.692  -0.070  0.00  0.00    +0.100 C 
BRANCH  24  25
ATOM     25  C   LIG    1        6.013  -6.124   0.038  0.00  0.00    -0.140 A 
ATOM     26  C   LIG    1        6.764  -6.316  -1.107  0.00  0.00    +0.060 A 
ATOM     27  C   LIG    1        8.085  -6.707  -1.011  0.00  0.00    -0.080 A 
ATOM     28  C   LIG    1        8.657  -6.918   0.237  0.00  0.00    +0.220 A 
ATOM     29  C   LIG    1        7.898  -6.730   1.386  0.00  0.00    -0.080 A 
ATOM     30  C   LIG    1        6.579  -6.333   1.283  0.00  0.00    +0.060 A 
BRANCH  28  31
ATOM     31  N   LIG    1        9.991  -7.319   0.338  0.00  0.00    -0.880 N 
ATOM     32  H   LIG    1       10.520  -7.450  -0.465  0.00  0.00    +0.400 HD
ATOM     33  H   LIG    1       10.389  -7.465   1.210  0.00  0.00    +0.400 HD
ENDBRANCH  28  31
ENDBRANCH  24  25
ENDBRANCH  21  24
ENDBRANCH  19  21
ENDBRANCH  18  19
ENDBRANCH   1  18
TORSDOF 12
