REMARK  Name = ZINCrD000000ACOO.0
REMARK                            x       y       z     vdW  Elec       q    Type
REMARK                         _______ _______ _______ _____ _____    ______ ____
ROOT
ATOM      1  C   LIG    1       -1.675   0.814   1.769  0.00  0.00    +0.510 C 
ATOM      2  N   LIG    1       -0.698   1.558   1.213  0.00  0.00    -0.610 N 
ATOM      3  O   LIG    1       -2.242   1.205   2.767  0.00  0.00    -0.480 OA
ENDROOT
BRANCH   1   4
ATOM      4  C   LIG    1       -2.061  -0.505   1.150  0.00  0.00    +0.160 C 
BRANCH   4  10
ATOM      5  O   LIG    1       -6.120  -2.686   4.211  0.00  0.00    -0.520 OA
ATOM      6  C   LIG    1       -5.228  -2.243   3.509  0.00  0.00    +0.530 A 
ATOM      7  N   LIG    1       -4.654  -1.055   3.795  0.00  0.00    -0.540 N 
ATOM      8  H   LIG    1       -4.961  -0.557   4.569  0.00  0.00    +0.440 HD
ATOM      9  N   LIG    1       -3.631  -0.526   3.008  0.00  0.00    -0.160 NA
ATOM     10  C   LIG    1       -3.168  -1.134   1.957  0.00  0.00    +0.120 A 
ATOM     11  C   LIG    1       -3.725  -2.425   1.554  0.00  0.00    -0.050 A 
ATOM     12  C   LIG    1       -3.250  -3.114   0.436  0.00  0.00    +0.040 A 
ATOM     13  C   LIG    1       -3.804  -4.330   0.102  0.00  0.00    +0.050 A 
ATOM     14  C   LIG    1       -4.823  -4.881   0.868  0.00  0.00    +0.030 A 
ATOM     15  C   LIG    1       -5.303  -4.222   1.979  0.00  0.00    +0.090 A 
ATOM     16  C   LIG    1       -4.758  -2.990   2.336  0.00  0.00    -0.130 A 
ENDBRANCH   4  10
ENDBRANCH   1   4
BRANCH   2  17
ATOM     17  C   LIG    1       -0.013   1.086   0.008  0.00  0.00    +0.380 C 
BRANCH  17  18
ATOM     18  C   LIG    1       -0.742   1.585  -1.213  0.00  0.00    -0.210 A 
ATOM     19  C   LIG    1       -0.496   2.738  -1.837  0.00  0.00    +0.040 A 
ATOM     20  C   LIG    1       -1.295   2.986  -2.940  0.00  0.00    +0.000 A 
ATOM     21  C   LIG    1       -2.188   2.033  -3.212  0.00  0.00    -0.040 A 
ATOM     22  S   LIG    1       -2.041   0.733  -2.037  0.00  0.00    +0.090 S 
ENDBRANCH  17  18
ENDBRANCH   2  17
BRANCH   2  23
ATOM     23  C   LIG    1       -0.323   2.840   1.815  0.00  0.00    +0.420 C 
BRANCH  23  24
ATOM     24  C   LIG    1       -1.158   3.941   1.213  0.00  0.00    -0.040 A 
ATOM     25  C   LIG    1       -2.345   4.371   1.677  0.00  0.00    -0.030 A 
ATOM     26  C   LIG    1       -2.770   5.409   0.817  0.00  0.00    -0.080 A 
ATOM     27  C   LIG    1       -1.818   5.551  -0.122  0.00  0.00    +0.170 A 
ATOM     28  O   LIG    1       -0.841   4.663   0.127  0.00  0.00    -0.170 OA
ENDBRANCH  23  24
ENDBRANCH   2  23
TORSDOF 6
