REMARK  Name = ZINCkj000005jBVo.0
REMARK                            x       y       z     vdW  Elec       q    Type
REMARK                         _______ _______ _______ _____ _____    ______ ____
ROOT
ATOM      1  N   LIG    1        4.865  -0.478   0.863  0.00  0.00    -0.500 N 
ATOM      2  H   LIG    1        4.257  -0.132   0.137  0.00  0.00    +0.430 HD
ATOM      3  H   LIG    1        4.871  -1.487   0.845  0.00  0.00    +0.430 HD
ENDROOT
BRANCH   1   5
ATOM      4  C   LIG    1        5.226  -0.642   3.280  0.00  0.00    +0.100 C 
ATOM      5  C   LIG    1        4.379  -0.015   2.170  0.00  0.00    +0.170 C 
BRANCH   5   6
ATOM      6  C   LIG    1        2.918  -0.432   2.348  0.00  0.00    +0.210 C 
BRANCH   6   7
ATOM      7  N   LIG    1        2.125   0.070   1.217  0.00  0.00    -0.560 NA
ATOM      8  C   LIG    1        0.772  -0.505   1.227  0.00  0.00    +0.180 C 
ATOM      9  C   LIG    1        0.002  -0.004   0.002  0.00  0.00    +0.230 C 
ATOM     10  O   LIG    1       -0.017   1.426   0.010  0.00  0.00    -0.380 OA
ATOM     11  C   LIG    1        1.284   2.019   0.001  0.00  0.00    +0.230 C 
ATOM     12  C   LIG    1        2.067   1.539   1.225  0.00  0.00    +0.140 C 
ENDBRANCH   6   7
ENDBRANCH   5   6
ENDBRANCH   1   5
BRANCH   1  13
ATOM     13  C   LIG    1        6.228   0.023   0.642  0.00  0.00    +0.320 C 
BRANCH  13  14
ATOM     14  C   LIG    1        6.726  -0.451  -0.699  0.00  0.00    -0.110 A 
ATOM     15  C   LIG    1        6.503   0.316  -1.795  0.00  0.00    +0.090 A 
ATOM     16  C   LIG    1        6.964  -0.118  -3.056  0.00  0.00    +0.090 A 
ATOM     17  N   LIG    1        6.915   0.370  -4.282  0.00  0.00    -0.290 NA
ATOM     18  N   LIG    1        7.556  -0.519  -5.152  0.00  0.00    -0.410 N 
ATOM     19  H   LIG    1        7.655  -0.388  -6.108  0.00  0.00    +0.450 HD
ATOM     20  C   LIG    1        8.012  -1.578  -4.470  0.00  0.00    +0.300 A 
ATOM     21  C   LIG    1        7.680  -1.401  -3.139  0.00  0.00    -0.210 A 
ATOM     22  C   LIG    1        7.877  -2.147  -1.958  0.00  0.00    +0.130 A 
ATOM     23  C   LIG    1        7.410  -1.667  -0.778  0.00  0.00    -0.040 A 
ENDBRANCH  13  14
ENDBRANCH   1  13
TORSDOF 5
