REMARK  Name = ZINCrH00000tj1jd.0
REMARK                            x       y       z     vdW  Elec       q    Type
REMARK                         _______ _______ _______ _____ _____    ______ ____
ROOT
ATOM      1  N   LIG    1        0.604  -0.491   1.246  0.00  0.00    -0.520 N 
ATOM      2  C   LIG    1        0.042  -0.171   2.434  0.00  0.00    +0.560 A 
ATOM      3  C   LIG    1        0.682  -0.689   3.651  0.00  0.00    -0.200 A 
ATOM      4  C   LIG    1        0.175  -0.418   4.920  0.00  0.00    +0.100 A 
ATOM      5  C   LIG    1        0.816  -0.924   6.030  0.00  0.00    -0.010 A 
ATOM      6  C   LIG    1        1.960  -1.699   5.894  0.00  0.00    +0.060 A 
ATOM      7  C   LIG    1        2.478  -1.979   4.650  0.00  0.00    +0.020 A 
ATOM      8  C   LIG    1        1.847  -1.478   3.508  0.00  0.00    +0.170 A 
ATOM      9  N   LIG    1        2.324  -1.730   2.267  0.00  0.00    -0.540 NA
ATOM     10  O   LIG    1       -0.959   0.519   2.493  0.00  0.00    -0.500 OA
ATOM     11  C   LIG    1        1.732  -1.260   1.196  0.00  0.00    +0.360 A 
ENDROOT
BRANCH   1  12
ATOM     12  C   LIG    1        0.002  -0.004   0.002  0.00  0.00    +0.220 C 
ATOM     13  C   LIG    1       -1.429  -0.533  -0.113  0.00  0.00    +0.050 C 
BRANCH  12  15
ATOM     14  C   LIG    1        1.417   2.055  -0.000  0.00  0.00    +0.020 C 
ATOM     15  C   LIG    1       -0.019   1.526   0.010  0.00  0.00    +0.040 C 
ENDBRANCH  12  15
ENDBRANCH   1  12
BRANCH  11  16
ATOM     16  S   LIG    1        2.422  -1.638  -0.380  0.00  0.00    +0.080 S 
BRANCH  16  17
ATOM     17  C   LIG    1        3.840  -2.641   0.130  0.00  0.00    +0.110 C 
BRANCH  17  18
ATOM     18  C   LIG    1        4.603  -3.090  -1.089  0.00  0.00    +0.530 C 
ATOM     19  N   LIG    1        5.705  -3.853  -0.952  0.00  0.00    -0.610 N 
ATOM     20  C   LIG    1        6.162  -4.247   0.384  0.00  0.00    +0.300 C 
ATOM     21  O   LIG    1        4.225  -2.764  -2.195  0.00  0.00    -0.510 OA
BRANCH  19  22
ATOM     22  C   LIG    1        6.447  -4.290  -2.137  0.00  0.00    +0.420 C 
BRANCH  22  23
ATOM     23  C   LIG    1        7.503  -3.268  -2.473  0.00  0.00    -0.040 A 
ATOM     24  C   LIG    1        8.764  -3.259  -2.006  0.00  0.00    -0.040 A 
ATOM     25  C   LIG    1        9.404  -2.134  -2.576  0.00  0.00    -0.070 A 
ATOM     26  C   LIG    1        8.492  -1.519  -3.352  0.00  0.00    +0.170 A 
ATOM     27  O   LIG    1        7.343  -2.211  -3.285  0.00  0.00    -0.160 OA
ENDBRANCH  22  23
ENDBRANCH  19  22
ENDBRANCH  17  18
ENDBRANCH  16  17
ENDBRANCH  11  16
TORSDOF 7
