REMARK  Name = ZINCpk00000kEZ3r.0
REMARK                            x       y       z     vdW  Elec       q    Type
REMARK                         _______ _______ _______ _____ _____    ______ ____
ROOT
ATOM      1  C   LIG    1        3.580   0.665  -0.029  0.00  0.00    +0.610 C 
ATOM      2  N   LIG    1        4.239  -0.505  -0.144  0.00  0.00    -0.620 N 
ATOM      3  C   LIG    1        3.614  -1.835  -0.256  0.00  0.00    +0.280 C 
ATOM      4  C   LIG    1        4.678  -2.712  -0.968  0.00  0.00    +0.090 C 
ATOM      5  C   LIG    1        5.991  -2.173  -0.342  0.00  0.00    +0.110 C 
ATOM      6  C   LIG    1        5.700  -0.667  -0.173  0.00  0.00    +0.210 C 
ATOM      7  O   LIG    1        2.368   0.674   0.070  0.00  0.00    -0.520 OA
ENDROOT
BRANCH   1  13
ATOM      8  C   LIG    1        4.735   5.603  -0.006  0.00  0.00    +0.110 C 
ATOM      9  C   LIG    1        4.847   4.101  -0.016  0.00  0.00    -0.170 A 
ATOM     10  C   LIG    1        5.998   3.387  -0.015  0.00  0.00    +0.050 A 
ATOM     11  N   LIG    1        5.695   2.066  -0.019  0.00  0.00    -0.540 N 
ATOM     12  H   LIG    1        6.336   1.338  -0.020  0.00  0.00    +0.410 HD
ATOM     13  C   LIG    1        4.325   1.929  -0.024  0.00  0.00    -0.060 A 
ATOM     14  C   LIG    1        7.389   3.966  -0.009  0.00  0.00    +0.140 C 
ATOM     15  C   LIG    1        3.781   3.196  -0.022  0.00  0.00    +0.060 A 
ENDBRANCH   1  13
BRANCH   5  16
ATOM     16  O   LIG    1        6.237  -2.786   0.925  0.00  0.00    -0.530 OA
ATOM     17  H   LIG    1        7.004  -2.428   1.393  0.00  0.00    +0.380 HD
ENDBRANCH   5  16
BRANCH   5  18
ATOM     18  C   LIG    1        7.175  -2.392  -1.286  0.00  0.00    +0.280 C 
BRANCH  18  19
ATOM     19  N   LIG    1        8.373  -1.769  -0.720  0.00  0.00    -0.730 N 
ATOM     20  H   LIG    1        8.324  -1.308   0.132  0.00  0.00    +0.400 HD
ATOM     21  C   LIG    1        9.545  -1.835  -1.383  0.00  0.00    +0.500 C 
ATOM     22  O   LIG    1        9.607  -2.412  -2.449  0.00  0.00    -0.500 OA
BRANCH  21  23
ATOM     23  C   LIG    1       10.778  -1.194  -0.801  0.00  0.00    +0.190 C 
ATOM     24  F   LIG    1       11.621  -2.185  -0.287  0.00  0.00    -0.180 F 
BRANCH  23  25
ATOM     25  C   LIG    1       11.513  -0.416  -1.894  0.00  0.00    -0.020 C 
ATOM     26  C   LIG    1       12.422  -1.294  -2.769  0.00  0.00    +0.030 C 
ATOM     27  C   LIG    1       13.441  -0.142  -2.729  0.00  0.00    +0.010 C 
ATOM     28  C   LIG    1       12.793   0.280  -1.400  0.00  0.00    +0.030 C 
ENDBRANCH  23  25
ENDBRANCH  21  23
ENDBRANCH  18  19
ENDBRANCH   5  18
TORSDOF 6
