REMARK  Name = ZINCqH0000007wZO.0
REMARK                            x       y       z     vdW  Elec       q    Type
REMARK                         _______ _______ _______ _____ _____    ______ ____
ROOT
ATOM      1  C   LIG    1        6.005   3.357  -1.063  0.00  0.00    +0.120 A 
ATOM      2  C   LIG    1        5.102   2.316  -0.913  0.00  0.00    -0.030 A 
ATOM      3  C   LIG    1        3.770   2.583  -0.677  0.00  0.00    +0.020 A 
ATOM      4  C   LIG    1        3.321   3.901  -0.581  0.00  0.00    +0.100 A 
ATOM      5  C   LIG    1        4.229   4.936  -0.738  0.00  0.00    -0.080 A 
ATOM      6  C   LIG    1        3.491   6.249  -0.597  0.00  0.00    +0.110 C 
ATOM      7  C   LIG    1        2.030   5.846  -0.343  0.00  0.00    +0.290 C 
ATOM      8  N   LIG    1        2.026   4.381  -0.355  0.00  0.00    -0.540 N 
ATOM      9  C   LIG    1        0.937   3.609  -0.170  0.00  0.00    +0.570 C 
ATOM     10  O   LIG    1       -0.164   4.119  -0.103  0.00  0.00    -0.490 OA
ATOM     11  C   LIG    1        5.563   4.669  -0.975  0.00  0.00    +0.030 A 
ENDROOT
BRANCH   9  12
ATOM     12  C   LIG    1        1.083   2.141  -0.047  0.00  0.00    -0.010 A 
ATOM     13  C   LIG    1        1.002   1.316  -1.170  0.00  0.00    +0.010 A 
ATOM     14  C   LIG    1        1.141  -0.052  -1.017  0.00  0.00    +0.220 A 
ATOM     15  N   LIG    1        1.350  -0.592   0.167  0.00  0.00    -0.470 NA
ATOM     16  C   LIG    1        1.437   0.139   1.268  0.00  0.00    +0.170 A 
ATOM     17  C   LIG    1        1.307   1.537   1.207  0.00  0.00    -0.040 A 
BRANCH  14  18
ATOM     18  C   LIG    1        1.053  -0.943  -2.229  0.00  0.00    +0.010 C 
ATOM     19  C   LIG    1        0.485  -0.335  -3.513  0.00  0.00    +0.040 C 
ATOM     20  C   LIG    1       -0.342  -1.343  -2.712  0.00  0.00    +0.060 C 
ENDBRANCH  14  18
BRANCH  16  21
ATOM     21  S   LIG    1        1.717  -0.647   2.820  0.00  0.00    -0.030 S 
ATOM     22  C   LIG    1        1.795  -2.376   2.287  0.00  0.00    +0.160 C 
ENDBRANCH  16  21
BRANCH  17  23
ATOM     23  C   LIG    1        1.394   2.331   2.396  0.00  0.00    +0.240 C 
ATOM     24  N   LIG    1        1.463   2.961   3.339  0.00  0.00    -0.370 NA
ENDBRANCH  17  23
ENDBRANCH   9  12
BRANCH   1  26
ATOM     25  C   LIG    1        7.701   1.719  -1.374  0.00  0.00    +0.250 C 
ATOM     26  O   LIG    1        7.319   3.094  -1.296  0.00  0.00    -0.310 OA
ENDBRANCH   1  26
TORSDOF 5
