REMARK  Name = ZINCrD0000073uhD.0
REMARK                            x       y       z     vdW  Elec       q    Type
REMARK                         _______ _______ _______ _____ _____    ______ ____
ROOT
ATOM      1  C   LIG    1       -1.207  -0.821   0.131  0.00  0.00    -0.010 C 
ATOM      2  C   LIG    1       -1.904  -0.490   1.453  0.00  0.00    +0.030 C 
ATOM      3  C   LIG    1       -3.199  -1.298   1.564  0.00  0.00    +0.030 C 
ATOM      4  C   LIG    1       -2.867  -2.793   1.554  0.00  0.00    +0.280 C 
ATOM      5  N   LIG    1       -2.071  -3.092   0.355  0.00  0.00    -1.000 NA
ATOM      6  C   LIG    1       -0.852  -2.311   0.104  0.00  0.00    +0.320 C 
ENDROOT
BRANCH   1   9
ATOM      7  N   LIG    1       -0.016   1.344   0.009  0.00  0.00    -0.670 N 
ATOM      8  H   LIG    1       -0.880   1.785   0.018  0.00  0.00    +0.410 HD
ATOM      9  C   LIG    1        0.052  -0.003   0.008  0.00  0.00    +0.520 C 
ATOM     10  O   LIG    1        1.127  -0.555  -0.093  0.00  0.00    -0.520 OA
BRANCH   7  14
ATOM     11  C   LIG    1        3.483   3.610  -0.042  0.00  0.00    +0.120 A 
ATOM     12  C   LIG    1        3.426   2.408  -0.732  0.00  0.00    +0.010 A 
ATOM     13  C   LIG    1        2.267   1.657  -0.715  0.00  0.00    +0.070 A 
ATOM     14  C   LIG    1        1.160   2.105  -0.007  0.00  0.00    +0.100 A 
ATOM     15  C   LIG    1        1.217   3.311   0.679  0.00  0.00    +0.030 A 
ATOM     16  C   LIG    1        2.377   4.058   0.665  0.00  0.00    -0.060 A 
BRANCH  11  18
ATOM     17  C   LIG    1        4.613   5.577   0.672  0.00  0.00    +0.250 C 
ATOM     18  O   LIG    1        4.624   4.350  -0.060  0.00  0.00    -0.320 OA
ENDBRANCH  11  18
ENDBRANCH   7  14
ENDBRANCH   1   9
BRANCH   5  19
ATOM     19  S   LIG    1       -2.540  -4.286  -0.692  0.00  0.00    +2.690 S 
ATOM     20  O   LIG    1       -1.948  -3.974  -1.946  0.00  0.00    -0.950 OA
ATOM     21  O   LIG    1       -3.940  -4.451  -0.513  0.00  0.00    -0.950 OA
BRANCH  19  22
ATOM     22  C   LIG    1       -1.788  -5.783  -0.146  0.00  0.00    -0.680 A 
ATOM     23  C   LIG    1       -0.542  -6.145  -0.623  0.00  0.00    +0.140 A 
ATOM     24  C   LIG    1        0.050  -7.317  -0.190  0.00  0.00    +0.020 A 
ATOM     25  C   LIG    1       -0.610  -8.133   0.711  0.00  0.00    +0.020 A 
ATOM     26  C   LIG    1       -1.859  -7.773   1.183  0.00  0.00    +0.020 A 
ATOM     27 CL   LIG    1        0.131  -9.608   1.250  0.00  0.00    -0.050 Cl
ATOM     28  C   LIG    1       -2.448  -6.599   0.755  0.00  0.00    +0.140 A 
ENDBRANCH  19  22
ENDBRANCH   5  19
TORSDOF 5
