REMARK  Name = ZINCrg00000fScnY.1
REMARK                            x       y       z     vdW  Elec       q    Type
REMARK                         _______ _______ _______ _____ _____    ______ ____
ROOT
ATOM      1  C   LIG    1        0.882   3.047   2.114  0.00  0.00    +0.480 C 
ATOM      2  N   LIG    1        1.726   2.660   3.091  0.00  0.00    -0.730 N 
ATOM      3  H   LIG    1        2.638   2.410   2.872  0.00  0.00    +0.400 HD
ATOM      4  O   LIG    1       -0.282   3.271   2.373  0.00  0.00    -0.510 OA
ENDROOT
BRANCH   2   5
ATOM      5  C   LIG    1        1.268   2.615   4.481  0.00  0.00    +0.160 C 
ATOM      6  C   LIG    1        0.840   4.018   4.963  0.00  0.00    +0.120 C 
ATOM      7  C   LIG    1        1.246   4.078   6.420  0.00  0.00    -0.080 A 
ATOM      8  C   LIG    1        0.846   4.938   7.428  0.00  0.00    +0.020 A 
ATOM      9  C   LIG    1        1.360   4.801   8.703  0.00  0.00    +0.020 A 
ATOM     10  C   LIG    1        2.277   3.802   8.974  0.00  0.00    +0.010 A 
ATOM     11  C   LIG    1        2.677   2.943   7.968  0.00  0.00    +0.020 A 
ATOM     12  C   LIG    1        2.163   3.079   6.690  0.00  0.00    -0.110 A 
ATOM     13  C   LIG    1        2.435   2.280   5.434  0.00  0.00    +0.120 C 
BRANCH   5  14
ATOM     14  C   LIG    1        0.144   1.624   4.641  0.00  0.00    +0.540 C 
ATOM     15  O   LIG    1       -0.766   1.857   5.407  0.00  0.00    -0.520 OA
ATOM     16  N   LIG    1        0.151   0.477   3.932  0.00  0.00    -0.850 N 
ATOM     17  H   LIG    1       -0.532  -0.193   4.088  0.00  0.00    +0.400 HD
ATOM     18  H   LIG    1        0.840   0.323   3.267  0.00  0.00    +0.400 HD
ENDBRANCH   5  14
ENDBRANCH   2   5
BRANCH   1  19
ATOM     19  C   LIG    1        1.383   3.202   0.702  0.00  0.00    +0.190 C 
BRANCH  19  20
ATOM     20  N   LIG    1        0.461   4.060  -0.054  0.00  0.00    -0.810 NA
ATOM     21  H   LIG    1        0.440   4.994   0.329  0.00  0.00    +0.350 HD
ATOM     22  H   LIG    1       -0.465   3.660  -0.081  0.00  0.00    +0.360 HD
ENDBRANCH  19  20
BRANCH  19  24
ATOM     23  C   LIG    1        1.971   1.984  -1.399  0.00  0.00    +0.040 C 
ATOM     24  C   LIG    1        1.462   1.827   0.035  0.00  0.00    +0.160 C 
BRANCH  24  25
ATOM     25  O   LIG    1        0.163   1.231   0.017  0.00  0.00    -0.360 OA
BRANCH  25  26
ATOM     26  C   LIG    1        0.178  -0.197   0.072  0.00  0.00    +0.220 C 
BRANCH  26  27
ATOM     27  C   LIG    1       -1.236  -0.715   0.048  0.00  0.00    -0.090 A 
ATOM     28  C   LIG    1       -1.921  -0.912   1.232  0.00  0.00    +0.020 A 
ATOM     29  C   LIG    1       -3.221  -1.383   1.209  0.00  0.00    +0.000 A 
ATOM     30  C   LIG    1       -3.832  -1.667   0.002  0.00  0.00    +0.010 A 
ATOM     31  C   LIG    1       -3.145  -1.475  -1.182  0.00  0.00    +0.000 A 
ATOM     32  C   LIG    1       -1.848  -0.999  -1.159  0.00  0.00    +0.020 A 
ENDBRANCH  26  27
ENDBRANCH  25  26
ENDBRANCH  24  25
ENDBRANCH  19  24
ENDBRANCH   1  19
TORSDOF 8
