REMARK  Name = ZINCrH000004n8Nx.0
REMARK                            x       y       z     vdW  Elec       q    Type
REMARK                         _______ _______ _______ _____ _____    ______ ____
ROOT
ATOM      1  C   LIG    1        2.598   5.606   0.541  0.00  0.00    +0.110 A 
ATOM      2  C   LIG    1        1.609   5.107  -0.295  0.00  0.00    -0.060 A 
ATOM      3  C   LIG    1        1.273   3.769  -0.240  0.00  0.00    +0.060 A 
ATOM      4  C   LIG    1        1.923   2.923   0.650  0.00  0.00    +0.120 A 
ATOM      5  C   LIG    1        2.913   3.419   1.484  0.00  0.00    -0.070 A 
ATOM      6  C   LIG    1        3.644   2.528   2.454  0.00  0.00    +0.090 C 
ATOM      7  C   LIG    1        2.832   1.264   2.737  0.00  0.00    +0.030 C 
ATOM      8  C   LIG    1        2.430   0.623   1.407  0.00  0.00    +0.260 C 
ATOM      9  N   LIG    1        1.562   1.568   0.691  0.00  0.00    -0.540 N 
ATOM     10  C   LIG    1        0.435   1.141   0.088  0.00  0.00    +0.570 C 
ATOM     11  O   LIG    1       -0.339   1.946  -0.395  0.00  0.00    -0.510 OA
ATOM     12  C   LIG    1        3.247   4.761   1.427  0.00  0.00    +0.000 A 
ENDROOT
BRANCH  10  13
ATOM     13  C   LIG    1        0.136  -0.302   0.019  0.00  0.00    -0.200 A 
ATOM     14  C   LIG    1        1.177  -1.235   0.050  0.00  0.00    +0.160 A 
ATOM     15  C   LIG    1        0.894  -2.580  -0.009  0.00  0.00    -0.060 A 
ATOM     16  C   LIG    1       -0.425  -3.013  -0.110  0.00  0.00    +0.310 A 
ATOM     17  C   LIG    1       -1.464  -2.086  -0.145  0.00  0.00    -0.140 A 
ATOM     18  C   LIG    1       -1.188  -0.739  -0.081  0.00  0.00    +0.230 A 
BRANCH  17  19
ATOM     19  N   LIG    1       -2.865  -2.550  -0.252  0.00  0.00    +0.050 N 
ATOM     20  O   LIG    1       -3.119  -3.740  -0.196  0.00  0.00    -0.200 OA
ATOM     21  O   LIG    1       -3.765  -1.741  -0.396  0.00  0.00    -0.140 OA
ENDBRANCH  17  19
BRANCH  16  22
ATOM     22  N   LIG    1       -0.707  -4.373  -0.175  0.00  0.00    -0.680 N 
ATOM     23  H   LIG    1       -1.627  -4.679  -0.160  0.00  0.00    +0.420 HD
BRANCH  22  24
ATOM     24  C   LIG    1        0.387  -5.343  -0.267  0.00  0.00    +0.200 C 
ATOM     25  C   LIG    1        0.284  -6.424  -1.346  0.00  0.00    +0.020 C 
ATOM     26  C   LIG    1        0.082  -6.790   0.127  0.00  0.00    +0.030 C 
ENDBRANCH  22  24
ENDBRANCH  16  22
ENDBRANCH  10  13
BRANCH   1  28
ATOM     27  C   LIG    1        2.220   7.736  -0.447  0.00  0.00    +0.250 C 
ATOM     28  O   LIG    1        2.930   6.923   0.490  0.00  0.00    -0.320 OA
ENDBRANCH   1  28
TORSDOF 5
