REMARK  Name = ZINCtV000002ILki.0
REMARK                            x       y       z     vdW  Elec       q    Type
REMARK                         _______ _______ _______ _____ _____    ______ ____
ROOT
ATOM      1  C   LIG    1        5.450   3.605  -0.270  0.00  0.00    +0.100 A 
ATOM      2  C   LIG    1        4.694   2.476  -0.155  0.00  0.00    -0.130 A 
ATOM      3  C   LIG    1        5.471   1.253  -0.130  0.00  0.00    -0.070 A 
ATOM      4  C   LIG    1        6.791   1.462  -0.220  0.00  0.00    -0.230 A 
ATOM      5  C   LIG    1        7.835   0.361  -0.219  0.00  0.00    +0.120 C 
ATOM      6  C   LIG    1        7.195  -0.926   0.309  0.00  0.00    +0.020 C 
ATOM      7  C   LIG    1        5.885  -1.175  -0.445  0.00  0.00    +0.020 C 
ATOM      8  C   LIG    1        4.851  -0.133  -0.012  0.00  0.00    +0.080 C 
ATOM      9  S   LIG    1        7.150   3.177  -0.341  0.00  0.00    +0.250 S 
ENDROOT
BRANCH   2  10
ATOM     10  C   LIG    1        3.224   2.497  -0.069  0.00  0.00    +0.370 A 
ATOM     11  N   LIG    1        2.473   3.562  -0.232  0.00  0.00    -0.520 NA
ATOM     12  C   LIG    1        1.167   3.225  -0.086  0.00  0.00    +0.060 A 
ATOM     13  C   LIG    1       -0.025   3.953  -0.156  0.00  0.00    +0.060 A 
ATOM     14  C   LIG    1       -1.228   3.315   0.048  0.00  0.00    +0.010 A 
ATOM     15  C   LIG    1       -1.268   1.954   0.311  0.00  0.00    +0.030 A 
ATOM     16  C   LIG    1       -0.101   1.221   0.384  0.00  0.00    +0.010 A 
ATOM     17  C   LIG    1        1.121   1.847   0.187  0.00  0.00    +0.050 A 
ATOM     18  N   LIG    1        2.433   1.409   0.192  0.00  0.00    -0.600 N 
ATOM     19  H   LIG    1        2.737   0.501   0.351  0.00  0.00    +0.420 HD
ENDBRANCH   2  10
BRANCH   1  21
ATOM     20  C   LIG    1        5.779   5.934  -0.561  0.00  0.00    +0.550 C 
ATOM     21  N   LIG    1        4.949   4.900  -0.322  0.00  0.00    -0.620 N 
ATOM     22  H   LIG    1        4.003   5.059  -0.185  0.00  0.00    +0.430 HD
ATOM     23  O   LIG    1        6.966   5.734  -0.733  0.00  0.00    -0.500 OA
BRANCH  20  29
ATOM     24  C   LIG    1        6.520  10.828  -1.197  0.00  0.00    +0.090 C 
ATOM     25  C   LIG    1        5.598   9.668  -0.921  0.00  0.00    -0.100 A 
ATOM     26  C   LIG    1        4.249   9.893  -0.717  0.00  0.00    +0.050 A 
ATOM     27  C   LIG    1        3.395   8.834  -0.463  0.00  0.00    +0.000 A 
ATOM     28  C   LIG    1        3.885   7.546  -0.411  0.00  0.00    +0.050 A 
ATOM     29  C   LIG    1        5.247   7.312  -0.616  0.00  0.00    -0.140 A 
ATOM     30  C   LIG    1        6.103   8.385  -0.867  0.00  0.00    -0.010 A 
ATOM     31  C   LIG    1        7.574   8.143  -1.084  0.00  0.00    +0.120 C 
ENDBRANCH  20  29
ENDBRANCH   1  21
TORSDOF 3
