REMARK  Name = ZINCqH0000004yUQ.0
REMARK                            x       y       z     vdW  Elec       q    Type
REMARK                         _______ _______ _______ _____ _____    ______ ____
ROOT
ATOM      1  C   LIG    1       -4.870   3.833  -6.613  0.00  0.00    +0.030 A 
ATOM      2  C   LIG    1       -4.458   3.532  -7.872  0.00  0.00    -0.070 A 
ATOM      3  C   LIG    1       -3.256   2.821  -8.066  0.00  0.00    +0.510 A 
ATOM      4  O   LIG    1       -2.497   2.426  -7.032  0.00  0.00    -0.270 OA
ATOM      5  C   LIG    1       -2.849   2.692  -5.756  0.00  0.00    +0.160 A 
ATOM      6  C   LIG    1       -2.051   2.281  -4.700  0.00  0.00    +0.040 A 
ATOM      7  C   LIG    1       -2.435   2.559  -3.398  0.00  0.00    +0.140 A 
ATOM      8  C   LIG    1       -3.612   3.260  -3.141  0.00  0.00    +0.010 A 
ATOM      9  C   LIG    1       -4.407   3.676  -4.169  0.00  0.00    +0.110 A 
ATOM     10  O   LIG    1       -2.898   2.558  -9.200  0.00  0.00    -0.460 OA
ATOM     11  C   LIG    1       -4.037   3.398  -5.490  0.00  0.00    -0.140 A 
ENDROOT
BRANCH   1  13
ATOM     12  C   LIG    1       -7.289   3.604  -6.117  0.00  0.00    +0.040 C 
ATOM     13  C   LIG    1       -6.151   4.592  -6.379  0.00  0.00    +0.080 C 
ENDBRANCH   1  13
BRANCH   7  14
ATOM     14  O   LIG    1       -1.655   2.152  -2.364  0.00  0.00    -0.220 OA
BRANCH  14  15
ATOM     15  C   LIG    1       -2.056   1.067  -1.651  0.00  0.00    +0.340 A 
ATOM     16  C   LIG    1       -1.356   0.471  -0.653  0.00  0.00    -0.060 A 
ATOM     17  N   LIG    1       -2.113  -0.577  -0.199  0.00  0.00    -0.330 N 
ATOM     18  C   LIG    1       -1.910  -1.505   0.780  0.00  0.00    +0.230 A 
ATOM     19  C   LIG    1       -2.837  -2.454   1.030  0.00  0.00    +0.050 A 
ATOM     20  C   LIG    1       -4.025  -2.498   0.284  0.00  0.00    +0.100 A 
ATOM     21  C   LIG    1       -4.240  -1.578  -0.696  0.00  0.00    +0.080 A 
ATOM     22  C   LIG    1       -3.263  -0.594  -0.945  0.00  0.00    +0.300 A 
ATOM     23  N   LIG    1       -3.206   0.404  -1.816  0.00  0.00    -0.500 NA
BRANCH  16  24
ATOM     24  N   LIG    1       -0.024   0.881  -0.144  0.00  0.00    +0.050 N 
ATOM     25  O   LIG    1        0.059   1.692   0.761  0.00  0.00    -0.110 OA
ATOM     26  O   LIG    1        0.987   0.412  -0.636  0.00  0.00    -0.110 OA
ENDBRANCH  16  24
ENDBRANCH  14  15
ENDBRANCH   7  14
TORSDOF 4
