REMARK  Name = ZINCrg00001JduWe.0
REMARK                            x       y       z     vdW  Elec       q    Type
REMARK                         _______ _______ _______ _____ _____    ______ ____
ROOT
ATOM      1  C   LIG    1      -11.344   2.655  -3.642  0.00  0.00    +0.530 C 
ATOM      2  N   LIG    1      -10.309   3.245  -3.011  0.00  0.00    -0.620 N 
ATOM      3  C   LIG    1       -9.414   4.261  -3.593  0.00  0.00    +0.270 C 
ATOM      4  C   LIG    1       -8.104   4.152  -2.772  0.00  0.00    +0.060 C 
ATOM      5  C   LIG    1       -8.652   3.864  -1.349  0.00  0.00    +0.270 C 
ATOM      6  C   LIG    1       -9.889   2.983  -1.627  0.00  0.00    +0.270 C 
ATOM      7  O   LIG    1      -12.017   1.830  -3.062  0.00  0.00    -0.520 OA
ENDROOT
BRANCH   5   8
ATOM      8  N   LIG    1       -7.664   3.134  -0.551  0.00  0.00    -0.280 N 
ATOM      9  C   LIG    1       -6.715   2.299  -1.034  0.00  0.00    +0.170 A 
ATOM     10  C   LIG    1       -6.030   1.844   0.041  0.00  0.00    -0.040 A 
ATOM     11  N   LIG    1       -6.581   2.422   1.114  0.00  0.00    -0.250 NA
ATOM     12  N   LIG    1       -7.546   3.181   0.730  0.00  0.00    -0.070 NA
BRANCH  10  13
ATOM     13  C   LIG    1       -4.872   0.881   0.030  0.00  0.00    +0.390 C 
BRANCH  13  14
ATOM     14  N   LIG    1       -3.613   1.630   0.028  0.00  0.00    -0.720 N 
ATOM     15  H   LIG    1       -3.626   2.600   0.033  0.00  0.00    +0.400 HD
ATOM     16  C   LIG    1       -2.437   0.972   0.019  0.00  0.00    +0.550 C 
ATOM     17  O   LIG    1       -2.421  -0.244   0.012  0.00  0.00    -0.540 OA
BRANCH  16  18
ATOM     18  C   LIG    1       -1.173   1.725   0.017  0.00  0.00    -0.090 C 
ATOM     19  C   LIG    1       -0.013   1.076   0.008  0.00  0.00    +0.150 C 
ENDBRANCH  16  18
ENDBRANCH  13  14
ENDBRANCH  10  13
ENDBRANCH   5   8
BRANCH   1  20
ATOM     20  C   LIG    1      -11.664   3.022  -5.069  0.00  0.00    +0.130 C 
BRANCH  20  25
ATOM     21  C   LIG    1      -15.231   1.991  -5.798  0.00  0.00    +0.010 A 
ATOM     22  C   LIG    1      -15.037   0.749  -6.403  0.00  0.00    +0.040 A 
ATOM     23  C   LIG    1      -13.758   0.258  -6.569  0.00  0.00    +0.010 A 
ATOM     24  C   LIG    1      -12.670   0.997  -6.143  0.00  0.00    +0.030 A 
ATOM     25  C   LIG    1      -12.855   2.227  -5.536  0.00  0.00    -0.070 A 
ATOM     26  C   LIG    1      -14.129   2.729  -5.364  0.00  0.00    +0.040 A 
BRANCH  21  28
ATOM     27  C   LIG    1      -17.641   2.930  -5.479  0.00  0.00    +0.060 C 
ATOM     28  C   LIG    1      -16.555   2.507  -5.623  0.00  0.00    -0.150 C 
ENDBRANCH  21  28
ENDBRANCH  20  25
ENDBRANCH   1  20
TORSDOF 7
