REMARK  Name = ZINCvU00000009IK.0
REMARK                            x       y       z     vdW  Elec       q    Type
REMARK                         _______ _______ _______ _____ _____    ______ ____
ROOT
ATOM      1  N   LIG    1        4.864   4.275   0.080  0.00  0.00    -0.510 N 
ATOM      2  C   LIG    1        3.683   3.634  -0.015  0.00  0.00    +0.560 C 
ATOM      3  O   LIG    1        2.651   4.271  -0.104  0.00  0.00    -0.440 OA
ENDROOT
BRANCH   2   4
ATOM      4  C   LIG    1        3.641   2.156  -0.012  0.00  0.00    -0.050 A 
ATOM      5  C   LIG    1        4.217   1.422   1.013  0.00  0.00    +0.010 A 
ATOM      6  C   LIG    1        4.154   0.017   0.976  0.00  0.00    +0.240 A 
ATOM      7  N   LIG    1        3.563  -0.634  -0.007  0.00  0.00    -0.450 NA
ATOM      8  C   LIG    1        2.983  -0.006  -1.031  0.00  0.00    +0.140 A 
ATOM      9  C   LIG    1        2.358  -0.728  -2.065  0.00  0.00    +0.050 A 
ATOM     10  C   LIG    1        1.775  -0.059  -3.098  0.00  0.00    +0.050 A 
ATOM     11  C   LIG    1        1.785   1.332  -3.151  0.00  0.00    +0.030 A 
ATOM     12  C   LIG    1        2.381   2.064  -2.166  0.00  0.00    +0.040 A 
ATOM     13  C   LIG    1        2.990   1.410  -1.090  0.00  0.00    -0.070 A 
BRANCH   6  14
ATOM     14  C   LIG    1        4.771  -0.753   2.072  0.00  0.00    -0.170 A 
ATOM     15  C   LIG    1        4.782  -2.100   2.169  0.00  0.00    +0.070 A 
ATOM     16  C   LIG    1        5.425  -2.592   3.283  0.00  0.00    +0.010 A 
ATOM     17  C   LIG    1        5.930  -1.663   4.103  0.00  0.00    -0.020 A 
ATOM     18  S   LIG    1        5.601  -0.060   3.459  0.00  0.00    +0.130 S 
ENDBRANCH   6  14
ENDBRANCH   2   4
BRANCH   1  19
ATOM     19  C   LIG    1        4.896   5.658   0.192  0.00  0.00    +0.280 A 
ATOM     20  N   LIG    1        3.857   6.430   0.216  0.00  0.00    -0.430 NA
ATOM     21  C   LIG    1        4.110   7.738   0.330  0.00  0.00    +0.050 A 
ATOM     22  C   LIG    1        5.419   8.061   0.404  0.00  0.00    -0.020 A 
ATOM     23  S   LIG    1        6.355   6.632   0.332  0.00  0.00    +0.200 S 
BRANCH  21  24
ATOM     24  C   LIG    1        3.043   8.749   0.372  0.00  0.00    +0.550 C 
ATOM     25  O   LIG    1        3.325   9.926   0.477  0.00  0.00    -0.500 OA
BRANCH  24  26
ATOM     26  O   LIG    1        1.752   8.369   0.294  0.00  0.00    -0.330 OA
BRANCH  26  27
ATOM     27  C   LIG    1        0.752   9.421   0.342  0.00  0.00    +0.200 C 
ATOM     28  C   LIG    1       -0.644   8.802   0.241  0.00  0.00    +0.070 C 
ENDBRANCH  26  27
ENDBRANCH  24  26
ENDBRANCH  21  24
ENDBRANCH   1  19
BRANCH   1  29
ATOM     29  C   LIG    1        6.115   3.512   0.064  0.00  0.00    +0.340 C 
BRANCH  29  31
ATOM     30  C   LIG    1        7.880   3.877  -1.583  0.00  0.00    +0.060 C 
ATOM     31  C   LIG    1        6.659   3.468  -1.341  0.00  0.00    -0.070 C 
ENDBRANCH  29  31
ENDBRANCH   1  29
TORSDOF 8
