REMARK  Name = ZINCbw0000000Hn1.0
REMARK                            x       y       z     vdW  Elec       q    Type
REMARK                         _______ _______ _______ _____ _____    ______ ____
ROOT
ATOM      1  F   LIG    1        2.346   1.938  -0.009  0.00  0.00    -0.120 F 
ATOM      2  C   LIG    1        1.167   2.596   0.005  0.00  0.00    +0.130 A 
ATOM      3  C   LIG    1        1.146   3.980   0.012  0.00  0.00    +0.000 A 
ATOM      4  C   LIG    1       -0.062   4.653   0.027  0.00  0.00    +0.090 A 
ATOM      5  C   LIG    1       -1.248   3.945   0.034  0.00  0.00    -0.090 A 
ATOM      6  C   LIG    1       -1.230   2.562   0.022  0.00  0.00    +0.100 A 
ATOM      7  C   LIG    1       -0.024   1.887   0.012  0.00  0.00    -0.130 A 
ATOM      8 BR   LIG    1        0.002  -0.004   0.002  0.00  0.00    -0.020 Br
ENDROOT
BRANCH   5   9
ATOM      9  C   LIG    1       -2.564   4.680   0.050  0.00  0.00    +0.170 C 
ATOM     10  C   LIG    1       -3.342   4.776  -1.263  0.00  0.00    +0.210 C 
ATOM     11  O   LIG    1       -3.752   3.924  -0.192  0.00  0.00    -0.340 OA
ENDBRANCH   5   9
TORSDOF 1
