REMARK  Name = ZINCAx0000000dpL.0
REMARK                            x       y       z     vdW  Elec       q    Type
REMARK                         _______ _______ _______ _____ _____    ______ ____
ROOT
ATOM      1  C   LIG    1       -1.783   4.337   0.658  0.00  0.00    +0.350 C 
ATOM      2  C   LIG    1       -1.316   5.749   0.923  0.00  0.00    -0.220 C 
ATOM      3  C   LIG    1       -0.201   5.655   1.684  0.00  0.00    +0.100 C 
ATOM      4  C   LIG    1        0.093   4.230   1.941  0.00  0.00    +0.520 C 
ATOM      5  O   LIG    1        1.029   3.819   2.598  0.00  0.00    -0.510 OA
ATOM      6  N   LIG    1       -0.827   3.455   1.339  0.00  0.00    -0.590 N 
ENDROOT
BRANCH   1  11
ATOM      7  C   LIG    1       -2.969   3.628  -2.860  0.00  0.00    +0.130 A 
ATOM      8  C   LIG    1       -1.765   3.550  -3.544  0.00  0.00    -0.070 A 
ATOM      9  C   LIG    1       -0.574   3.726  -2.867  0.00  0.00    +0.050 A 
ATOM     10  C   LIG    1       -0.580   3.980  -1.508  0.00  0.00    +0.000 A 
ATOM     11  C   LIG    1       -1.779   4.059  -0.824  0.00  0.00    -0.060 A 
ATOM     12  C   LIG    1       -2.973   3.879  -1.495  0.00  0.00    +0.000 A 
BRANCH   7  14
ATOM     13  C   LIG    1       -4.061   3.196  -4.926  0.00  0.00    +0.250 C 
ATOM     14  O   LIG    1       -4.142   3.455  -3.523  0.00  0.00    -0.320 OA
ENDBRANCH   7  14
ENDBRANCH   1  11
BRANCH   3  15
ATOM     15  O   LIG    1        0.527   6.701   2.140  0.00  0.00    -0.430 OA
ATOM     16  H   LIG    1        1.294   6.444   2.670  0.00  0.00    +0.410 HD
ENDBRANCH   3  15
BRANCH   2  17
ATOM     17  C   LIG    1       -1.950   6.983   0.449  0.00  0.00    +0.480 C 
ATOM     18  O   LIG    1       -1.370   7.698  -0.347  0.00  0.00    -0.420 OA
BRANCH  17  19
ATOM     19  C   LIG    1       -3.292   7.358   0.936  0.00  0.00    -0.160 A 
ATOM     20  C   LIG    1       -3.914   6.598   1.931  0.00  0.00    +0.080 A 
ATOM     21  C   LIG    1       -5.164   6.954   2.387  0.00  0.00    +0.020 A 
ATOM     22  C   LIG    1       -5.817   8.059   1.853  0.00  0.00    +0.090 A 
ATOM     23  O   LIG    1       -7.054   8.385   2.312  0.00  0.00    -0.300 OA
ATOM     24  C   LIG    1       -7.518   9.709   2.027  0.00  0.00    +0.230 C 
ATOM     25  C   LIG    1       -7.239  10.009   0.548  0.00  0.00    +0.230 C 
ATOM     26  O   LIG    1       -5.828   9.906   0.329  0.00  0.00    -0.300 OA
ATOM     27  C   LIG    1       -5.204   8.818   0.858  0.00  0.00    +0.040 A 
ATOM     28  C   LIG    1       -3.947   8.470   0.400  0.00  0.00    +0.100 A 
ENDBRANCH  17  19
ENDBRANCH   2  17
BRANCH   6  29
ATOM     29  C   LIG    1       -0.871   1.991   1.363  0.00  0.00    +0.320 C 
BRANCH  29  30
ATOM     30  C   LIG    1       -0.077   1.437   0.178  0.00  0.00    +0.020 C 
BRANCH  30  31
ATOM     31  C   LIG    1       -0.122  -0.092   0.203  0.00  0.00    +0.180 C 
BRANCH  31  32
ATOM     32  N   LIG    1        0.640  -0.623  -0.934  0.00  0.00    -0.530 NA
ATOM     33  C   LIG    1       -0.008  -0.282  -2.209  0.00  0.00    +0.150 C 
ATOM     34  C   LIG    1        0.848  -0.802  -3.366  0.00  0.00    +0.220 C 
ATOM     35  O   LIG    1        1.038  -2.211  -3.216  0.00  0.00    -0.390 OA
ATOM     36  C   LIG    1        1.668  -2.580  -1.986  0.00  0.00    +0.220 C 
ATOM     37  C   LIG    1        0.820  -2.078  -0.814  0.00  0.00    +0.150 C 
ENDBRANCH  31  32
ENDBRANCH  30  31
ENDBRANCH  29  30
ENDBRANCH   6  29
TORSDOF 9
