REMARK  Name = ZINCbu0000000GEk.0
REMARK                            x       y       z     vdW  Elec       q    Type
REMARK                         _______ _______ _______ _____ _____    ______ ____
ROOT
ATOM      1  C   LIG    1       -1.239   3.136   0.030  0.00  0.00    -0.170 A 
ATOM      2  C   LIG    1       -1.221   1.752   0.017  0.00  0.00    +0.110 A 
ATOM      3  C   LIG    1       -0.013   1.076   0.008  0.00  0.00    +0.030 A 
ATOM      4  C   LIG    1        1.175   1.783   0.000  0.00  0.00    +0.110 A 
ATOM      5  C   LIG    1        1.157   3.165   0.008  0.00  0.00    +0.060 A 
ATOM      6  F   LIG    1       -2.382   1.061   0.019  0.00  0.00    -0.130 F 
ATOM      7  C   LIG    1       -0.050   3.842   0.022  0.00  0.00    +0.010 A 
ATOM      8 CL   LIG    1       -0.071   5.578   0.032  0.00  0.00    -0.020 Cl
ENDROOT
BRANCH   1  10
ATOM      9  C   LIG    1       -3.168   3.789   1.445  0.00  0.00    +0.110 C 
ATOM     10  C   LIG    1       -2.553   3.873   0.046  0.00  0.00    +0.240 C 
BRANCH  10  11
ATOM     11  N   LIG    1       -3.469   3.263  -0.928  0.00  0.00    -0.640 N 
ATOM     12  H   LIG    1       -4.349   3.756  -0.917  0.00  0.00    +0.440 HD
ATOM     13  H   LIG    1       -3.622   2.296  -0.685  0.00  0.00    +0.430 HD
ATOM     14  H   LIG    1       -3.063   3.318  -1.851  0.00  0.00    +0.440 HD
ENDBRANCH  10  11
ENDBRANCH   1  10
TORSDOF 2
