REMARK  Name = ZINCvU0000000Aqs.0
REMARK                            x       y       z     vdW  Elec       q    Type
REMARK                         _______ _______ _______ _____ _____    ______ ____
ROOT
ATOM      1  C   LIG    1        1.230   3.165   0.183  0.00  0.00    -0.230 A 
ATOM      2  C   LIG    1        0.031   3.858   0.001  0.00  0.00    +0.100 A 
ATOM      3  C   LIG    1       -1.165   3.173  -0.003  0.00  0.00    -0.050 A 
ATOM      4  C   LIG    1       -1.185   1.798   0.166  0.00  0.00    +0.100 A 
ATOM      5  C   LIG    1       -0.009   1.099   0.352  0.00  0.00    -0.080 A 
ATOM      6  C   LIG    1        1.206   1.772   0.359  0.00  0.00    +0.280 A 
ENDROOT
BRANCH   1   9
ATOM      7  N   LIG    1        2.525   5.238   0.137  0.00  0.00    -0.670 N 
ATOM      8  H   LIG    1        1.691   5.732   0.172  0.00  0.00    +0.410 HD
ATOM      9  C   LIG    1        2.513   3.891   0.189  0.00  0.00    +0.570 C 
ATOM     10  O   LIG    1        3.560   3.275   0.240  0.00  0.00    -0.530 OA
BRANCH   7  14
ATOM     11  C   LIG    1        6.143   7.278  -0.171  0.00  0.00    -0.090 A 
ATOM     12  C   LIG    1        5.995   6.042  -0.773  0.00  0.00    +0.020 A 
ATOM     13  C   LIG    1        4.796   5.363  -0.673  0.00  0.00    +0.010 A 
ATOM     14  C   LIG    1        3.740   5.923   0.034  0.00  0.00    +0.140 A 
ATOM     15  C   LIG    1        3.890   7.167   0.632  0.00  0.00    -0.010 A 
ATOM     16  C   LIG    1        5.093   7.838   0.532  0.00  0.00    +0.030 A 
BRANCH  11  18
ATOM     17  C   LIG    1        7.430   8.909  -1.526  0.00  0.00    +0.030 C 
ATOM     18  C   LIG    1        7.452   8.016  -0.283  0.00  0.00    +0.050 C 
ENDBRANCH  11  18
ENDBRANCH   7  14
ENDBRANCH   1   9
BRANCH   6  19
ATOM     19  N   LIG    1        2.391   1.071   0.540  0.00  0.00    -0.730 N 
ATOM     20  H   LIG    1        3.243   1.528   0.459  0.00  0.00    +0.420 HD
BRANCH  19  21
ATOM     21  C   LIG    1        2.355  -0.360   0.853  0.00  0.00    +0.440 C 
BRANCH  21  22
ATOM     22  C   LIG    1        3.763  -0.878   0.999  0.00  0.00    +0.150 A 
ATOM     23  N   LIG    1        4.461  -0.911   2.099  0.00  0.00    -0.250 NA
ATOM     24  N   LIG    1        5.618  -1.419   1.859  0.00  0.00    -0.270 NA
ATOM     25  C   LIG    1        5.703  -1.721   0.585  0.00  0.00    +0.220 A 
ATOM     26  O   LIG    1        4.528  -1.383   0.016  0.00  0.00    -0.210 OA
BRANCH  25  27
ATOM     27  C   LIG    1        6.869  -2.319  -0.100  0.00  0.00    -0.010 A 
ATOM     28  C   LIG    1        6.814  -2.592  -1.467  0.00  0.00    +0.060 A 
ATOM     29  C   LIG    1        7.907  -3.146  -2.101  0.00  0.00    +0.060 A 
ATOM     30  C   LIG    1        9.052  -3.441  -1.381  0.00  0.00    -0.070 A 
ATOM     31  C   LIG    1        9.111  -3.177  -0.024  0.00  0.00    +0.060 A 
ATOM     32 BR   LIG    1       10.544  -4.206  -2.257  0.00  0.00    -0.030 Br
ATOM     33  C   LIG    1        8.026  -2.618   0.621  0.00  0.00    +0.090 A 
ENDBRANCH  25  27
ENDBRANCH  21  22
ENDBRANCH  19  21
ENDBRANCH   6  19
TORSDOF 7
