REMARK  Name = ZINCqH0000050ito.0
REMARK                            x       y       z     vdW  Elec       q    Type
REMARK                         _______ _______ _______ _____ _____    ______ ____
ROOT
ATOM      1  N   LIG    1       -4.122   8.741   0.068  0.00  0.00    -0.390 N 
ATOM      2  C   LIG    1       -5.080   7.766   0.069  0.00  0.00    +0.020 A 
ATOM      3  C   LIG    1       -4.484   6.562   0.060  0.00  0.00    +0.000 A 
ATOM      4  C   LIG    1       -3.037   6.816   0.053  0.00  0.00    -0.270 A 
ATOM      5  C   LIG    1       -6.568   8.003   0.077  0.00  0.00    +0.130 C 
ATOM      6  C   LIG    1       -2.893   8.191   0.065  0.00  0.00    +0.130 A 
ATOM      7  C   LIG    1       -1.587   8.943   0.069  0.00  0.00    +0.150 C 
ENDROOT
BRANCH   1  12
ATOM      8  C   LIG    1       -5.175  14.318   0.098  0.00  0.00    +0.100 C 
ATOM      9  C   LIG    1       -4.895  12.837   0.090  0.00  0.00    -0.070 A 
ATOM     10  C   LIG    1       -5.259  12.060   1.174  0.00  0.00    +0.020 A 
ATOM     11  C   LIG    1       -5.005  10.703   1.170  0.00  0.00    +0.030 A 
ATOM     12  C   LIG    1       -4.382  10.118   0.075  0.00  0.00    +0.100 A 
ATOM     13  C   LIG    1       -4.013  10.901  -1.010  0.00  0.00    +0.030 A 
ATOM     14  C   LIG    1       -4.276  12.257  -1.002  0.00  0.00    +0.020 A 
ENDBRANCH   1  12
BRANCH   4  15
ATOM     15  C   LIG    1       -1.966   5.817   0.042  0.00  0.00    +0.430 C 
ATOM     16  O   LIG    1       -0.805   6.171   0.038  0.00  0.00    -0.450 OA
BRANCH  15  17
ATOM     17  C   LIG    1       -2.305   4.349   0.037  0.00  0.00    +0.250 C 
BRANCH  17  18
ATOM     18  O   LIG    1       -1.081   3.569   0.026  0.00  0.00    -0.340 OA
BRANCH  18  19
ATOM     19  C   LIG    1       -1.210   2.226   0.020  0.00  0.00    +0.540 C 
ATOM     20  O   LIG    1       -2.316   1.721   0.023  0.00  0.00    -0.500 OA
BRANCH  19  21
ATOM     21  C   LIG    1       -0.017   1.376   0.010  0.00  0.00    -0.050 A 
ATOM     22  C   LIG    1        0.002  -0.004   0.002  0.00  0.00    +0.060 A 
ATOM     23  C   LIG    1        1.345  -0.394  -0.013  0.00  0.00    -0.070 A 
ATOM     24  C   LIG    1        2.103   0.729  -0.014  0.00  0.00    +0.200 A 
ATOM     25  N   LIG    1        1.291   1.807  -0.001  0.00  0.00    -0.420 N 
ATOM     26  C   LIG    1        1.729   3.205   0.002  0.00  0.00    +0.330 C 
ENDBRANCH  19  21
ENDBRANCH  18  19
ENDBRANCH  17  18
ENDBRANCH  15  17
ENDBRANCH   4  15
TORSDOF 6
