REMARK  Name = ZINCrD00000F5LCy.0
REMARK                            x       y       z     vdW  Elec       q    Type
REMARK                         _______ _______ _______ _____ _____    ______ ____
ROOT
ATOM      1  N   LIG    1        6.953  -0.274  -1.198  0.00  0.00    -0.540 NA
ATOM      2  C   LIG    1        6.328  -0.657  -2.472  0.00  0.00    +0.200 C 
ATOM      3  C   LIG    1        7.152  -0.091  -3.631  0.00  0.00    +0.210 C 
ATOM      4  N   LIG    1        8.527  -0.602  -3.548  0.00  0.00    -0.470 N 
ATOM      5  C   LIG    1        9.151  -0.219  -2.273  0.00  0.00    +0.220 C 
ATOM      6  C   LIG    1        8.328  -0.785  -1.114  0.00  0.00    +0.190 C 
ENDROOT
BRANCH   4   7
ATOM      7  C   LIG    1        9.285  -0.167  -4.622  0.00  0.00    +0.380 A 
ATOM      8  C   LIG    1        8.875  -0.430  -5.931  0.00  0.00    -0.130 A 
ATOM      9  C   LIG    1        9.659   0.028  -6.972  0.00  0.00    +0.360 A 
ATOM     10  N   LIG    1       10.774   0.690  -6.701  0.00  0.00    -0.570 NA
ATOM     11  C   LIG    1       11.142   0.921  -5.449  0.00  0.00    +0.520 A 
ATOM     12  N   LIG    1       10.416   0.503  -4.423  0.00  0.00    -0.570 NA
BRANCH  11  13
ATOM     13  N   LIG    1       12.315   1.615  -5.207  0.00  0.00    -0.460 N 
ATOM     14  C   LIG    1       12.065   2.793  -4.367  0.00  0.00    +0.200 C 
ATOM     15  C   LIG    1       13.397   3.452  -4.001  0.00  0.00    +0.030 C 
ATOM     16  C   LIG    1       14.127   3.861  -5.282  0.00  0.00    +0.000 C 
ATOM     17  C   LIG    1       14.332   2.625  -6.161  0.00  0.00    +0.030 C 
ATOM     18  C   LIG    1       12.973   1.990  -6.465  0.00  0.00    +0.210 C 
ENDBRANCH  11  13
ENDBRANCH   4   7
BRANCH   1  19
ATOM     19  C   LIG    1        6.149  -0.736  -0.058  0.00  0.00    +0.210 C 
BRANCH  19  21
ATOM     20  C   LIG    1        3.695  -0.685  -0.036  0.00  0.00    +0.000 C 
ATOM     21  C   LIG    1        4.832  -0.004  -0.043  0.00  0.00    -0.010 C 
BRANCH  20  25
ATOM     22  C   LIG    1       -0.017   1.379   0.010  0.00  0.00    +0.000 A 
ATOM     23  C   LIG    1        1.168   2.093   0.002  0.00  0.00    +0.000 A 
ATOM     24  C   LIG    1        2.377   1.429  -0.013  0.00  0.00    +0.010 A 
ATOM     25  C   LIG    1        2.403   0.034  -0.020  0.00  0.00    -0.060 A 
ATOM     26  C   LIG    1        1.204  -0.681  -0.013  0.00  0.00    +0.010 A 
ATOM     27  C   LIG    1        0.002  -0.004   0.002  0.00  0.00    +0.000 A 
ENDBRANCH  20  25
ENDBRANCH  19  21
ENDBRANCH   1  19
TORSDOF 5
