REMARK  Name = ZINCrD000000CEi2.0
REMARK                            x       y       z     vdW  Elec       q    Type
REMARK                         _______ _______ _______ _____ _____    ______ ____
ROOT
ATOM      1  C   LIG    1       -5.493  -0.099   3.334  0.00  0.00    -0.110 A 
ATOM      2  C   LIG    1       -5.873   0.540   4.516  0.00  0.00    +0.010 A 
ATOM      3  C   LIG    1       -5.357   1.782   4.825  0.00  0.00    +0.040 A 
ATOM      4  C   LIG    1       -4.460   2.395   3.970  0.00  0.00    +0.000 A 
ATOM      5  C   LIG    1       -4.079   1.769   2.789  0.00  0.00    +0.170 A 
ATOM      6  C   LIG    1       -4.592   0.521   2.470  0.00  0.00    +0.080 A 
ENDROOT
BRANCH   5   7
ATOM      7  N   LIG    1       -3.174   2.396   1.925  0.00  0.00    -0.680 N 
ATOM      8  H   LIG    1       -2.526   3.027   2.276  0.00  0.00    +0.410 HD
ATOM      9  C   LIG    1       -3.202   2.122   0.606  0.00  0.00    +0.720 C 
ATOM     10  N   LIG    1       -2.262   2.640  -0.210  0.00  0.00    -0.630 N 
ATOM     11  C   LIG    1       -1.092   3.428   0.219  0.00  0.00    +0.230 C 
ATOM     12  C   LIG    1       -0.054   3.247  -0.917  0.00  0.00    +0.040 C 
ATOM     13  C   LIG    1       -0.966   3.238  -2.173  0.00  0.00    +0.040 C 
ATOM     14  C   LIG    1       -2.234   2.512  -1.674  0.00  0.00    +0.240 C 
ATOM     15  O   LIG    1       -4.075   1.409   0.151  0.00  0.00    -0.560 OA
BRANCH  14  16
ATOM     16  C   LIG    1       -3.478   3.163  -2.280  0.00  0.00    -0.020 C 
ATOM     17  C   LIG    1       -3.395   3.130  -3.821  0.00  0.00    +0.020 C 
ATOM     18  C   LIG    1       -4.017   4.479  -4.263  0.00  0.00    +0.020 C 
ATOM     19  C   LIG    1       -3.505   5.463  -3.182  0.00  0.00    +0.000 C 
ATOM     20  C   LIG    1       -3.549   4.646  -1.875  0.00  0.00    +0.000 C 
ENDBRANCH  14  16
ENDBRANCH   5   7
BRANCH   1  22
ATOM     21  O   LIG    1       -5.358  -2.241   2.410  0.00  0.00    -0.530 OA
ATOM     22  C   LIG    1       -6.044  -1.430   3.001  0.00  0.00    +0.570 C 
ATOM     23  N   LIG    1       -7.307  -1.744   3.353  0.00  0.00    -0.610 N 
ATOM     24  C   LIG    1       -7.838  -3.100   3.138  0.00  0.00    +0.260 C 
ATOM     25  C   LIG    1       -8.463  -3.583   4.457  0.00  0.00    +0.220 C 
ATOM     26  O   LIG    1       -9.395  -2.603   4.921  0.00  0.00    -0.380 OA
ATOM     27  C   LIG    1       -8.807  -1.337   5.230  0.00  0.00    +0.220 C 
ATOM     28  C   LIG    1       -8.197  -0.740   3.956  0.00  0.00    +0.240 C 
ENDBRANCH   1  22
TORSDOF 3
