REMARK  Name = ZINCpe00000MIstX.0
REMARK                            x       y       z     vdW  Elec       q    Type
REMARK                         _______ _______ _______ _____ _____    ______ ____
ROOT
ATOM      1  C   LIG    1        3.449  -4.825   0.784  0.00  0.00    +0.140 C 
ATOM      2  C   LIG    1        4.837  -4.200   0.630  0.00  0.00    +0.060 C 
ATOM      3  C   LIG    1        4.740  -2.685   0.823  0.00  0.00    +0.030 C 
ATOM      4  C   LIG    1        3.821  -2.095  -0.258  0.00  0.00    +0.260 C 
ATOM      5  N   LIG    1        2.530  -2.793  -0.206  0.00  0.00    -0.600 N 
ATOM      6  C   LIG    1        1.379  -2.101  -0.088  0.00  0.00    +0.570 C 
ATOM      7  O   LIG    1        0.327  -2.692   0.052  0.00  0.00    -0.530 OA
ATOM      8  C   LIG    1        2.516  -4.260  -0.292  0.00  0.00    +0.270 C 
ENDROOT
BRANCH   6   9
ATOM      9  C   LIG    1        1.398  -0.624  -0.130  0.00  0.00    -0.090 A 
ATOM     10  C   LIG    1        2.265   0.042  -0.998  0.00  0.00    +0.000 A 
ATOM     11  C   LIG    1        2.279   1.421  -1.034  0.00  0.00    +0.050 A 
ATOM     12  C   LIG    1        1.437   2.148  -0.213  0.00  0.00    -0.060 A 
ATOM     13  C   LIG    1        0.571   1.494   0.654  0.00  0.00    +0.130 A 
ATOM     14  C   LIG    1        0.548   0.111   0.698  0.00  0.00    +0.040 A 
BRANCH  13  15
ATOM     15  O   LIG    1       -0.259   2.214   1.455  0.00  0.00    -0.300 OA
BRANCH  15  16
ATOM     16  C   LIG    1       -0.183   3.637   1.357  0.00  0.00    +0.210 C 
BRANCH  16  17
ATOM     17  C   LIG    1       -1.183   4.270   2.326  0.00  0.00    +0.190 C 
BRANCH  17  18
ATOM     18  O   LIG    1       -0.804   3.962   3.669  0.00  0.00    -0.390 OA
ATOM     19  C   LIG    1       -1.678   4.509   4.659  0.00  0.00    +0.200 C 
ENDBRANCH  17  18
ENDBRANCH  16  17
ENDBRANCH  15  16
ENDBRANCH  13  15
ENDBRANCH   6   9
BRANCH   1  20
ATOM     20  O   LIG    1        2.927  -4.516   2.078  0.00  0.00    -0.530 OA
ATOM     21  H   LIG    1        2.046  -4.880   2.244  0.00  0.00    +0.370 HD
ENDBRANCH   1  20
BRANCH   1  22
ATOM     22  C   LIG    1        3.552  -6.344   0.624  0.00  0.00    +0.030 C 
BRANCH  22  26
ATOM     23  C   LIG    1        5.351  -8.799   2.945  0.00  0.00    +0.280 C 
ATOM     24  N   LIG    1        4.554  -8.245   1.847  0.00  0.00    -0.740 N 
ATOM     25  H   LIG    1        4.159  -8.837   1.188  0.00  0.00    +0.400 HD
ATOM     26  C   LIG    1        4.371  -6.913   1.753  0.00  0.00    +0.510 C 
ATOM     27  O   LIG    1        4.865  -6.173   2.577  0.00  0.00    -0.510 OA
ENDBRANCH  22  26
ENDBRANCH   1  22
TORSDOF 8
