REMARK  Name = ZINCtV00001bB3vE.0
REMARK                            x       y       z     vdW  Elec       q    Type
REMARK                         _______ _______ _______ _____ _____    ______ ____
ROOT
ATOM      1  C   LIG    1        3.519   2.106  -0.019  0.00  0.00    +0.200 A 
ATOM      2  C   LIG    1        2.376   1.374  -0.007  0.00  0.00    -0.130 A 
ATOM      3  C   LIG    1        1.121   2.037   0.002  0.00  0.00    +0.280 A 
ATOM      4  C   LIG    1        1.136   3.517   0.010  0.00  0.00    -0.120 A 
ATOM      5  C   LIG    1       -0.045   4.252   0.026  0.00  0.00    +0.100 A 
ATOM      6  C   LIG    1        0.010   5.630   0.033  0.00  0.00    -0.110 A 
ATOM      7  C   LIG    1        1.234   6.280   0.025  0.00  0.00    +0.070 A 
ATOM      8  C   LIG    1        2.412   5.560   0.009  0.00  0.00    +0.010 A 
ATOM      9  C   LIG    1       -1.265   6.433   0.050  0.00  0.00    +0.100 C 
ATOM     10  C   LIG    1        2.376   4.173   0.002  0.00  0.00    +0.130 A 
ATOM     11  N   LIG    1       -0.016   1.360   0.009  0.00  0.00    -0.490 NA
ATOM     12  O   LIG    1        3.518   3.450  -0.013  0.00  0.00    -0.230 OA
ENDROOT
BRANCH  11  13
ATOM     13  C   LIG    1        0.002  -0.004   0.002  0.00  0.00    +0.100 A 
ATOM     14  C   LIG    1       -0.006  -0.701  -1.211  0.00  0.00    -0.100 A 
ATOM     15  C   LIG    1        0.019  -2.079  -1.210  0.00  0.00    +0.010 A 
ATOM     16  C   LIG    1        0.040  -2.774  -0.013  0.00  0.00    -0.100 A 
ATOM     17  C   LIG    1        0.042  -2.092   1.191  0.00  0.00    +0.010 A 
ATOM     18  C   LIG    1        0.061  -4.281  -0.021  0.00  0.00    +0.080 C 
ATOM     19  C   LIG    1       -0.035   0.054  -2.515  0.00  0.00    +0.090 C 
ATOM     20  C   LIG    1        0.023  -0.713   1.207  0.00  0.00    -0.100 A 
ATOM     21  C   LIG    1        0.026   0.027   2.520  0.00  0.00    +0.080 C 
ENDBRANCH  11  13
BRANCH   1  25
ATOM     22  C   LIG    1        7.246   0.071  -0.063  0.00  0.00    +0.150 A 
ATOM     23  C   LIG    1        7.215   1.460  -0.057  0.00  0.00    -0.020 A 
ATOM     24  C   LIG    1        6.009   2.124  -0.043  0.00  0.00    +0.100 A 
ATOM     25  C   LIG    1        4.814   1.399  -0.035  0.00  0.00    -0.110 A 
ATOM     26  C   LIG    1        4.849   0.002  -0.037  0.00  0.00    +0.090 A 
ATOM     27  C   LIG    1        6.061  -0.654  -0.056  0.00  0.00    -0.070 A 
BRANCH  22  29
ATOM     28  C   LIG    1        8.397  -2.008  -0.083  0.00  0.00    +0.240 C 
ATOM     29  O   LIG    1        8.438  -0.580  -0.077  0.00  0.00    -0.310 OA
ENDBRANCH  22  29
ENDBRANCH   1  25
TORSDOF 3
