REMARK  Name = ZINCpe000000YJtn.0
REMARK                            x       y       z     vdW  Elec       q    Type
REMARK                         _______ _______ _______ _____ _____    ______ ____
ROOT
ATOM      1  C   LIG    1        1.902   9.609   0.002  0.00  0.00    +0.280 C 
ENDROOT
BRANCH   1   2
ATOM      2  N   LIG    1        1.998   8.193   0.367  0.00  0.00    -0.730 N 
ATOM      3  H   LIG    1        2.769   7.870   0.859  0.00  0.00    +0.400 HD
ATOM      4  C   LIG    1        1.015   7.340   0.019  0.00  0.00    +0.520 C 
ATOM      5  O   LIG    1        0.051   7.744  -0.596  0.00  0.00    -0.500 OA
BRANCH   4   6
ATOM      6  C   LIG    1        1.113   5.883   0.394  0.00  0.00    +0.140 C 
ATOM      7  C   LIG    1        2.282   5.233  -0.358  0.00  0.00    +0.260 C 
ATOM      8  O   LIG    1        2.338   3.850   0.009  0.00  0.00    -0.300 OA
ATOM      9  C   LIG    1        1.160   3.168   0.009  0.00  0.00    +0.040 A 
ATOM     10  C   LIG    1        1.176   1.782   0.000  0.00  0.00    +0.030 A 
ATOM     11  C   LIG    1       -0.013   1.076   0.008  0.00  0.00    +0.030 A 
ATOM     12  C   LIG    1       -1.219   1.749   0.017  0.00  0.00    +0.030 A 
ATOM     13  C   LIG    1       -1.242   3.131   0.029  0.00  0.00    +0.030 A 
ATOM     14  C   LIG    1       -0.054   3.846   0.021  0.00  0.00    +0.050 A 
ATOM     15  O   LIG    1       -0.092   5.206   0.022  0.00  0.00    -0.280 OA
ENDBRANCH   4   6
ENDBRANCH   1   2
BRANCH   1  16
ATOM     16  C   LIG    1        3.139  10.352   0.513  0.00  0.00    +0.080 C 
BRANCH  16  20
ATOM     17  C   LIG    1        2.860  14.480  -0.551  0.00  0.00    -0.680 A 
ATOM     18  C   LIG    1        2.341  14.040   0.652  0.00  0.00    +0.130 A 
ATOM     19  C   LIG    1        2.432  12.704   0.997  0.00  0.00    +0.010 A 
ATOM     20  C   LIG    1        3.040  11.808   0.137  0.00  0.00    -0.030 A 
ATOM     21  C   LIG    1        3.563  12.249  -1.064  0.00  0.00    +0.010 A 
ATOM     22  C   LIG    1        3.469  13.584  -1.410  0.00  0.00    +0.130 A 
BRANCH  17  23
ATOM     23  S   LIG    1        2.744  16.182  -0.991  0.00  0.00    +2.700 S 
ATOM     24  O   LIG    1        1.650  16.712  -0.255  0.00  0.00    -0.960 OA
ATOM     25  O   LIG    1        2.827  16.237  -2.408  0.00  0.00    -0.960 OA
BRANCH  23  26
ATOM     26  N   LIG    1        4.103  16.931  -0.413  0.00  0.00    -1.250 NA
ATOM     27  H   LIG    1        4.538  16.597   0.387  0.00  0.00    +0.420 HD
ATOM     28  H   LIG    1        4.463  17.705  -0.874  0.00  0.00    +0.420 HD
ENDBRANCH  23  26
ENDBRANCH  17  23
ENDBRANCH  16  20
ENDBRANCH   1  16
TORSDOF 6
