REMARK  Name = ZINCpk00000y6xqN.2
REMARK                            x       y       z     vdW  Elec       q    Type
REMARK                         _______ _______ _______ _____ _____    ______ ____
ROOT
ATOM      1  N   LIG    1        3.646  -7.058  -2.779  0.00  0.00    -0.730 N 
ATOM      2  H   LIG    1        4.529  -6.785  -2.486  0.00  0.00    +0.400 HD
ATOM      3  C   LIG    1        2.558  -6.383  -2.358  0.00  0.00    +0.700 C 
ATOM      4  N   LIG    1        2.697  -5.327  -1.533  0.00  0.00    -0.740 N 
ATOM      5  H   LIG    1        3.581  -5.053  -1.240  0.00  0.00    +0.400 HD
ATOM      6  O   LIG    1        1.450  -6.726  -2.725  0.00  0.00    -0.590 OA
ENDROOT
BRANCH   1   7
ATOM      7  C   LIG    1        3.494  -8.206  -3.676  0.00  0.00    +0.290 C 
BRANCH   7  13
ATOM      8  C   LIG    1        7.655 -10.327  -2.127  0.00  0.00    +0.190 C 
ATOM      9  N   LIG    1        6.948  -9.719  -3.262  0.00  0.00    -0.550 NA
ATOM     10  C   LIG    1        7.726  -8.612  -3.835  0.00  0.00    +0.170 C 
ATOM     11  C   LIG    1        6.995  -8.059  -5.061  0.00  0.00    +0.180 C 
ATOM     12  N   LIG    1        5.653  -7.607  -4.665  0.00  0.00    -0.540 NA
ATOM     13  C   LIG    1        4.875  -8.714  -4.092  0.00  0.00    +0.140 C 
ATOM     14  C   LIG    1        4.947  -6.999  -5.801  0.00  0.00    +0.190 C 
ATOM     15  C   LIG    1        5.606  -9.268  -2.867  0.00  0.00    +0.180 C 
ENDBRANCH   7  13
ENDBRANCH   1   7
BRANCH   4  16
ATOM     16  C   LIG    1        1.515  -4.593  -1.076  0.00  0.00    +0.310 C 
BRANCH  16  17
ATOM     17  C   LIG    1        1.948  -3.449  -0.156  0.00  0.00    -0.040 C 
ATOM     18  C   LIG    1        1.480  -3.498   1.301  0.00  0.00    +0.050 C 
ATOM     19  C   LIG    1        0.869  -2.492   0.333  0.00  0.00    -0.080 C 
ATOM     20  C   LIG    1       -0.589  -2.627  -0.137  0.00  0.00    +0.070 C 
ATOM     21  C   LIG    1       -1.226  -1.324   0.395  0.00  0.00    +0.080 C 
ATOM     22  C   LIG    1       -0.083  -0.336   0.499  0.00  0.00    -0.090 A 
ATOM     23  C   LIG    1       -0.098   1.044   0.614  0.00  0.00    +0.010 A 
ATOM     24  C   LIG    1        1.087   1.748   0.699  0.00  0.00    +0.000 A 
ATOM     25  C   LIG    1        2.293   1.074   0.666  0.00  0.00    +0.000 A 
ATOM     26  C   LIG    1        2.311  -0.302   0.550  0.00  0.00    +0.010 A 
ATOM     27  C   LIG    1        1.125  -1.011   0.466  0.00  0.00    -0.060 A 
ENDBRANCH  16  17
ENDBRANCH   4  16
TORSDOF 4
