REMARK  Name = ZINCc70000002zKq.0
REMARK                            x       y       z     vdW  Elec       q    Type
REMARK                         _______ _______ _______ _____ _____    ______ ____
ROOT
ATOM      1  C   LIG    1        0.002  -0.004   0.002  0.00  0.00    +0.170 C 
ATOM      2  O   LIG    1       -0.017   1.425   0.010  0.00  0.00    -0.300 OA
ATOM      3  C   LIG    1        1.279   0.833  -0.006  0.00  0.00    +0.010 C 
ATOM      4  C   LIG    1        2.087   0.901  -1.305  0.00  0.00    +0.070 C 
ATOM      5  C   LIG    1        3.040   2.100  -1.219  0.00  0.00    +0.020 C 
ATOM      6  C   LIG    1        3.866   1.991   0.066  0.00  0.00    +0.210 C 
ATOM      7  O   LIG    1        3.000   2.008   1.201  0.00  0.00    -0.370 OA
ATOM      8  C   LIG    1        2.113   0.887   1.277  0.00  0.00    +0.270 C 
ENDROOT
BRANCH   1   9
ATOM      9  C   LIG    1       -0.388  -0.705  -1.274  0.00  0.00    +0.480 C 
ATOM     10  O   LIG    1       -1.376  -0.358  -1.876  0.00  0.00    -0.480 OA
BRANCH   9  12
ATOM     11  C   LIG    1       -0.072  -2.343  -2.976  0.00  0.00    +0.280 C 
ATOM     12  O   LIG    1        0.363  -1.714  -1.742  0.00  0.00    -0.350 OA
ENDBRANCH   9  12
ENDBRANCH   1   9
TORSDOF 2
