REMARK  Name = ZINCnE000001N9a9.0
REMARK                            x       y       z     vdW  Elec       q    Type
REMARK                         _______ _______ _______ _____ _____    ______ ____
ROOT
ATOM      1  C   LIG    1        0.210   5.978  -1.220  0.00  0.00    +0.050 C 
ATOM      2  C   LIG    1       -0.365   5.317   0.034  0.00  0.00    +0.270 C 
ATOM      3  C   LIG    1       -0.053   3.842   0.023  0.00  0.00    -0.100 A 
ATOM      4  C   LIG    1        1.155   3.165   0.008  0.00  0.00    +0.030 A 
ATOM      5  C   LIG    1        1.175   1.784   0.000  0.00  0.00    +0.010 A 
ATOM      6  C   LIG    1       -0.013   1.076   0.008  0.00  0.00    +0.010 A 
ATOM      7  C   LIG    1       -1.218   1.751   0.017  0.00  0.00    +0.040 A 
ATOM      8  C   LIG    1       -1.239   3.135   0.031  0.00  0.00    -0.110 A 
ATOM      9  C   LIG    1       -2.388   4.111   0.047  0.00  0.00    +0.320 C 
ATOM     10  N   LIG    1       -1.824   5.464   0.049  0.00  0.00    -0.620 N 
ATOM     11  C   LIG    1       -2.514   6.622   0.062  0.00  0.00    +0.540 C 
ATOM     12  O   LIG    1       -1.922   7.680   0.063  0.00  0.00    -0.530 OA
ENDROOT
BRANCH  11  13
ATOM     13  C   LIG    1       -4.020   6.601   0.076  0.00  0.00    +0.070 C 
BRANCH  13  14
ATOM     14  C   LIG    1       -4.550   8.036   0.090  0.00  0.00    +0.100 C 
BRANCH  14  15
ATOM     15  C   LIG    1       -6.057   8.015   0.104  0.00  0.00    -0.100 A 
ATOM     16  C   LIG    1       -6.757   8.018  -1.090  0.00  0.00    -0.020 A 
ATOM     17  C   LIG    1       -8.136   7.993  -1.084  0.00  0.00    +0.050 A 
ATOM     18  C   LIG    1       -8.826   7.977   0.130  0.00  0.00    -0.130 A 
ATOM     19  C   LIG    1       -8.113   7.980   1.332  0.00  0.00    +0.050 A 
ATOM     20  C   LIG    1       -6.734   7.998   1.311  0.00  0.00    -0.020 A 
BRANCH  18  21
ATOM     21  C   LIG    1      -10.302   7.957   0.144  0.00  0.00    +0.520 C 
ATOM     22  O   LIG    1      -10.923   7.955  -0.909  0.00  0.00    -0.690 OA
ATOM     23  O   LIG    1      -10.903   7.944   1.209  0.00  0.00    -0.690 OA
ENDBRANCH  18  21
ENDBRANCH  14  15
ENDBRANCH  13  14
ENDBRANCH  11  13
TORSDOF 4
