REMARK  Name = ZINCpk00000KfKow.0
REMARK                            x       y       z     vdW  Elec       q    Type
REMARK                         _______ _______ _______ _____ _____    ______ ____
ROOT
ATOM      1  C   LIG    1       -2.583   1.394   0.020  0.00  0.00    +0.070 C 
ATOM      2  C   LIG    1       -2.837   0.408  -1.151  0.00  0.00    +0.050 C 
ATOM      3  C   LIG    1       -3.998  -0.461  -0.625  0.00  0.00    +0.230 C 
ATOM      4  N   LIG    1       -3.985  -0.367   0.842  0.00  0.00    -0.630 N 
ATOM      5  C   LIG    1       -4.856  -0.969   1.676  0.00  0.00    +0.730 C 
ATOM      6  N   LIG    1       -5.846  -1.735   1.177  0.00  0.00    -0.650 N 
ATOM      7  H   LIG    1       -5.932  -1.853   0.218  0.00  0.00    +0.410 HD
ATOM      8  O   LIG    1       -4.748  -0.821   2.878  0.00  0.00    -0.570 OA
ATOM      9  C   LIG    1       -2.860   0.494   1.250  0.00  0.00    +0.280 C 
ENDROOT
BRANCH   1  13
ATOM     10  C   LIG    1        1.444   4.379   0.011  0.00  0.00    +0.360 C 
ATOM     11  N   LIG    1        0.593   3.186   0.013  0.00  0.00    -0.380 N 
ATOM     12  C   LIG    1       -0.756   3.173   0.025  0.00  0.00    +0.240 A 
ATOM     13  C   LIG    1       -1.157   1.881   0.017  0.00  0.00    -0.230 A 
ATOM     14  C   LIG    1       -0.013   1.076   0.008  0.00  0.00    +0.240 A 
ATOM     15  N   LIG    1        1.037   1.857   0.002  0.00  0.00    -0.290 NA
ENDBRANCH   1  13
BRANCH   6  16
ATOM     16  C   LIG    1       -6.756  -2.364   2.048  0.00  0.00    +0.040 A 
ATOM     17  C   LIG    1       -7.794  -3.158   1.682  0.00  0.00    +0.230 A 
ATOM     18  N   LIG    1       -8.423  -3.562   2.821  0.00  0.00    -0.320 N 
ATOM     19  N   LIG    1       -7.746  -2.996   3.909  0.00  0.00    -0.240 NA
ATOM     20  C   LIG    1       -6.748  -2.286   3.450  0.00  0.00    +0.290 A 
BRANCH  18  21
ATOM     21  C   LIG    1       -9.541  -4.391   2.892  0.00  0.00    +0.570 A 
ATOM     22  N   LIG    1      -10.078  -4.848   1.772  0.00  0.00    -0.540 NA
ATOM     23  C   LIG    1      -11.136  -5.642   1.803  0.00  0.00    +0.360 A 
ATOM     24  C   LIG    1      -11.688  -5.984   3.027  0.00  0.00    -0.090 A 
ATOM     25  C   LIG    1      -11.104  -5.483   4.180  0.00  0.00    +0.360 A 
ATOM     26  N   LIG    1      -10.043  -4.699   4.077  0.00  0.00    -0.510 NA
ENDBRANCH  18  21
ENDBRANCH   6  16
TORSDOF 3
