REMARK  Name = ZINCpk000004AN51.0
REMARK                            x       y       z     vdW  Elec       q    Type
REMARK                         _______ _______ _______ _____ _____    ______ ____
ROOT
ATOM      1  C   LIG    1        3.579   4.993   0.238  0.00  0.00    +0.290 C 
ENDROOT
BRANCH   1   2
ATOM      2  C   LIG    1        4.675   5.734   1.006  0.00  0.00    +0.250 C 
ATOM      3  C   LIG    1        5.879   6.030   0.076  0.00  0.00    +0.040 C 
ATOM      4  C   LIG    1        7.037   6.163   1.099  0.00  0.00    +0.190 C 
ATOM      5  C   LIG    1        6.670   5.119   2.175  0.00  0.00    +0.260 C 
ATOM      6  F   LIG    1        8.263   5.849   0.503  0.00  0.00    -0.200 F 
ATOM      7  N   LIG    1        5.224   4.876   2.072  0.00  0.00    -0.610 N 
ATOM      8  C   LIG    1        4.517   4.012   2.827  0.00  0.00    +0.670 C 
ATOM      9  O   LIG    1        3.338   3.828   2.597  0.00  0.00    -0.540 OA
BRANCH   8  10
ATOM     10  O   LIG    1        5.117   3.354   3.837  0.00  0.00    -0.360 OA
BRANCH  10  11
ATOM     11  C   LIG    1        4.294   2.439   4.608  0.00  0.00    +0.140 C 
ATOM     12  C   LIG    1        3.138   3.210   5.249  0.00  0.00    +0.040 C 
ATOM     13  C   LIG    1        5.142   1.789   5.703  0.00  0.00    +0.080 C 
ATOM     14  C   LIG    1        3.734   1.355   3.685  0.00  0.00    +0.040 C 
ENDBRANCH  10  11
ENDBRANCH   8  10
ENDBRANCH   1   2
BRANCH   1  16
ATOM     15  C   LIG    1        3.239   2.798  -0.764  0.00  0.00    +0.500 C 
ATOM     16  N   LIG    1        4.069   3.671  -0.161  0.00  0.00    -0.720 N 
ATOM     17  H   LIG    1        4.992   3.424   0.010  0.00  0.00    +0.390 HD
ATOM     18  O   LIG    1        2.085   3.106  -0.978  0.00  0.00    -0.520 OA
BRANCH  15  19
ATOM     19  C   LIG    1        3.743   1.438  -1.173  0.00  0.00    +0.320 C 
BRANCH  19  21
ATOM     20  C   LIG    1        1.850  -0.091  -1.052  0.00  0.00    +0.550 C 
ATOM     21  N   LIG    1        2.657   0.683  -1.804  0.00  0.00    -0.590 N 
ATOM     22  O   LIG    1        2.024  -0.164   0.150  0.00  0.00    -0.540 OA
BRANCH  20  24
ATOM     23  C   LIG    1       -0.037  -1.613  -0.943  0.00  0.00    +0.140 C 
ATOM     24  C   LIG    1        0.759  -0.849  -1.685  0.00  0.00    -0.090 C 
ENDBRANCH  20  24
BRANCH  21  25
ATOM     25  C   LIG    1        2.448   0.771  -3.251  0.00  0.00    +0.270 C 
ATOM     26  C   LIG    1        1.485   1.919  -3.558  0.00  0.00    +0.020 C 
ENDBRANCH  21  25
ENDBRANCH  19  21
ENDBRANCH  15  19
ENDBRANCH   1  16
TORSDOF 8
