REMARK  Name = ZINCpk00000xI3Ir.0
REMARK                            x       y       z     vdW  Elec       q    Type
REMARK                         _______ _______ _______ _____ _____    ______ ____
ROOT
ATOM      1  C   LIG    1        6.046   5.682  -3.994  0.00  0.00    +0.170 C 
ATOM      2  C   LIG    1        6.347   5.889  -2.503  0.00  0.00    +0.300 C 
ATOM      3  N   LIG    1        5.138   5.107  -2.204  0.00  0.00    -0.650 N 
ATOM      4  C   LIG    1        4.248   5.046  -1.193  0.00  0.00    +0.550 C 
ATOM      5  O   LIG    1        4.372   5.773  -0.231  0.00  0.00    -0.520 OA
ATOM      6  C   LIG    1        5.331   4.418  -3.488  0.00  0.00    +0.270 C 
ENDROOT
BRANCH   1   7
ATOM      7  O   LIG    1        7.200   5.418  -4.794  0.00  0.00    -0.360 OA
BRANCH   7   8
ATOM      8  C   LIG    1        7.090   5.877  -6.143  0.00  0.00    +0.360 C 
BRANCH   8  13
ATOM      9  C   LIG    1       10.596   3.602  -8.902  0.00  0.00    +0.200 C 
ATOM     10  C   LIG    1        9.847   4.598  -8.054  0.00  0.00    +0.170 A 
ATOM     11  N   LIG    1       10.283   5.759  -7.667  0.00  0.00    -0.380 NA
ATOM     12  O   LIG    1        9.442   6.321  -6.997  0.00  0.00    +0.090 OA
ATOM     13  C   LIG    1        8.357   5.548  -6.891  0.00  0.00    +0.180 A 
ATOM     14  N   LIG    1        8.607   4.446  -7.557  0.00  0.00    -0.460 NA
ENDBRANCH   8  13
ENDBRANCH   7   8
ENDBRANCH   1   7
BRANCH   4  15
ATOM     15  C   LIG    1        3.098   4.074  -1.260  0.00  0.00    +0.090 C 
BRANCH  15  16
ATOM     16  C   LIG    1        2.245   4.207   0.003  0.00  0.00    +0.270 C 
ATOM     17  O   LIG    1        1.569   5.494   0.015  0.00  0.00    -0.300 OA
ATOM     18  C   LIG    1        0.241   5.292   0.027  0.00  0.00    +0.520 C 
ATOM     19  C   LIG    1       -0.054   3.847   0.022  0.00  0.00    -0.190 A 
ATOM     20  C   LIG    1       -1.250   3.128   0.029  0.00  0.00    +0.110 A 
ATOM     21  C   LIG    1       -1.221   1.749   0.017  0.00  0.00    +0.020 A 
ATOM     22  C   LIG    1       -0.013   1.076   0.008  0.00  0.00    +0.060 A 
ATOM     23  C   LIG    1        1.179   1.782   0.000  0.00  0.00    +0.040 A 
ATOM     24  O   LIG    1       -0.596   6.172   0.038  0.00  0.00    -0.450 OA
ATOM     25  C   LIG    1        1.162   3.157   0.007  0.00  0.00    -0.100 A 
ENDBRANCH  15  16
ENDBRANCH   4  15
TORSDOF 5
