REMARK  Name = ZINCpe00000yf1rj.0
REMARK                            x       y       z     vdW  Elec       q    Type
REMARK                         _______ _______ _______ _____ _____    ______ ____
ROOT
ATOM      1  N   LIG    1       -0.721   1.571  -1.179  0.00  0.00    -0.570 N 
ATOM      2  C   LIG    1       -0.458   2.733  -1.790  0.00  0.00    +0.710 C 
ATOM      3  N   LIG    1       -1.251   2.943  -2.858  0.00  0.00    -0.710 N 
ATOM      4  H   LIG    1       -1.239   3.712  -3.448  0.00  0.00    +0.440 HD
ATOM      5  C   LIG    1       -2.137   1.776  -2.953  0.00  0.00    +0.130 C 
ATOM      6  C   LIG    1       -1.919   1.046  -4.274  0.00  0.00    +0.050 C 
ATOM      7  C   LIG    1       -2.828  -0.184  -4.337  0.00  0.00    +0.020 C 
ATOM      8  C   LIG    1       -4.288   0.256  -4.213  0.00  0.00    +0.010 C 
ATOM      9  C   LIG    1       -4.497   0.964  -2.873  0.00  0.00    +0.030 C 
ATOM     10  C   LIG    1       -3.594   2.199  -2.804  0.00  0.00    +0.010 C 
ATOM     11  C   LIG    1       -3.787   2.896  -1.456  0.00  0.00    +0.040 C 
ATOM     12  O   LIG    1        0.401   3.510  -1.422  0.00  0.00    -0.540 OA
ATOM     13  C   LIG    1       -1.716   0.900  -1.795  0.00  0.00    +0.540 C 
ATOM     14  O   LIG    1       -2.177  -0.177  -1.484  0.00  0.00    -0.450 OA
ENDROOT
BRANCH   1  15
ATOM     15  C   LIG    1       -0.013   1.086   0.008  0.00  0.00    +0.420 C 
BRANCH  15  16
ATOM     16  C   LIG    1       -0.718   1.572   1.248  0.00  0.00    +0.450 C 
ATOM     17  O   LIG    1       -1.711   2.254   1.150  0.00  0.00    -0.490 OA
BRANCH  16  18
ATOM     18  O   LIG    1       -0.243   1.247   2.461  0.00  0.00    -0.330 OA
BRANCH  18  19
ATOM     19  C   LIG    1       -0.974   1.750   3.611  0.00  0.00    +0.250 C 
BRANCH  19  21
ATOM     20  N   LIG    1       -0.804   1.637   6.076  0.00  0.00    -0.610 N 
ATOM     21  C   LIG    1       -0.298   1.288   4.876  0.00  0.00    +0.520 C 
ATOM     22  O   LIG    1        0.700   0.602   4.815  0.00  0.00    -0.510 OA
BRANCH  20  24
ATOM     23  C   LIG    1       -3.247   1.565   6.177  0.00  0.00    +0.010 C 
ATOM     24  C   LIG    1       -2.010   2.465   6.150  0.00  0.00    +0.270 C 
ENDBRANCH  20  24
BRANCH  20  25
ATOM     25  C   LIG    1       -0.148   1.187   7.306  0.00  0.00    +0.280 C 
ATOM     26  C   LIG    1        0.897   2.220   7.733  0.00  0.00    +0.020 C 
ENDBRANCH  20  25
ENDBRANCH  19  21
ENDBRANCH  18  19
ENDBRANCH  16  18
ENDBRANCH  15  16
ENDBRANCH   1  15
TORSDOF 7
