REMARK  Name = ZINCrg00000XIUmM.0
REMARK                            x       y       z     vdW  Elec       q    Type
REMARK                         _______ _______ _______ _____ _____    ______ ____
ROOT
ATOM      1  C   LIG    1       -2.950  -1.642   1.877  0.00  0.00    +0.550 C 
ATOM      2  N   LIG    1       -3.401  -2.359   0.829  0.00  0.00    -0.610 N 
ATOM      3  C   LIG    1       -3.235  -3.821   0.785  0.00  0.00    +0.290 C 
ATOM      4  C   LIG    1       -4.593  -4.460   0.476  0.00  0.00    +0.170 C 
ATOM      5  N   LIG    1       -5.146  -3.860  -0.745  0.00  0.00    -0.540 NA
ATOM      6  C   LIG    1       -5.402  -2.425  -0.566  0.00  0.00    +0.180 C 
ATOM      7  C   LIG    1       -6.364  -4.563  -1.172  0.00  0.00    +0.190 C 
ATOM      8  C   LIG    1       -4.077  -1.703  -0.300  0.00  0.00    +0.230 C 
ATOM      9  O   LIG    1       -3.186  -0.455   1.946  0.00  0.00    -0.500 OA
ENDROOT
BRANCH   1  13
ATOM     10  C   LIG    1       -1.423  -2.068   5.312  0.00  0.00    +0.190 C 
ATOM     11  C   LIG    1       -1.960  -3.504   5.086  0.00  0.00    +0.010 C 
ATOM     12  C   LIG    1       -2.892  -3.332   3.861  0.00  0.00    +0.080 C 
ATOM     13  C   LIG    1       -2.153  -2.316   2.964  0.00  0.00    -0.170 C 
ATOM     14  C   LIG    1       -0.635  -2.435   2.815  0.00  0.00    +0.090 C 
ATOM     15  C   LIG    1       -1.220  -1.513   3.887  0.00  0.00    +0.000 C 
BRANCH  10  17
ATOM     16  C   LIG    1       -0.309  -1.938   7.430  0.00  0.00    +0.200 C 
ATOM     17  O   LIG    1       -0.181  -2.104   6.016  0.00  0.00    -0.380 OA
ENDBRANCH  10  17
ENDBRANCH   1  13
BRANCH   8  18
ATOM     18  C   LIG    1       -4.351  -0.238   0.046  0.00  0.00    +0.290 C 
BRANCH  18  19
ATOM     19  N   LIG    1       -3.090   0.508   0.046  0.00  0.00    -0.690 N 
ATOM     20  H   LIG    1       -2.250   0.040  -0.079  0.00  0.00    +0.390 HD
ATOM     21  C   LIG    1       -3.098   1.845   0.220  0.00  0.00    +0.600 C 
ATOM     22  O   LIG    1       -4.151   2.432   0.377  0.00  0.00    -0.560 OA
BRANCH  21  23
ATOM     23  C   LIG    1       -1.830   2.594   0.220  0.00  0.00    -0.230 A 
ATOM     24  C   LIG    1       -1.673   3.943   0.386  0.00  0.00    +0.100 A 
ATOM     25  N   LIG    1       -0.359   4.229   0.315  0.00  0.00    -0.550 N 
ATOM     26  H   LIG    1        0.020   5.118   0.398  0.00  0.00    +0.420 HD
ATOM     27  C   LIG    1        0.364   3.089   0.110  0.00  0.00    +0.150 A 
ATOM     28  C   LIG    1       -2.781   4.939   0.605  0.00  0.00    +0.140 C 
ATOM     29  C   LIG    1       -0.481   2.045   0.045  0.00  0.00    -0.030 A 
ENDBRANCH  21  23
ENDBRANCH  18  19
ENDBRANCH   8  18
TORSDOF 5
