REMARK  Name = ZINCrD000000AfHp.1
REMARK                            x       y       z     vdW  Elec       q    Type
REMARK                         _______ _______ _______ _____ _____    ______ ____
ROOT
ATOM      1  O   LIG    1        2.973   3.876  -2.169  0.00  0.00    -0.530 OA
ATOM      2  C   LIG    1        3.842   3.158  -1.722  0.00  0.00    +0.520 C 
ATOM      3  N   LIG    1        3.528   1.940  -1.238  0.00  0.00    -0.730 N 
ATOM      4  H   LIG    1        4.224   1.366  -0.881  0.00  0.00    +0.400 HD
ENDROOT
BRANCH   3   5
ATOM      5  C   LIG    1        2.137   1.483  -1.252  0.00  0.00    +0.230 C 
ATOM      6  C   LIG    1        1.417   1.995  -0.001  0.00  0.00    +0.010 C 
ATOM      7  C   LIG    1       -0.018   1.464   0.010  0.00  0.00    +0.180 C 
ATOM      8  N   LIG    1        0.002  -0.004   0.002  0.00  0.00    -0.530 NA
ATOM      9  C   LIG    1        0.646  -0.520  -1.213  0.00  0.00    +0.180 C 
ATOM     10  C   LIG    1        2.101  -0.048  -1.260  0.00  0.00    +0.030 C 
BRANCH   8  11
ATOM     11  C   LIG    1       -1.354  -0.550   0.152  0.00  0.00    +0.230 C 
BRANCH  11  12
ATOM     12  C   LIG    1       -1.329  -2.034  -0.105  0.00  0.00    -0.080 A 
ATOM     13  C   LIG    1       -1.531  -2.518  -1.385  0.00  0.00    +0.030 A 
ATOM     14  C   LIG    1       -1.502  -3.879  -1.622  0.00  0.00    +0.020 A 
ATOM     15  C   LIG    1       -1.283  -4.759  -0.577  0.00  0.00    -0.030 A 
ATOM     16  C   LIG    1       -1.086  -4.275   0.704  0.00  0.00    +0.020 A 
ATOM     17 CL   LIG    1       -1.253  -6.469  -0.873  0.00  0.00    -0.070 Cl
ATOM     18  C   LIG    1       -1.109  -2.913   0.939  0.00  0.00    +0.040 A 
ENDBRANCH  11  12
ENDBRANCH   8  11
ENDBRANCH   3   5
BRANCH   2  19
ATOM     19  C   LIG    1        5.274   3.628  -1.708  0.00  0.00    +0.050 C 
BRANCH  19  20
ATOM     20  C   LIG    1        5.355   5.033  -2.310  0.00  0.00    +0.300 C 
BRANCH  20  21
ATOM     21  N   LIG    1        6.747   5.490  -2.296  0.00  0.00    -0.730 N 
ATOM     22  H   LIG    1        7.442   4.916  -1.939  0.00  0.00    +0.400 HD
ATOM     23  C   LIG    1        7.061   6.708  -2.780  0.00  0.00    +0.580 C 
ATOM     24  O   LIG    1        6.189   7.428  -3.228  0.00  0.00    -0.530 OA
BRANCH  23  25
ATOM     25  C   LIG    1        8.459   7.168  -2.767  0.00  0.00    -0.150 A 
ATOM     26  C   LIG    1        9.489   6.422  -2.283  0.00  0.00    -0.050 A 
ATOM     27  S   LIG    1       10.965   7.263  -2.425  0.00  0.00    +0.190 S 
ATOM     28  C   LIG    1       10.187   8.657  -3.153  0.00  0.00    -0.060 A 
ATOM     29  C   LIG    1        8.880   8.454  -3.271  0.00  0.00    +0.070 A 
ENDBRANCH  23  25
ENDBRANCH  20  21
ENDBRANCH  19  20
ENDBRANCH   2  19
TORSDOF 7
