REMARK  Name = ZINCrD0000073X0O.0
REMARK                            x       y       z     vdW  Elec       q    Type
REMARK                         _______ _______ _______ _____ _____    ______ ____
ROOT
ATOM      1  C   LIG    1        3.695  -0.684  -0.038  0.00  0.00    +0.510 C 
ATOM      2  O   LIG    1        3.714  -1.898  -0.046  0.00  0.00    -0.500 OA
ENDROOT
BRANCH   1   3
ATOM      3  C   LIG    1        2.404   0.034  -0.021  0.00  0.00    -0.120 A 
ATOM      4  C   LIG    1        1.204  -0.681  -0.014  0.00  0.00    +0.090 A 
ATOM      5  C   LIG    1        0.002  -0.004   0.002  0.00  0.00    +0.010 A 
ATOM      6  C   LIG    1       -0.017   1.379   0.010  0.00  0.00    -0.070 A 
ATOM      7  C   LIG    1        1.168   2.094   0.002  0.00  0.00    +0.030 A 
ATOM      8  C   LIG    1        2.377   1.430  -0.013  0.00  0.00    +0.080 A 
BRANCH   6   9
ATOM      9  C   LIG    1       -1.334   2.112   0.020  0.00  0.00    +0.350 C 
BRANCH   9  10
ATOM     10  N   LIG    1       -1.754   2.341   1.404  0.00  0.00    -0.620 N 
ATOM     11  C   LIG    1       -2.585   1.415   2.182  0.00  0.00    +0.260 C 
ATOM     12  C   LIG    1       -2.399   1.837   3.658  0.00  0.00    +0.040 C 
ATOM     13  C   LIG    1       -2.026   3.331   3.512  0.00  0.00    +0.050 C 
ATOM     14  C   LIG    1       -1.433   3.430   2.124  0.00  0.00    +0.520 C 
ATOM     15  O   LIG    1       -0.765   4.359   1.719  0.00  0.00    -0.530 OA
ENDBRANCH   9  10
ENDBRANCH   6   9
ENDBRANCH   1   3
BRANCH   1  16
ATOM     16  O   LIG    1        4.850   0.009  -0.046  0.00  0.00    -0.330 OA
BRANCH  16  18
ATOM     17  C   LIG    1        6.527  -1.042   1.374  0.00  0.00    +0.080 C 
ATOM     18  C   LIG    1        6.081  -0.762  -0.063  0.00  0.00    +0.170 C 
BRANCH  18  19
ATOM     19  C   LIG    1        7.152   0.018  -0.779  0.00  0.00    +0.400 C 
ATOM     20  O   LIG    1        7.043   1.219  -0.910  0.00  0.00    -0.420 OA
BRANCH  19  21
ATOM     21  C   LIG    1        8.330  -0.676  -1.319  0.00  0.00    -0.180 A 
ATOM     22  C   LIG    1        8.462  -2.061  -1.165  0.00  0.00    +0.090 A 
ATOM     23  C   LIG    1        9.566  -2.706  -1.678  0.00  0.00    -0.010 A 
ATOM     24  C   LIG    1       10.550  -1.985  -2.337  0.00  0.00    +0.140 A 
ATOM     25  C   LIG    1       10.428  -0.612  -2.489  0.00  0.00    -0.010 A 
ATOM     26  F   LIG    1       11.633  -2.623  -2.833  0.00  0.00    -0.130 F 
ATOM     27  C   LIG    1        9.328   0.045  -1.985  0.00  0.00    +0.120 A 
ENDBRANCH  19  21
ENDBRANCH  18  19
ENDBRANCH  16  18
ENDBRANCH   1  16
TORSDOF 7
