REMARK  Name = ZINCqH0000002xL0.1
REMARK                            x       y       z     vdW  Elec       q    Type
REMARK                         _______ _______ _______ _____ _____    ______ ____
ROOT
ATOM      1  C   LIG    1       -1.373  -2.351   2.533  0.00  0.00    +0.360 C 
ENDROOT
BRANCH   1   3
ATOM      2  C   LIG    1       -1.413  -2.041   0.005  0.00  0.00    +0.110 A 
ATOM      3  C   LIG    1       -1.387  -2.813   1.099  0.00  0.00    -0.250 A 
ATOM      4  C   LIG    1       -1.377  -4.201   0.620  0.00  0.00    -0.120 A 
ATOM      5  C   LIG    1       -1.354  -5.447   1.244  0.00  0.00    +0.050 A 
ATOM      6  C   LIG    1       -1.345  -6.592   0.478  0.00  0.00    +0.020 A 
ATOM      7  C   LIG    1       -1.359  -6.507  -0.907  0.00  0.00    +0.050 A 
ATOM      8  C   LIG    1       -1.382  -5.280  -1.536  0.00  0.00    +0.040 A 
ATOM      9  C   LIG    1       -1.391  -4.114  -0.782  0.00  0.00    +0.050 A 
ATOM     10  O   LIG    1       -1.413  -2.804  -1.102  0.00  0.00    -0.180 OA
BRANCH   2  11
ATOM     11  C   LIG    1       -1.433  -0.534   0.013  0.00  0.00    +0.120 C 
BRANCH  11  12
ATOM     12  C   LIG    1        0.002  -0.004   0.002  0.00  0.00    +0.020 C 
BRANCH  12  14
ATOM     13  C   LIG    1        1.417   2.055  -0.000  0.00  0.00    +0.020 C 
ATOM     14  C   LIG    1       -0.019   1.526   0.010  0.00  0.00    +0.010 C 
ENDBRANCH  12  14
ENDBRANCH  11  12
ENDBRANCH   2  11
ENDBRANCH   1   3
BRANCH   1  15
ATOM     15  N   LIG    1       -2.753  -2.220   3.019  0.00  0.00    -0.410 N 
ATOM     16  C   LIG    1       -3.364  -0.914   2.706  0.00  0.00    +0.290 C 
ATOM     17  C   LIG    1       -4.034  -0.961   4.088  0.00  0.00    +0.330 C 
ATOM     18  C   LIG    1       -2.841  -1.858   4.446  0.00  0.00    +0.300 C 
ATOM     19  H   LIG    1       -3.335  -3.005   2.767  0.00  0.00    +0.440 HD
BRANCH  17  20
ATOM     20  N   LIG    1       -5.328  -1.647   4.107  0.00  0.00    -0.300 N 
ATOM     21  N   LIG    1       -5.644  -2.652   3.373  0.00  0.00    -0.370 NA
ATOM     22  C   LIG    1       -6.868  -3.046   3.619  0.00  0.00    +0.210 A 
ATOM     23  C   LIG    1       -7.398  -2.210   4.603  0.00  0.00    -0.050 A 
ATOM     24  C   LIG    1       -6.387  -1.311   4.905  0.00  0.00    +0.010 A 
BRANCH  24  25
ATOM     25  C   LIG    1       -6.441  -0.220   5.884  0.00  0.00    +0.550 C 
ATOM     26  O   LIG    1       -7.460  -0.031   6.535  0.00  0.00    -0.650 OA
ATOM     27  O   LIG    1       -5.467   0.503   6.050  0.00  0.00    -0.680 OA
ENDBRANCH  24  25
ENDBRANCH  17  20
ENDBRANCH   1  15
TORSDOF 7
