REMARK  Name = ZINCpk00000xIcDl.0
REMARK                            x       y       z     vdW  Elec       q    Type
REMARK                         _______ _______ _______ _____ _____    ______ ____
ROOT
ATOM      1  N   LIG    1       -2.730   5.385   0.044  0.00  0.00    -0.670 N 
ATOM      2  H   LIG    1       -1.970   5.984   0.119  0.00  0.00    +0.410 HD
ATOM      3  C   LIG    1       -2.538   4.051   0.034  0.00  0.00    +0.510 C 
ATOM      4  O   LIG    1       -3.492   3.302   0.025  0.00  0.00    -0.470 OA
ENDROOT
BRANCH   1   9
ATOM      5  C   LIG    1       -6.375   5.766   0.441  0.00  0.00    -0.120 A 
ATOM      6  C   LIG    1       -6.587   6.958  -0.254  0.00  0.00    +0.030 A 
ATOM      7  C   LIG    1       -5.523   7.614  -0.840  0.00  0.00    +0.030 A 
ATOM      8  C   LIG    1       -4.246   7.096  -0.737  0.00  0.00    +0.010 A 
ATOM      9  C   LIG    1       -4.025   5.907  -0.052  0.00  0.00    +0.140 A 
ATOM     10  C   LIG    1       -5.086   5.241   0.540  0.00  0.00    +0.090 A 
BRANCH   5  14
ATOM     11  C   LIG    1       -9.885   4.872   1.595  0.00  0.00    +0.290 C 
ATOM     12  N   LIG    1       -8.757   5.570   0.972  0.00  0.00    -0.730 N 
ATOM     13  H   LIG    1       -8.906   6.399   0.490  0.00  0.00    +0.400 HD
ATOM     14  C   LIG    1       -7.513   5.061   1.069  0.00  0.00    +0.560 C 
ATOM     15  O   LIG    1       -7.326   4.023   1.673  0.00  0.00    -0.520 OA
ENDBRANCH   5  14
ENDBRANCH   1   9
BRANCH   3  16
ATOM     16  C   LIG    1       -1.140   3.491   0.033  0.00  0.00    +0.240 C 
BRANCH  16  17
ATOM     17  O   LIG    1       -1.199   2.063   0.021  0.00  0.00    -0.250 OA
BRANCH  17  18
ATOM     18  C   LIG    1       -0.016   1.398   0.019  0.00  0.00    +0.190 A 
ATOM     19  C   LIG    1        1.179   2.101   0.022  0.00  0.00    -0.080 A 
ATOM     20  C   LIG    1        2.381   1.423   0.014  0.00  0.00    -0.020 A 
ATOM     21  C   LIG    1        2.405   0.038   0.003  0.00  0.00    -0.040 A 
ATOM     22  C   LIG    1        1.226  -0.677  -0.000  0.00  0.00    +0.100 A 
ATOM     23  C   LIG    1        3.676   2.194   0.017  0.00  0.00    +0.100 C 
ATOM     24  C   LIG    1        0.003  -0.004   0.008  0.00  0.00    -0.180 A 
BRANCH  24  25
ATOM     25  C   LIG    1       -1.262  -0.763   0.004  0.00  0.00    +0.560 C 
ATOM     26  O   LIG    1       -2.325  -0.173   0.011  0.00  0.00    -0.510 OA
ATOM     27  N   LIG    1       -1.239  -2.111  -0.006  0.00  0.00    -0.860 N 
ATOM     28  H   LIG    1       -2.071  -2.610  -0.009  0.00  0.00    +0.410 HD
ATOM     29  H   LIG    1       -0.391  -2.581  -0.012  0.00  0.00    +0.400 HD
ENDBRANCH  24  25
ENDBRANCH  17  18
ENDBRANCH  16  17
ENDBRANCH   3  16
TORSDOF 6
