REMARK  Name = ZINCrg00000fRiMK.0
REMARK                            x       y       z     vdW  Elec       q    Type
REMARK                         _______ _______ _______ _____ _____    ______ ____
ROOT
ATOM      1  C   LIG    1        1.329   8.423   0.303  0.00  0.00    -0.690 A 
ATOM      2  C   LIG    1        2.631   7.970   0.193  0.00  0.00    +0.140 A 
ATOM      3  C   LIG    1        2.885   6.616   0.095  0.00  0.00    +0.010 A 
ATOM      4  C   LIG    1        1.833   5.710   0.105  0.00  0.00    +0.200 A 
ATOM      5  C   LIG    1        0.527   6.169   0.210  0.00  0.00    -0.020 A 
ATOM      6  C   LIG    1        0.279   7.524   0.314  0.00  0.00    +0.150 A 
ENDROOT
BRANCH   4   7
ATOM      7  N   LIG    1        2.088   4.338   0.005  0.00  0.00    -0.670 N 
ATOM      8  H   LIG    1        1.471   3.764  -0.475  0.00  0.00    +0.420 HD
ATOM      9  C   LIG    1        3.190   3.814   0.577  0.00  0.00    +0.520 C 
ATOM     10  O   LIG    1        4.003   4.542   1.106  0.00  0.00    -0.490 OA
BRANCH   9  11
ATOM     11  C   LIG    1        3.412   2.323   0.560  0.00  0.00    +0.270 C 
BRANCH  11  12
ATOM     12  O   LIG    1        4.640   2.016   1.223  0.00  0.00    -0.330 OA
BRANCH  12  13
ATOM     13  C   LIG    1        4.989   0.715   1.295  0.00  0.00    +0.530 C 
ATOM     14  O   LIG    1        4.268  -0.136   0.807  0.00  0.00    -0.490 OA
BRANCH  13  15
ATOM     15  C   LIG    1        6.231   0.327   1.960  0.00  0.00    -0.080 C 
ATOM     16  C   LIG    1        7.014   1.277   2.492  0.00  0.00    +0.270 C 
ATOM     17  O   LIG    1        8.175   0.975   3.110  0.00  0.00    -0.290 OA
ATOM     18  C   LIG    1        8.357  -0.388   3.510  0.00  0.00    +0.230 C 
ATOM     19  C   LIG    1        7.934  -1.289   2.340  0.00  0.00    +0.230 C 
ATOM     20  O   LIG    1        6.566  -0.992   2.028  0.00  0.00    -0.290 OA
ENDBRANCH  13  15
ENDBRANCH  12  13
ENDBRANCH  11  12
ENDBRANCH   9  11
ENDBRANCH   4   7
BRANCH   1  21
ATOM     21  S   LIG    1        1.008  10.151   0.428  0.00  0.00    +2.690 S 
ATOM     22  O   LIG    1        2.195  10.744   0.936  0.00  0.00    -0.950 OA
ATOM     23  O   LIG    1       -0.257  10.279   1.063  0.00  0.00    -0.950 OA
BRANCH  21  24
ATOM     24  N   LIG    1        0.819  10.728  -1.112  0.00  0.00    -1.000 NA
BRANCH  24  26
ATOM     25  C   LIG    1       -1.146  12.124  -1.527  0.00  0.00    +0.010 C 
ATOM     26  C   LIG    1       -0.510  10.747  -1.729  0.00  0.00    +0.280 C 
ENDBRANCH  24  26
BRANCH  24  27
ATOM     27  C   LIG    1        1.980  11.219  -1.858  0.00  0.00    +0.290 C 
ATOM     28  C   LIG    1        2.534  10.096  -2.738  0.00  0.00    +0.010 C 
ENDBRANCH  24  27
ENDBRANCH  21  24
ENDBRANCH   1  21
TORSDOF 9
