REMARK  Name = ZINCb800000011hs.0
REMARK                            x       y       z     vdW  Elec       q    Type
REMARK                         _______ _______ _______ _____ _____    ______ ____
ROOT
ATOM      1  N   LIG    1       -1.241   3.442   0.027  0.00  0.00    -0.580 N 
ATOM      2  H   LIG    1       -0.411   3.938   0.109  0.00  0.00    +0.440 HD
ENDROOT
BRANCH   1   3
ATOM      3  C   LIG    1       -2.395   4.091  -0.065  0.00  0.00    +0.480 C 
ATOM      4  C   LIG    1       -2.565   5.491  -0.163  0.00  0.00    -0.100 C 
ATOM      5  C   LIG    1       -3.886   5.753  -0.240  0.00  0.00    +0.410 C 
ATOM      6  N   LIG    1       -4.576   4.575  -0.185  0.00  0.00    -0.460 N 
ATOM      7  H   LIG    1       -5.541   4.480  -0.216  0.00  0.00    +0.460 HD
ATOM      8  N   LIG    1       -3.651   3.527  -0.075  0.00  0.00    -0.410 NA
ATOM      9  H   LIG    1       -3.858   2.581  -0.018  0.00  0.00    +0.470 HD
ENDBRANCH   1   3
BRANCH   1  11
ATOM     10  C   LIG    1       -0.016   1.429  -0.008  0.00  0.00    -0.240 C 
ATOM     11  C   LIG    1       -1.222   2.102   0.005  0.00  0.00    +0.430 C 
ATOM     12  O   LIG    1       -2.385   1.409  -0.005  0.00  0.00    -0.690 OA
BRANCH  10  14
ATOM     13  N   LIG    1        0.020  -1.139  -0.050  0.00  0.00    -0.510 NA
ATOM     14  C   LIG    1        0.004  -0.003  -0.031  0.00  0.00    +0.300 C 
ENDBRANCH  10  14
ENDBRANCH   1  11
TORSDOF 3
