REMARK  Name = ZINCpe000000TB4w.0
REMARK                            x       y       z     vdW  Elec       q    Type
REMARK                         _______ _______ _______ _____ _____    ______ ____
ROOT
ATOM      1  C   LIG    1       -2.541  -2.749  -0.018  0.00  0.00    +0.190 A 
ATOM      2  N   LIG    1       -3.428  -2.639  -0.966  0.00  0.00    -0.230 NA
ATOM      3  N   LIG    1       -4.540  -3.164  -0.593  0.00  0.00    -0.290 NA
ATOM      4  C   LIG    1       -4.426  -3.634   0.626  0.00  0.00    +0.370 A 
ATOM      5  N   LIG    1       -3.145  -3.385   1.034  0.00  0.00    -0.410 N 
ENDROOT
BRANCH   4   6
ATOM      6  N   LIG    1       -5.417  -4.264   1.363  0.00  0.00    -0.460 N 
ATOM      7  C   LIG    1       -5.882  -5.483   0.685  0.00  0.00    +0.190 C 
ATOM      8  C   LIG    1       -6.930  -6.178   1.558  0.00  0.00    +0.240 C 
ATOM      9  O   LIG    1       -7.999  -5.266   1.827  0.00  0.00    -0.380 OA
ATOM     10  C   LIG    1       -7.582  -4.068   2.487  0.00  0.00    +0.240 C 
ATOM     11  C   LIG    1       -6.540  -3.352   1.623  0.00  0.00    +0.190 C 
ENDBRANCH   4   6
BRANCH   5  12
ATOM     12  C   LIG    1       -2.570  -3.711   2.271  0.00  0.00    +0.100 A 
ATOM     13  C   LIG    1       -2.382  -5.042   2.620  0.00  0.00    +0.040 A 
ATOM     14  C   LIG    1       -1.811  -5.360   3.837  0.00  0.00    +0.040 A 
ATOM     15  C   LIG    1       -1.437  -4.356   4.711  0.00  0.00    +0.030 A 
ATOM     16  C   LIG    1       -1.628  -3.031   4.368  0.00  0.00    +0.040 A 
ATOM     17  C   LIG    1       -2.193  -2.706   3.150  0.00  0.00    +0.020 A 
ENDBRANCH   5  12
BRANCH   1  18
ATOM     18  C   LIG    1       -1.115  -2.262  -0.067  0.00  0.00    +0.250 C 
BRANCH  18  21
ATOM     19  N   LIG    1        0.072  -0.113  -0.371  0.00  0.00    -0.720 N 
ATOM     20  H   LIG    1        0.907  -0.598  -0.284  0.00  0.00    +0.400 HD
ATOM     21  C   LIG    1       -1.101  -0.772  -0.291  0.00  0.00    +0.530 C 
ATOM     22  O   LIG    1       -2.146  -0.165  -0.400  0.00  0.00    -0.490 OA
BRANCH  19  24
ATOM     23  C   LIG    1        1.533   1.830  -0.639  0.00  0.00    +0.030 C 
ATOM     24  C   LIG    1        0.086   1.335  -0.589  0.00  0.00    +0.250 C 
ENDBRANCH  19  24
ENDBRANCH  18  21
BRANCH  18  25
ATOM     25  C   LIG    1       -0.406  -2.931  -1.170  0.00  0.00    +0.200 C 
ATOM     26  N   LIG    1        0.141  -3.447  -2.022  0.00  0.00    -0.370 NA
ENDBRANCH  18  25
ENDBRANCH   1  18
TORSDOF 6
