REMARK  Name = ZINCvU0000000D50.0
REMARK                            x       y       z     vdW  Elec       q    Type
REMARK                         _______ _______ _______ _____ _____    ______ ____
ROOT
ATOM      1  O   LIG    1       -4.101  -1.832   0.037  0.00  0.00    -0.500 OA
ATOM      2  C   LIG    1       -4.100  -0.619   0.036  0.00  0.00    +0.540 C 
ATOM      3  N   LIG    1       -5.266   0.057   0.053  0.00  0.00    -0.660 N 
ATOM      4  H   LIG    1       -5.265   1.024   0.133  0.00  0.00    +0.410 HD
ENDROOT
BRANCH   3   5
ATOM      5  C   LIG    1       -6.476  -0.635  -0.044  0.00  0.00    +0.160 A 
ATOM      6  C   LIG    1       -6.519  -1.880  -0.655  0.00  0.00    +0.020 A 
ATOM      7  C   LIG    1       -7.715  -2.565  -0.745  0.00  0.00    +0.040 A 
ATOM      8  C   LIG    1       -8.878  -2.011  -0.238  0.00  0.00    +0.000 A 
ATOM      9  C   LIG    1       -8.851  -0.771   0.367  0.00  0.00    +0.040 A 
ATOM     10  C   LIG    1       -7.650  -0.073   0.469  0.00  0.00    -0.080 A 
BRANCH  10  11
ATOM     11  C   LIG    1       -7.616   1.260   1.119  0.00  0.00    -0.050 A 
ATOM     12  C   LIG    1       -6.677   1.530   2.112  0.00  0.00    +0.000 A 
ATOM     13  C   LIG    1       -6.646   2.774   2.709  0.00  0.00    +0.000 A 
ATOM     14  C   LIG    1       -7.552   3.749   2.330  0.00  0.00    +0.000 A 
ATOM     15  C   LIG    1       -8.490   3.484   1.349  0.00  0.00    +0.010 A 
ATOM     16  C   LIG    1       -8.526   2.246   0.741  0.00  0.00    +0.030 A 
ENDBRANCH  10  11
ENDBRANCH   3   5
BRANCH   2  17
ATOM     17  C   LIG    1       -2.793   0.133   0.015  0.00  0.00    +0.100 C 
BRANCH  17  18
ATOM     18  S   LIG    1       -1.417  -1.048  -0.005  0.00  0.00    +0.120 S 
BRANCH  18  19
ATOM     19  C   LIG    1        0.002  -0.003  -0.027  0.00  0.00    +0.200 A 
ATOM     20  N   LIG    1       -0.016   1.310  -0.027  0.00  0.00    -0.320 NA
ATOM     21  N   LIG    1        1.322   1.733  -0.048  0.00  0.00    -0.320 N 
ATOM     22  C   LIG    1        2.075   0.617  -0.059  0.00  0.00    +0.330 A 
ATOM     23  N   LIG    1        1.273  -0.417  -0.046  0.00  0.00    -0.510 NA
BRANCH  21  24
ATOM     24  C   LIG    1        1.784   3.057  -0.056  0.00  0.00    +0.140 A 
ATOM     25  C   LIG    1        2.950   3.391   0.620  0.00  0.00    +0.020 A 
ATOM     26  C   LIG    1        3.404   4.695   0.606  0.00  0.00    +0.040 A 
ATOM     27  C   LIG    1        2.694   5.669  -0.071  0.00  0.00    +0.020 A 
ATOM     28  C   LIG    1        1.530   5.340  -0.741  0.00  0.00    +0.030 A 
ATOM     29  C   LIG    1        1.073   4.037  -0.735  0.00  0.00    +0.030 A 
ENDBRANCH  21  24
BRANCH  22  30
ATOM     30  C   LIG    1        3.582   0.567  -0.081  0.00  0.00    +0.020 C 
ATOM     31  C   LIG    1        4.240  -0.798  -0.294  0.00  0.00    +0.080 C 
ATOM     32  C   LIG    1        4.282  -0.134   1.084  0.00  0.00    +0.060 C 
ENDBRANCH  22  30
ENDBRANCH  18  19
ENDBRANCH  17  18
ENDBRANCH   2  17
TORSDOF 7
