REMARK  Name = ZINCpe00000gN4Jo.0
REMARK                            x       y       z     vdW  Elec       q    Type
REMARK                         _______ _______ _______ _____ _____    ______ ____
ROOT
ATOM      1  N   LIG    1       -3.915   2.233   1.347  0.00  0.00    -0.490 N 
ATOM      2  C   LIG    1       -3.888   1.110   0.401  0.00  0.00    +0.200 C 
ATOM      3  C   LIG    1       -2.480   0.512   0.359  0.00  0.00    +0.060 C 
ATOM      4  C   LIG    1       -1.484   1.592  -0.073  0.00  0.00    -0.010 C 
ATOM      5  C   LIG    1       -1.567   2.771   0.900  0.00  0.00    +0.050 C 
ATOM      6  C   LIG    1       -3.002   3.303   0.928  0.00  0.00    +0.210 C 
ENDROOT
BRANCH   4   7
ATOM      7  C   LIG    1       -0.088   1.025  -0.059  0.00  0.00    +0.520 C 
ATOM      8  N   LIG    1        0.914   1.686  -0.671  0.00  0.00    -0.610 N 
ATOM      9  C   LIG    1        2.299   1.204  -0.573  0.00  0.00    +0.280 C 
ATOM     10  C   LIG    1        2.869   1.050  -1.986  0.00  0.00    +0.020 C 
ATOM     11  C   LIG    1        2.716   2.373  -2.741  0.00  0.00    +0.030 C 
ATOM     12  C   LIG    1        1.232   2.728  -2.855  0.00  0.00    -0.030 C 
ATOM     13  C   LIG    1        0.642   2.898  -1.456  0.00  0.00    +0.290 C 
ATOM     14  O   LIG    1        0.133  -0.029   0.500  0.00  0.00    -0.530 OA
BRANCH  12  15
ATOM     15  C   LIG    1        1.080   4.014  -3.627  0.00  0.00    +0.530 C 
ATOM     16  O   LIG    1        0.551   4.973  -3.107  0.00  0.00    -0.540 OA
ATOM     17  N   LIG    1        1.532   4.096  -4.893  0.00  0.00    -0.850 N 
ATOM     18  H   LIG    1        1.435   4.924  -5.390  0.00  0.00    +0.400 HD
ATOM     19  H   LIG    1        1.956   3.329  -5.308  0.00  0.00    +0.400 HD
ENDBRANCH  12  15
ENDBRANCH   4   7
BRANCH   1  25
ATOM     20  C   LIG    1       -5.638   3.138   2.776  0.00  0.00    -0.060 A 
ATOM     21  C   LIG    1       -6.942   3.625   2.913  0.00  0.00    +0.130 A 
ATOM     22  C   LIG    1       -7.753   3.659   1.791  0.00  0.00    -0.030 A 
ATOM     23  C   LIG    1       -7.255   3.220   0.578  0.00  0.00    +0.310 A 
ATOM     24  N   LIG    1       -6.020   2.768   0.468  0.00  0.00    -0.510 NA
ATOM     25  C   LIG    1       -5.203   2.714   1.508  0.00  0.00    +0.350 A 
BRANCH  20  27
ATOM     26  N   LIG    1       -4.064   3.029   4.802  0.00  0.00    -0.400 NA
ATOM     27  C   LIG    1       -4.760   3.077   3.906  0.00  0.00    +0.260 C 
ENDBRANCH  20  27
ENDBRANCH   1  25
TORSDOF 4
