REMARK  Name = ZINCqH0000000oia.0
REMARK                            x       y       z     vdW  Elec       q    Type
REMARK                         _______ _______ _______ _____ _____    ______ ____
ROOT
ATOM      1  C   LIG    1       -1.853  -1.210  -3.122  0.00  0.00    +0.060 C 
ENDROOT
BRANCH   1  13
ATOM      2  C   LIG    1       -5.247   1.799  -2.131  0.00  0.00    +0.100 C 
ATOM      3  C   LIG    1       -4.631   0.424  -2.171  0.00  0.00    +0.510 C 
ATOM      4  N   LIG    1       -3.968   0.015  -3.271  0.00  0.00    -0.560 N 
ATOM      5  C   LIG    1       -3.850   0.859  -4.369  0.00  0.00    +0.240 C 
ATOM      6  C   LIG    1       -3.810   0.338  -5.601  0.00  0.00    -0.040 C 
ATOM      7  C   LIG    1       -3.865  -1.128  -5.766  0.00  0.00    -0.030 A 
ATOM      8  C   LIG    1       -4.094  -1.699  -7.016  0.00  0.00    +0.020 A 
ATOM      9  C   LIG    1       -4.151  -3.073  -7.140  0.00  0.00    +0.010 A 
ATOM     10  C   LIG    1       -3.973  -3.880  -6.031  0.00  0.00    +0.000 A 
ATOM     11  C   LIG    1       -3.725  -3.319  -4.789  0.00  0.00    +0.030 A 
ATOM     12  C   LIG    1       -3.660  -1.952  -4.652  0.00  0.00    -0.100 A 
ATOM     13  C   LIG    1       -3.367  -1.322  -3.314  0.00  0.00    +0.320 C 
ATOM     14  O   LIG    1       -4.732  -0.314  -1.214  0.00  0.00    -0.480 OA
ENDBRANCH   1  13
BRANCH   1  15
ATOM     15  C   LIG    1       -1.559  -0.690  -1.738  0.00  0.00    +0.500 C 
ATOM     16  N   LIG    1       -0.283  -0.509  -1.343  0.00  0.00    -0.720 N 
ATOM     17  H   LIG    1        0.446  -0.713  -1.950  0.00  0.00    +0.400 HD
ATOM     18  O   LIG    1       -2.471  -0.435  -0.980  0.00  0.00    -0.500 OA
BRANCH  16  19
ATOM     19  C   LIG    1        0.002  -0.004   0.002  0.00  0.00    +0.290 C 
ATOM     20  C   LIG    1        1.435  -0.391   0.426  0.00  0.00    +0.050 C 
ATOM     21  C   LIG    1        2.255   0.840  -0.015  0.00  0.00    +0.080 C 
ATOM     22  C   LIG    1        1.276   1.994   0.001  0.00  0.00    -0.090 A 
ATOM     23  C   LIG    1        1.500   3.361   0.005  0.00  0.00    +0.010 A 
ATOM     24  C   LIG    1        0.435   4.240   0.020  0.00  0.00    +0.010 A 
ATOM     25  C   LIG    1       -0.859   3.755   0.030  0.00  0.00    -0.010 A 
ATOM     26  C   LIG    1       -1.085   2.392   0.020  0.00  0.00    +0.040 A 
ATOM     27  C   LIG    1       -0.018   1.509   0.010  0.00  0.00    -0.110 A 
ENDBRANCH  16  19
ENDBRANCH   1  15
TORSDOF 3
