REMARK  Name = ZINCqH0000001we8.0
REMARK                            x       y       z     vdW  Elec       q    Type
REMARK                         _______ _______ _______ _____ _____    ______ ____
ROOT
ATOM      1  N   LIG    1       -5.664   4.040   1.811  0.00  0.00    -0.670 N 
ATOM      2  H   LIG    1       -5.514   3.417   2.538  0.00  0.00    +0.410 HD
ATOM      3  C   LIG    1       -4.701   4.246   0.891  0.00  0.00    +0.520 C 
ATOM      4  O   LIG    1       -4.915   4.968  -0.060  0.00  0.00    -0.510 OA
ENDROOT
BRANCH   1   8
ATOM      5  C   LIG    1       -9.288   6.085   1.530  0.00  0.00    +0.130 A 
ATOM      6  C   LIG    1       -8.627   5.684   0.379  0.00  0.00    -0.040 A 
ATOM      7  C   LIG    1       -7.426   5.007   0.471  0.00  0.00    +0.080 A 
ATOM      8  C   LIG    1       -6.881   4.728   1.717  0.00  0.00    +0.120 A 
ATOM      9  C   LIG    1       -7.545   5.125   2.870  0.00  0.00    +0.040 A 
ATOM     10  C   LIG    1       -8.743   5.806   2.776  0.00  0.00    -0.050 A 
ATOM     11 CL   LIG    1       -9.571   6.309   4.217  0.00  0.00    -0.050 Cl
BRANCH   5  12
ATOM     12  O   LIG    1      -10.470   6.751   1.438  0.00  0.00    -0.300 OA
BRANCH  12  14
ATOM     13  C   LIG    1      -11.810   5.665  -0.255  0.00  0.00    +0.020 C 
ATOM     14  C   LIG    1      -11.020   6.918   0.130  0.00  0.00    +0.150 C 
ATOM     15  C   LIG    1      -11.952   8.131   0.119  0.00  0.00    +0.070 C 
ENDBRANCH  12  14
ENDBRANCH   5  12
ENDBRANCH   1   8
BRANCH   3  16
ATOM     16  C   LIG    1       -3.358   3.580   1.044  0.00  0.00    -0.010 C 
ATOM     17  C   LIG    1       -2.454   3.977  -0.127  0.00  0.00    +0.070 C 
ATOM     18  C   LIG    1       -1.113   3.250   0.001  0.00  0.00    +0.230 C 
ATOM     19  N   LIG    1       -1.339   1.799  -0.002  0.00  0.00    -0.460 N 
ATOM     20  C   LIG    1       -2.166   1.388   1.140  0.00  0.00    +0.220 C 
ATOM     21  C   LIG    1       -3.538   2.060   1.046  0.00  0.00    +0.060 C 
BRANCH  19  22
ATOM     22  C   LIG    1       -0.139   1.110  -0.019  0.00  0.00    +0.490 A 
ATOM     23  N   LIG    1        0.997   1.791  -0.035  0.00  0.00    -0.550 NA
ATOM     24  C   LIG    1        2.161   1.163  -0.057  0.00  0.00    +0.340 A 
ATOM     25  C   LIG    1        2.182  -0.223  -0.063  0.00  0.00    -0.110 A 
ATOM     26  C   LIG    1        0.975  -0.904  -0.045  0.00  0.00    +0.350 A 
ATOM     27  N   LIG    1       -0.154  -0.215  -0.024  0.00  0.00    -0.530 NA
ENDBRANCH  19  22
ENDBRANCH   3  16
TORSDOF 5
