REMARK  Name = ZINCpk00000KfKHp.0
REMARK                            x       y       z     vdW  Elec       q    Type
REMARK                         _______ _______ _______ _____ _____    ______ ____
ROOT
ATOM      1  C   LIG    1       -2.817   1.578  -1.453  0.00  0.00    +0.080 C 
ATOM      2  C   LIG    1       -1.808   0.440  -1.278  0.00  0.00    +0.030 C 
ATOM      3  C   LIG    1       -0.752   0.854  -0.248  0.00  0.00    +0.280 C 
ATOM      4  N   LIG    1       -1.429   1.256   0.992  0.00  0.00    -0.600 N 
ATOM      5  C   LIG    1       -2.484   2.276   0.922  0.00  0.00    +0.260 C 
ATOM      6  C   LIG    1       -1.091   0.697   2.171  0.00  0.00    +0.570 C 
ATOM      7  O   LIG    1       -0.296  -0.222   2.202  0.00  0.00    -0.530 OA
ATOM      8  C   LIG    1       -3.521   1.847  -0.121  0.00  0.00    +0.020 C 
ENDROOT
BRANCH   1  12
ATOM      9  C   LIG    1       -5.645   1.540  -5.591  0.00  0.00    +0.360 C 
ATOM     10  N   LIG    1       -5.067   1.177  -4.295  0.00  0.00    -0.380 N 
ATOM     11  C   LIG    1       -4.085   1.841  -3.649  0.00  0.00    +0.230 A 
ATOM     12  C   LIG    1       -3.838   1.188  -2.490  0.00  0.00    -0.230 A 
ATOM     13  C   LIG    1       -4.694   0.083  -2.428  0.00  0.00    +0.230 A 
ATOM     14  N   LIG    1       -5.435   0.079  -3.506  0.00  0.00    -0.300 NA
ENDBRANCH   1  12
BRANCH   6  15
ATOM     15  C   LIG    1       -1.687   1.200   3.425  0.00  0.00    -0.190 A 
ATOM     16  C   LIG    1       -2.000   0.318   4.468  0.00  0.00    +0.160 A 
ATOM     17  C   LIG    1       -2.552   0.837   5.623  0.00  0.00    +0.000 A 
ATOM     18  C   LIG    1       -2.786   2.206   5.709  0.00  0.00    +0.380 A 
ATOM     19  N   LIG    1       -2.483   3.013   4.703  0.00  0.00    -0.500 NA
ATOM     20  C   LIG    1       -1.952   2.561   3.587  0.00  0.00    +0.350 A 
BRANCH  18  21
ATOM     21  N   LIG    1       -3.347   2.736   6.871  0.00  0.00    -0.340 N 
ATOM     22  C   LIG    1       -3.630   4.032   7.114  0.00  0.00    +0.530 A 
ATOM     23  N   LIG    1       -4.148   4.115   8.312  0.00  0.00    -0.540 NA
ATOM     24  C   LIG    1       -4.203   2.904   8.866  0.00  0.00    +0.450 A 
ATOM     25  N   LIG    1       -3.724   2.027   8.023  0.00  0.00    -0.310 NA
ENDBRANCH  18  21
ENDBRANCH   6  15
TORSDOF 3
