REMARK  Name = ZINCrH000004otDG.0
REMARK                            x       y       z     vdW  Elec       q    Type
REMARK                         _______ _______ _______ _____ _____    ______ ____
ROOT
ATOM      1  N   LIG    1       -3.463   3.260  -0.925  0.00  0.00    -0.610 N 
ATOM      2  C   LIG    1       -3.908   3.922  -2.011  0.00  0.00    +0.560 C 
ATOM      3  O   LIG    1       -3.479   5.031  -2.265  0.00  0.00    -0.520 OA
ATOM      4  C   LIG    1       -3.881   1.876  -0.689  0.00  0.00    +0.300 C 
ENDROOT
BRANCH   2   5
ATOM      5  C   LIG    1       -4.916   3.302  -2.892  0.00  0.00    -0.130 A 
ATOM      6  C   LIG    1       -4.879   3.533  -4.270  0.00  0.00    +0.100 A 
ATOM      7  C   LIG    1       -5.814   2.952  -5.087  0.00  0.00    +0.000 A 
ATOM      8  C   LIG    1       -6.807   2.140  -4.543  0.00  0.00    -0.080 A 
ATOM      9  C   LIG    1       -6.849   1.911  -3.170  0.00  0.00    +0.050 A 
ATOM     10  C   LIG    1       -5.914   2.486  -2.349  0.00  0.00    +0.080 A 
BRANCH   8  11
ATOM     11  S   LIG    1       -8.011   1.400  -5.595  0.00  0.00    -0.010 S 
BRANCH  11  12
ATOM     12  C   LIG    1       -7.532   1.990  -7.242  0.00  0.00    +0.450 C 
ATOM     13  F   LIG    1       -7.581   3.388  -7.269  0.00  0.00    -0.160 F 
ATOM     14  F   LIG    1       -8.415   1.474  -8.197  0.00  0.00    -0.140 F 
ATOM     15  F   LIG    1       -6.232   1.563  -7.530  0.00  0.00    -0.160 F 
ENDBRANCH  11  12
ENDBRANCH   8  11
ENDBRANCH   2   5
BRANCH   1  17
ATOM     16  C   LIG    1       -3.156   3.855   1.427  0.00  0.00    +0.060 C 
ATOM     17  C   LIG    1       -2.561   3.924   0.019  0.00  0.00    +0.290 C 
BRANCH  17  18
ATOM     18  C   LIG    1       -1.222   3.233   0.005  0.00  0.00    -0.040 A 
ATOM     19  C   LIG    1       -0.772   2.621  -1.150  0.00  0.00    +0.000 A 
ATOM     20  C   LIG    1        0.455   1.984  -1.162  0.00  0.00    +0.130 A 
ATOM     21  C   LIG    1        1.235   1.966  -0.021  0.00  0.00    -0.680 A 
ATOM     22  C   LIG    1        0.787   2.580   1.133  0.00  0.00    +0.140 A 
ATOM     23  C   LIG    1       -0.442   3.214   1.146  0.00  0.00    +0.010 A 
BRANCH  21  24
ATOM     24  S   LIG    1        2.801   1.159  -0.038  0.00  0.00    +2.700 S 
ATOM     25  O   LIG    1        2.747   0.199  -1.084  0.00  0.00    -0.960 OA
ATOM     26  O   LIG    1        3.094   0.822   1.311  0.00  0.00    -0.960 OA
BRANCH  24  27
ATOM     27  N   LIG    1        3.928   2.284  -0.494  0.00  0.00    -1.250 NA
ATOM     28  H   LIG    1        4.862   2.034  -0.564  0.00  0.00    +0.420 HD
ATOM     29  H   LIG    1        3.653   3.193  -0.691  0.00  0.00    +0.420 HD
ENDBRANCH  24  27
ENDBRANCH  21  24
ENDBRANCH  17  18
ENDBRANCH   1  17
TORSDOF 7
