REMARK  Name = ZINCqH0000000Cw5.0
REMARK                            x       y       z     vdW  Elec       q    Type
REMARK                         _______ _______ _______ _____ _____    ______ ____
ROOT
ATOM      1  O   LIG    1        0.002  -0.004   0.002  0.00  0.00    -0.280 OA
ENDROOT
BRANCH   1   2
ATOM      2  C   LIG    1       -0.016   1.355   0.009  0.00  0.00    +0.130 A 
ATOM      3  C   LIG    1       -1.226   2.033   0.019  0.00  0.00    +0.020 A 
ATOM      4  C   LIG    1       -1.242   3.414   0.031  0.00  0.00    -0.140 A 
ATOM      5  C   LIG    1       -0.054   4.121   0.024  0.00  0.00    +0.090 A 
ATOM      6  C   LIG    1        1.153   3.447   0.009  0.00  0.00    -0.140 A 
ATOM      7  C   LIG    1        1.175   2.066   0.002  0.00  0.00    +0.090 A 
BRANCH   6   8
ATOM      8  C   LIG    1        2.447   4.220   0.001  0.00  0.00    +0.510 C 
ATOM      9  F   LIG    1        2.519   5.020   1.147  0.00  0.00    -0.170 F 
ATOM     10  F   LIG    1        2.499   5.031  -1.137  0.00  0.00    -0.170 F 
ATOM     11  F   LIG    1        3.524   3.327  -0.013  0.00  0.00    -0.170 F 
ENDBRANCH   6   8
BRANCH   4  12
ATOM     12  C   LIG    1       -2.557   4.152   0.047  0.00  0.00    +0.510 C 
ATOM     13  F   LIG    1       -2.398   5.373   0.712  0.00  0.00    -0.170 F 
ATOM     14  F   LIG    1       -3.516   3.381   0.712  0.00  0.00    -0.170 F 
ATOM     15  F   LIG    1       -2.975   4.387  -1.267  0.00  0.00    -0.170 F 
ENDBRANCH   4  12
ENDBRANCH   1   2
BRANCH   1  16
ATOM     16  C   LIG    1       -1.262  -0.670   0.011  0.00  0.00    +0.260 C 
BRANCH  16  22
ATOM     17  N   LIG    1       -2.965  -5.166   0.003  0.00  0.00    -0.730 N 
ATOM     18  H   LIG    1       -3.866  -4.807   0.013  0.00  0.00    +0.400 HD
ATOM     19  C   LIG    1       -1.907  -4.330  -0.003  0.00  0.00    +0.700 C 
ATOM     20  N   LIG    1       -2.102  -2.997   0.006  0.00  0.00    -0.690 N 
ATOM     21  H   LIG    1       -3.003  -2.638   0.017  0.00  0.00    +0.410 HD
ATOM     22  C   LIG    1       -1.044  -2.161   0.000  0.00  0.00    +0.520 C 
ATOM     23  O   LIG    1        0.082  -2.609  -0.013  0.00  0.00    -0.430 OA
ATOM     24  O   LIG    1       -0.778  -4.779  -0.016  0.00  0.00    -0.520 OA
BRANCH  17  26
ATOM     25  C   LIG    1       -1.954  -7.022   1.232  0.00  0.00    +0.030 C 
ATOM     26  C   LIG    1       -2.753  -6.615  -0.007  0.00  0.00    +0.180 C 
ATOM     27  C   LIG    1       -1.978  -7.009  -1.266  0.00  0.00    +0.030 C 
ATOM     28  C   LIG    1       -4.107  -7.329   0.002  0.00  0.00    +0.040 C 
ENDBRANCH  17  26
ENDBRANCH  16  22
ENDBRANCH   1  16
TORSDOF 6
