REMARK  Name = ZINCvU0000000Hzs.0
REMARK                            x       y       z     vdW  Elec       q    Type
REMARK                         _______ _______ _______ _____ _____    ______ ____
ROOT
ATOM      1  O   LIG    1        2.687   5.183  -1.016  0.00  0.00    -0.500 OA
ATOM      2  C   LIG    1        1.905   5.939  -0.478  0.00  0.00    +0.540 C 
ATOM      3  N   LIG    1        0.747   5.466   0.023  0.00  0.00    -0.660 N 
ATOM      4  H   LIG    1        0.088   6.079   0.384  0.00  0.00    +0.420 HD
ENDROOT
BRANCH   3   5
ATOM      5  C   LIG    1        0.495   4.088   0.024  0.00  0.00    +0.150 A 
ATOM      6  C   LIG    1       -0.801   3.619  -0.141  0.00  0.00    +0.010 A 
ATOM      7  C   LIG    1       -1.050   2.259  -0.145  0.00  0.00    +0.060 A 
ATOM      8  C   LIG    1       -0.009   1.361   0.024  0.00  0.00    +0.020 A 
ATOM      9  O   LIG    1        0.010  -0.005   0.061  0.00  0.00    -0.290 OA
ATOM     10  C   LIG    1        1.274  -0.352   0.643  0.00  0.00    +0.270 C 
ATOM     11  O   LIG    1        2.128   0.757   0.330  0.00  0.00    -0.290 OA
ATOM     12  C   LIG    1        1.813  -1.633   0.015  0.00  0.00    +0.060 C 
ATOM     13  C   LIG    1        0.869  -2.796   0.333  0.00  0.00    +0.030 C 
ATOM     14  C   LIG    1        0.757  -2.959   1.850  0.00  0.00    +0.010 C 
ATOM     15  C   LIG    1        0.196  -1.675   2.464  0.00  0.00    +0.030 C 
ATOM     16  C   LIG    1        1.138  -0.509   2.154  0.00  0.00    +0.010 C 
ATOM     17  C   LIG    1        1.293   1.829   0.189  0.00  0.00    +0.060 A 
ATOM     18  C   LIG    1        1.542   3.191   0.189  0.00  0.00    +0.050 A 
ENDBRANCH   3   5
BRANCH   2  19
ATOM     19  C   LIG    1        2.228   7.407  -0.372  0.00  0.00    +0.110 C 
BRANCH  19  20
ATOM     20  S   LIG    1        3.839   7.727  -1.133  0.00  0.00    +0.160 S 
BRANCH  20  21
ATOM     21  C   LIG    1        3.960   9.466  -0.874  0.00  0.00    +0.120 A 
ATOM     22  N   LIG    1        3.067  10.228  -0.285  0.00  0.00    -0.290 NA
ATOM     23  N   LIG    1        3.486  11.444  -0.268  0.00  0.00    -0.260 NA
ATOM     24  C   LIG    1        4.658  11.509  -0.852  0.00  0.00    +0.210 A 
ATOM     25  O   LIG    1        4.982  10.258  -1.248  0.00  0.00    -0.200 OA
BRANCH  24  26
ATOM     26  C   LIG    1        5.474  12.726  -1.042  0.00  0.00    -0.010 A 
ATOM     27  C   LIG    1        6.713  12.646  -1.681  0.00  0.00    +0.060 A 
ATOM     28  C   LIG    1        7.468  13.787  -1.859  0.00  0.00    +0.050 A 
ATOM     29  C   LIG    1        7.005  15.007  -1.399  0.00  0.00    +0.060 A 
ATOM     30  C   LIG    1        5.779  15.092  -0.760  0.00  0.00    -0.040 A 
ATOM     31 CL   LIG    1        5.207  16.628  -0.187  0.00  0.00    -0.050 Cl
ATOM     32  C   LIG    1        5.011  13.960  -0.580  0.00  0.00    +0.090 A 
ENDBRANCH  24  26
ENDBRANCH  20  21
ENDBRANCH  19  20
ENDBRANCH   2  19
TORSDOF 5
