REMARK  Name = ZINCqH0000007lcA.0
REMARK                            x       y       z     vdW  Elec       q    Type
REMARK                         _______ _______ _______ _____ _____    ______ ____
ROOT
ATOM      1  N   LIG    1       -0.579  -5.387  -0.020  0.00  0.00    -0.650 N 
ATOM      2  H   LIG    1       -1.489  -5.064   0.067  0.00  0.00    +0.420 HD
ATOM      3  C   LIG    1        0.448  -4.514  -0.029  0.00  0.00    +0.540 C 
ATOM      4  O   LIG    1        1.591  -4.921  -0.037  0.00  0.00    -0.500 OA
ENDROOT
BRANCH   1   9
ATOM      5  C   LIG    1        1.071  -8.569  -0.863  0.00  0.00    +0.120 A 
ATOM      6  C   LIG    1        0.155  -9.482  -0.363  0.00  0.00    -0.050 A 
ATOM      7  C   LIG    1       -1.002  -9.038   0.251  0.00  0.00    -0.010 A 
ATOM      8  C   LIG    1       -1.249  -7.681   0.366  0.00  0.00    +0.070 A 
ATOM      9  C   LIG    1       -0.331  -6.761  -0.135  0.00  0.00    +0.160 A 
ATOM     10  C   LIG    1        0.827  -7.209  -0.754  0.00  0.00    +0.030 A 
BRANCH   5  12
ATOM     11  C   LIG    1        2.393 -10.423  -1.549  0.00  0.00    +0.250 C 
ATOM     12  O   LIG    1        2.208  -9.009  -1.466  0.00  0.00    -0.310 OA
ENDBRANCH   5  12
BRANCH   8  13
ATOM     13  O   LIG    1       -2.389  -7.245   0.969  0.00  0.00    -0.320 OA
ATOM     14  C   LIG    1       -3.285  -8.243   1.460  0.00  0.00    +0.250 C 
ENDBRANCH   8  13
ENDBRANCH   1   9
BRANCH   3  15
ATOM     15  C   LIG    1        0.177  -3.032  -0.031  0.00  0.00    +0.120 C 
BRANCH  15  16
ATOM     16  S   LIG    1        1.750  -2.129  -0.044  0.00  0.00    +0.100 S 
BRANCH  16  17
ATOM     17  C   LIG    1        1.239  -0.442  -0.045  0.00  0.00    +0.130 A 
ATOM     18  N   LIG    1        0.000  -0.004  -0.037  0.00  0.00    -0.250 NA
ATOM     19  N   LIG    1       -0.018   1.283  -0.040  0.00  0.00    -0.240 NA
ATOM     20  C   LIG    1        1.219   1.744  -0.050  0.00  0.00    +0.200 A 
ATOM     21  C   LIG    1        1.771   3.043  -0.056  0.00  0.00    +0.010 A 
ATOM     22  C   LIG    1        3.123   3.190  -0.066  0.00  0.00    +0.100 A 
ATOM     23  C   LIG    1        3.952   2.052  -0.070  0.00  0.00    -0.050 A 
ATOM     24  C   LIG    1        3.414   0.815  -0.063  0.00  0.00    +0.280 A 
ATOM     25 CL   LIG    1        5.678   2.242  -0.082  0.00  0.00    -0.010 Cl
ATOM     26 CL   LIG    1        0.736   4.436  -0.051  0.00  0.00    +0.000 Cl
ATOM     27  N   LIG    1        2.056   0.649  -0.053  0.00  0.00    -0.370 N 
ENDBRANCH  16  17
ENDBRANCH  15  16
ENDBRANCH   3  15
TORSDOF 6
