REMARK  Name = ZINCqH0000038UUj.0
REMARK                            x       y       z     vdW  Elec       q    Type
REMARK                         _______ _______ _______ _____ _____    ______ ____
ROOT
ATOM      1  C   LIG    1        1.367   3.511  -3.652  0.00  0.00    +0.270 C 
ENDROOT
BRANCH   1   2
ATOM      2  C   LIG    1        2.391   4.575  -3.352  0.00  0.00    -0.100 A 
ATOM      3  C   LIG    1        2.061   5.640  -2.535  0.00  0.00    +0.070 A 
ATOM      4  C   LIG    1        3.001   6.613  -2.254  0.00  0.00    -0.010 A 
ATOM      5  C   LIG    1        4.270   6.528  -2.802  0.00  0.00    +0.100 A 
ATOM      6  C   LIG    1        4.597   5.464  -3.625  0.00  0.00    -0.020 A 
ATOM      7  F   LIG    1        5.188   7.482  -2.533  0.00  0.00    -0.140 F 
ATOM      8  C   LIG    1        3.657   4.489  -3.900  0.00  0.00    +0.050 A 
ENDBRANCH   1   2
BRANCH   1  12
ATOM      9  C   LIG    1       -0.831   4.270  -8.093  0.00  0.00    +0.350 C 
ATOM     10  N   LIG    1       -0.523   4.330  -6.662  0.00  0.00    -0.380 N 
ATOM     11  C   LIG    1        0.491   3.692  -6.040  0.00  0.00    +0.230 A 
ATOM     12  C   LIG    1        0.430   4.003  -4.725  0.00  0.00    -0.220 A 
ATOM     13  C   LIG    1       -0.654   4.868  -4.537  0.00  0.00    +0.260 A 
ATOM     14  N   LIG    1       -1.226   5.064  -5.697  0.00  0.00    -0.300 NA
ENDBRANCH   1  12
BRANCH   1  15
ATOM     15  N   LIG    1        0.603   3.210  -2.434  0.00  0.00    -0.670 NA
ATOM     16  H   LIG    1        1.170   3.338  -1.610  0.00  0.00    +0.350 HD
BRANCH  15  17
ATOM     17  C   LIG    1        0.046   1.851  -2.485  0.00  0.00    +0.230 C 
BRANCH  17  18
ATOM     18  C   LIG    1       -0.729   1.579  -1.221  0.00  0.00    -0.170 C 
ATOM     19  C   LIG    1       -2.044   1.775  -1.196  0.00  0.00    +0.060 C 
ATOM     20  C   LIG    1       -2.766   1.529   0.071  0.00  0.00    -0.130 A 
ATOM     21  C   LIG    1       -4.152   1.451   0.115  0.00  0.00    +0.060 A 
ATOM     22  C   LIG    1       -4.784   1.212   1.321  0.00  0.00    -0.020 A 
ATOM     23  C   LIG    1       -4.043   1.060   2.479  0.00  0.00    +0.050 A 
ATOM     24  C   LIG    1       -2.663   1.155   2.448  0.00  0.00    -0.020 A 
ATOM     25  C   LIG    1       -2.018   1.400   1.250  0.00  0.00    +0.130 A 
ATOM     26  O   LIG    1       -0.669   1.540   1.191  0.00  0.00    -0.310 OA
ATOM     27  C   LIG    1       -0.013   1.086   0.008  0.00  0.00    +0.290 C 
ENDBRANCH  17  18
ENDBRANCH  15  17
ENDBRANCH   1  15
TORSDOF 5
