REMARK  Name = ZINCvU00000005Bz.0
REMARK                            x       y       z     vdW  Elec       q    Type
REMARK                         _______ _______ _______ _____ _____    ______ ____
ROOT
ATOM      1  N   LIG    1        4.845  -2.827  -0.061  0.00  0.00    -0.570 N 
ATOM      2  H   LIG    1        4.854  -3.797  -0.066  0.00  0.00    +0.390 HD
ATOM      3  C   LIG    1        6.006  -2.143  -0.069  0.00  0.00    +0.550 C 
ATOM      4  O   LIG    1        5.994  -0.929  -0.062  0.00  0.00    -0.480 OA
ENDROOT
BRANCH   1   7
ATOM      5  C   LIG    1        2.522  -4.305  -0.046  0.00  0.00    +0.100 C 
ATOM      6  C   LIG    1        2.508  -2.798  -0.037  0.00  0.00    +0.130 C 
ATOM      7  N   LIG    1        3.625  -2.138  -0.045  0.00  0.00    -0.220 NA
BRANCH   6   8
ATOM      8  C   LIG    1        1.224  -2.073  -0.021  0.00  0.00    -0.040 A 
ATOM      9  C   LIG    1        0.019  -2.779  -0.013  0.00  0.00    +0.110 A 
ATOM     10  C   LIG    1       -1.179  -2.094   0.002  0.00  0.00    +0.040 A 
ATOM     11  C   LIG    1       -1.188  -0.711   0.015  0.00  0.00    +0.120 A 
ATOM     12  C   LIG    1        0.002  -0.004   0.002  0.00  0.00    -0.040 A 
ATOM     13  C   LIG    1        1.206  -0.676  -0.013  0.00  0.00    +0.150 A 
BRANCH  12  14
ATOM     14  N   LIG    1       -0.018   1.476   0.010  0.00  0.00    +0.020 N 
ATOM     15  O   LIG    1       -1.081   2.071   0.018  0.00  0.00    -0.150 OA
ATOM     16  O   LIG    1        1.028   2.099   0.004  0.00  0.00    -0.150 OA
ENDBRANCH  12  14
ENDBRANCH   6   8
ENDBRANCH   1   7
BRANCH   3  17
ATOM     17  C   LIG    1        7.318  -2.884  -0.086  0.00  0.00    +0.110 C 
BRANCH  17  18
ATOM     18  S   LIG    1        8.685  -1.692  -0.093  0.00  0.00    +0.120 S 
BRANCH  18  19
ATOM     19  C   LIG    1       10.112  -2.726  -0.113  0.00  0.00    +0.000 A 
ATOM     20  N   LIG    1       10.100  -4.022  -0.114  0.00  0.00    -0.290 NA
ATOM     21  N   LIG    1       11.337  -4.629  -0.135  0.00  0.00    -0.280 NA
ATOM     22  C   LIG    1       12.355  -3.826  -0.141  0.00  0.00    +0.020 A 
ATOM     23  S   LIG    1       11.780  -2.162  -0.126  0.00  0.00    +0.160 S 
BRANCH  22  24
ATOM     24  S   LIG    1       14.046  -4.322  -0.161  0.00  0.00    +0.040 S 
BRANCH  24  25
ATOM     25  C   LIG    1       13.940  -6.132  -0.169  0.00  0.00    +0.150 C 
BRANCH  25  26
ATOM     26  C   LIG    1       15.329  -6.716  -0.186  0.00  0.00    -0.080 A 
ATOM     27  C   LIG    1       15.951  -6.983  -1.392  0.00  0.00    +0.060 A 
ATOM     28  C   LIG    1       17.227  -7.515  -1.408  0.00  0.00    +0.030 A 
ATOM     29  C   LIG    1       17.877  -7.790  -0.218  0.00  0.00    -0.020 A 
ATOM     30  C   LIG    1       17.252  -7.527   0.988  0.00  0.00    +0.030 A 
ATOM     31 CL   LIG    1       19.477  -8.464  -0.238  0.00  0.00    -0.060 Cl
ATOM     32  C   LIG    1       15.978  -6.991   1.003  0.00  0.00    +0.060 A 
ENDBRANCH  25  26
ENDBRANCH  24  25
ENDBRANCH  22  24
ENDBRANCH  18  19
ENDBRANCH  17  18
ENDBRANCH   3  17
TORSDOF 9
