REMARK  Name = ZINCpk000000nQ7o.1
REMARK                            x       y       z     vdW  Elec       q    Type
REMARK                         _______ _______ _______ _____ _____    ______ ____
ROOT
ATOM      1  N   LIG    1        1.357  -3.584   1.793  0.00  0.00    -0.530 NA
ATOM      2  C   LIG    1        2.050  -4.312   0.721  0.00  0.00    +0.190 C 
ATOM      3  C   LIG    1        3.488  -4.606   1.153  0.00  0.00    +0.210 C 
ATOM      4  N   LIG    1        3.473  -5.392   2.394  0.00  0.00    -0.490 N 
ATOM      5  C   LIG    1        2.780  -4.664   3.467  0.00  0.00    +0.200 C 
ATOM      6  C   LIG    1        1.342  -4.371   3.034  0.00  0.00    +0.200 C 
ENDROOT
BRANCH   4   7
ATOM      7  C   LIG    1        4.771  -5.742   2.783  0.00  0.00    +0.120 A 
ATOM      8  C   LIG    1        5.864  -5.179   2.142  0.00  0.00    -0.020 A 
ATOM      9  C   LIG    1        7.149  -5.524   2.525  0.00  0.00    +0.060 A 
ATOM     10  C   LIG    1        7.353  -6.429   3.547  0.00  0.00    +0.000 A 
ATOM     11  C   LIG    1        6.265  -6.998   4.197  0.00  0.00    +0.110 A 
ATOM     12  N   LIG    1        6.149  -7.918   5.237  0.00  0.00    -0.640 N 
ATOM     13  H   LIG    1        6.885  -8.337   5.708  0.00  0.00    +0.440 HD
ATOM     14  C   LIG    1        4.840  -8.114   5.486  0.00  0.00    +0.680 A 
ATOM     15  O   LIG    1        4.393  -8.859   6.338  0.00  0.00    -0.560 OA
ATOM     16  N   LIG    1        4.102  -7.369   4.642  0.00  0.00    -0.640 N 
ATOM     17  H   LIG    1        3.133  -7.336   4.612  0.00  0.00    +0.440 HD
ATOM     18  C   LIG    1        4.970  -6.651   3.818  0.00  0.00    +0.080 A 
ENDBRANCH   4   7
BRANCH   1  19
ATOM     19  C   LIG    1       -0.006  -3.217   1.385  0.00  0.00    +0.320 C 
BRANCH  19  22
ATOM     20  C   LIG    1        0.148  -0.320  -0.771  0.00  0.00    +0.290 A 
ATOM     21  N   LIG    1        0.100  -0.892   0.404  0.00  0.00    -0.520 NA
ATOM     22  C   LIG    1        0.059  -2.216   0.261  0.00  0.00    +0.240 A 
ATOM     23  N   LIG    1        0.089  -2.507  -1.014  0.00  0.00    -0.310 NA
ATOM     24  N   LIG    1        0.148  -1.286  -1.706  0.00  0.00    -0.480 N 
ATOM     25  H   LIG    1        0.182  -1.165  -2.668  0.00  0.00    +0.440 HD
BRANCH  20  27
ATOM     26  C   LIG    1        1.659   1.599  -1.199  0.00  0.00    +0.050 C 
ATOM     27  C   LIG    1        0.202   1.163  -1.032  0.00  0.00    +0.090 C 
ATOM     28  C   LIG    1       -0.577   1.485  -2.309  0.00  0.00    +0.040 C 
ENDBRANCH  20  27
ENDBRANCH  19  22
ENDBRANCH   1  19
TORSDOF 4
