REMARK  Name = ZINCpk000000nQ7o.0
REMARK                            x       y       z     vdW  Elec       q    Type
REMARK                         _______ _______ _______ _____ _____    ______ ____
ROOT
ATOM      1  N   LIG    1        0.002  -0.004   0.002  0.00  0.00    -0.530 NA
ATOM      2  C   LIG    1        0.551  -0.516  -1.261  0.00  0.00    +0.170 C 
ATOM      3  C   LIG    1        0.628  -2.044  -1.199  0.00  0.00    +0.190 C 
ATOM      4  N   LIG    1       -0.713  -2.590  -0.951  0.00  0.00    -0.510 N 
ATOM      5  C   LIG    1       -1.262  -2.078   0.313  0.00  0.00    +0.210 C 
ATOM      6  C   LIG    1       -1.339  -0.550   0.250  0.00  0.00    +0.200 C 
ENDROOT
BRANCH   4   7
ATOM      7  C   LIG    1       -0.694  -3.989  -0.958  0.00  0.00    +0.100 A 
ATOM      8  C   LIG    1        0.033  -4.681  -0.001  0.00  0.00    -0.010 A 
ATOM      9  C   LIG    1        0.052  -6.064  -0.007  0.00  0.00    +0.040 A 
ATOM     10  C   LIG    1       -0.651  -6.768  -0.965  0.00  0.00    +0.030 A 
ATOM     11  C   LIG    1       -1.383  -6.086  -1.928  0.00  0.00    +0.090 A 
ATOM     12  N   LIG    1       -2.175  -6.501  -2.997  0.00  0.00    -0.640 N 
ATOM     13  H   LIG    1       -2.348  -7.421  -3.250  0.00  0.00    +0.440 HD
ATOM     14  C   LIG    1       -2.669  -5.409  -3.609  0.00  0.00    +0.680 A 
ATOM     15  O   LIG    1       -3.401  -5.420  -4.581  0.00  0.00    -0.550 OA
ATOM     16  N   LIG    1       -2.220  -4.300  -2.989  0.00  0.00    -0.630 N 
ATOM     17  H   LIG    1       -2.426  -3.386  -3.240  0.00  0.00    +0.440 HD
ATOM     18  C   LIG    1       -1.410  -4.692  -1.923  0.00  0.00    +0.120 A 
ENDBRANCH   4   7
BRANCH   1  19
ATOM     19  C   LIG    1       -0.018   1.465   0.010  0.00  0.00    +0.310 C 
BRANCH  19  23
ATOM     20  C   LIG    1        3.317   2.757  -0.634  0.00  0.00    +0.190 A 
ATOM     21  N   LIG    1        3.305   2.620   0.664  0.00  0.00    -0.290 NA
ATOM     22  N   LIG    1        2.163   2.162   1.040  0.00  0.00    -0.270 NA
ATOM     23  C   LIG    1        1.396   1.986  -0.001  0.00  0.00    +0.180 A 
ATOM     24  N   LIG    1        2.108   2.354  -1.093  0.00  0.00    -0.580 N 
ATOM     25  H   LIG    1        1.811   2.335  -2.017  0.00  0.00    +0.420 HD
BRANCH  20  27
ATOM     26  C   LIG    1        5.278   2.079  -1.991  0.00  0.00    +0.040 C 
ATOM     27  C   LIG    1        4.466   3.265  -1.467  0.00  0.00    +0.100 C 
ATOM     28  C   LIG    1        3.921   4.071  -2.648  0.00  0.00    +0.040 C 
ENDBRANCH  20  27
ENDBRANCH  19  23
ENDBRANCH   1  19
TORSDOF 4
