REMARK  Name = ZINCpe000000TCn3.0
REMARK                            x       y       z     vdW  Elec       q    Type
REMARK                         _______ _______ _______ _____ _____    ______ ____
ROOT
ATOM      1  C   LIG    1       -1.028   2.092   0.865  0.00  0.00    -0.680 A 
ATOM      2  C   LIG    1       -1.239   3.129  -0.027  0.00  0.00    +0.150 A 
ATOM      3  C   LIG    1       -0.247   3.496  -0.919  0.00  0.00    +0.000 A 
ATOM      4  C   LIG    1        0.963   2.833  -0.920  0.00  0.00    +0.100 A 
ATOM      5  C   LIG    1        1.185   1.790  -0.020  0.00  0.00    -0.150 A 
ATOM      6  C   LIG    1        0.180   1.425   0.877  0.00  0.00    +0.180 A 
ENDROOT
BRANCH   5   7
ATOM      7  C   LIG    1        2.478   1.075  -0.016  0.00  0.00    +0.560 C 
ATOM      8  N   LIG    1        3.631   1.766  -0.125  0.00  0.00    -0.610 N 
ATOM      9  C   LIG    1        3.624   3.235  -0.125  0.00  0.00    +0.270 C 
ATOM     10  C   LIG    1        4.564   3.724   0.991  0.00  0.00    +0.290 C 
ATOM     11  N   LIG    1        5.848   3.021   0.863  0.00  0.00    -0.600 N 
ATOM     12  C   LIG    1        5.854   1.551   0.857  0.00  0.00    +0.300 C 
ATOM     13  C   LIG    1        7.000   3.712   0.753  0.00  0.00    +0.650 C 
ATOM     14  O   LIG    1        8.056   3.120   0.647  0.00  0.00    -0.570 OA
ATOM     15  C   LIG    1        4.915   1.063  -0.253  0.00  0.00    +0.290 C 
ATOM     16  O   LIG    1        2.503  -0.136   0.085  0.00  0.00    -0.520 OA
BRANCH  13  17
ATOM     17  O   LIG    1        6.981   5.058   0.760  0.00  0.00    -0.370 OA
BRANCH  17  18
ATOM     18  C   LIG    1        8.259   5.736   0.638  0.00  0.00    +0.220 C 
ATOM     19  C   LIG    1        8.039   7.250   0.666  0.00  0.00    +0.070 C 
ENDBRANCH  17  18
ENDBRANCH  13  17
ENDBRANCH   5   7
BRANCH   1  20
ATOM     20  S   LIG    1       -2.301   1.628   1.991  0.00  0.00    +2.700 S 
ATOM     21  O   LIG    1       -2.041   0.280   2.356  0.00  0.00    -0.950 OA
ATOM     22  O   LIG    1       -3.526   2.054   1.410  0.00  0.00    -0.950 OA
BRANCH  20  23
ATOM     23  N   LIG    1       -2.095   2.532   3.363  0.00  0.00    -1.120 NA
ATOM     24  H   LIG    1       -1.864   2.099   4.200  0.00  0.00    +0.420 HD
BRANCH  23  26
ATOM     25  C   LIG    1       -2.390   4.534   4.736  0.00  0.00    +0.040 C 
ATOM     26  C   LIG    1       -2.260   3.987   3.313  0.00  0.00    +0.250 C 
ENDBRANCH  23  26
ENDBRANCH  20  23
ENDBRANCH   1  20
TORSDOF 6
