REMARK  Name = ZINCvU0000000CM2.0
REMARK                            x       y       z     vdW  Elec       q    Type
REMARK                         _______ _______ _______ _____ _____    ______ ____
ROOT
ATOM      1  N   LIG    1        3.006   1.169   7.582  0.00  0.00    -0.610 N 
ATOM      2  H   LIG    1        3.052   2.132   7.687  0.00  0.00    +0.420 HD
ATOM      3  C   LIG    1        2.382   0.637   6.511  0.00  0.00    +0.560 C 
ATOM      4  O   LIG    1        2.324  -0.570   6.379  0.00  0.00    -0.480 OA
ENDROOT
BRANCH   3   5
ATOM      5  C   LIG    1        1.770   1.522   5.498  0.00  0.00    -0.010 A 
ATOM      6  C   LIG    1        1.111   0.990   4.367  0.00  0.00    -0.180 A 
ATOM      7  C   LIG    1        0.861  -0.320   3.907  0.00  0.00    +0.300 A 
ATOM      8  N   LIG    1        0.194  -0.248   2.791  0.00  0.00    -0.220 NA
ATOM      9  N   LIG    1       -0.020   1.094   2.454  0.00  0.00    -0.380 N 
ATOM     10  C   LIG    1        0.542   1.875   3.429  0.00  0.00    +0.320 A 
ATOM     11  N   LIG    1        0.628   3.185   3.612  0.00  0.00    -0.470 NA
ATOM     12  C   LIG    1        1.236   3.705   4.655  0.00  0.00    +0.230 A 
ATOM     13  C   LIG    1        1.823   2.909   5.627  0.00  0.00    -0.020 A 
BRANCH   9  14
ATOM     14  C   LIG    1       -0.729   1.579   1.267  0.00  0.00    +0.270 C 
ATOM     15  C   LIG    1       -2.164   1.050   1.278  0.00  0.00    +0.050 C 
ATOM     16  C   LIG    1       -0.013   1.086   0.008  0.00  0.00    +0.050 C 
ENDBRANCH   9  14
BRANCH  12  17
ATOM     17  C   LIG    1        1.297   5.204   4.799  0.00  0.00    +0.010 C 
ATOM     18  C   LIG    1        1.659   5.767   6.174  0.00  0.00    +0.040 C 
ATOM     19  C   LIG    1        0.222   5.875   5.656  0.00  0.00    +0.050 C 
ENDBRANCH  12  17
ENDBRANCH   3   5
BRANCH   1  23
ATOM     20  C   LIG    1        4.692  -0.185  10.400  0.00  0.00    +0.180 A 
ATOM     21  C   LIG    1        4.467  -1.446   9.985  0.00  0.00    -0.130 A 
ATOM     22  S   LIG    1        3.571  -1.370   8.470  0.00  0.00    +0.250 S 
ATOM     23  C   LIG    1        3.581   0.338   8.533  0.00  0.00    +0.240 A 
ATOM     24  N   LIG    1        4.205   0.747   9.591  0.00  0.00    -0.500 NA
BRANCH  20  28
ATOM     25  C   LIG    1        7.269  -0.678  14.749  0.00  0.00    +0.130 C 
ATOM     26  C   LIG    1        6.555  -0.095  13.557  0.00  0.00    +0.010 A 
ATOM     27  C   LIG    1        5.974  -0.799  12.567  0.00  0.00    -0.030 A 
ATOM     28  C   LIG    1        5.425   0.134  11.651  0.00  0.00    -0.110 A 
ATOM     29  C   LIG    1        5.692   1.376  12.136  0.00  0.00    +0.060 A 
ATOM     30  C   LIG    1        5.292   2.681  11.497  0.00  0.00    +0.150 C 
ATOM     31  N   LIG    1        6.383   1.234  13.303  0.00  0.00    -0.440 N 
ATOM     32  C   LIG    1        6.864   2.331  14.147  0.00  0.00    +0.300 C 
ENDBRANCH  20  28
ENDBRANCH   1  23
TORSDOF 5
