REMARK  Name = ZINCtj00001UqOwv.0
REMARK                            x       y       z     vdW  Elec       q    Type
REMARK                         _______ _______ _______ _____ _____    ______ ____
ROOT
ATOM      1  C   LIG    1        2.361   0.850   0.594  0.00  0.00    +0.060 C 
ENDROOT
BRANCH   1   2
ATOM      2  C   LIG    1        2.066   0.581   2.047  0.00  0.00    +0.510 C 
ATOM      3  N   LIG    1        2.915  -0.166   2.780  0.00  0.00    -0.740 N 
ATOM      4  H   LIG    1        3.716  -0.530   2.372  0.00  0.00    +0.400 HD
ATOM      5  O   LIG    1        1.064   1.037   2.557  0.00  0.00    -0.510 OA
BRANCH   3   6
ATOM      6  C   LIG    1        2.629  -0.427   4.193  0.00  0.00    +0.270 C 
BRANCH   6   7
ATOM      7  C   LIG    1        3.742  -1.293   4.787  0.00  0.00    -0.010 C 
ATOM      8  C   LIG    1        3.731  -2.671   4.119  0.00  0.00    +0.060 C 
ATOM      9  C   LIG    1        4.793  -3.557   4.773  0.00  0.00    +0.260 C 
ATOM     10  N   LIG    1        4.501  -3.702   6.204  0.00  0.00    -0.380 N 
ATOM     11  C   LIG    1        4.580  -2.394   6.864  0.00  0.00    +0.260 C 
ATOM     12  H   LIG    1        3.573  -4.081   6.320  0.00  0.00    +0.420 HD
ATOM     13  C   LIG    1        3.510  -1.463   6.291  0.00  0.00    +0.070 C 
BRANCH  10  14
ATOM     14  C   LIG    1        5.478  -4.616   6.811  0.00  0.00    +0.250 C 
BRANCH  14  15
ATOM     15  C   LIG    1        5.484  -5.939   6.044  0.00  0.00    +0.030 C 
BRANCH  15  16
ATOM     16  C   LIG    1        6.502  -6.891   6.676  0.00  0.00    -0.010 C 
ATOM     17  C   LIG    1        6.599  -8.166   5.837  0.00  0.00    +0.040 C 
ATOM     18  C   LIG    1        6.053  -7.248   8.095  0.00  0.00    +0.020 C 
ENDBRANCH  15  16
ENDBRANCH  14  15
ENDBRANCH  10  14
ENDBRANCH   6   7
ENDBRANCH   3   6
ENDBRANCH   1   2
BRANCH   1  19
ATOM     19  C   LIG    1        1.248   1.716  -0.001  0.00  0.00    +0.270 C 
BRANCH  19  21
ATOM     20  C   LIG    1       -1.187   1.624   0.017  0.00  0.00    +0.520 C 
ATOM     21  N   LIG    1       -0.011   0.966   0.007  0.00  0.00    -0.710 N 
ATOM     22  H   LIG    1        0.002  -0.004   0.002  0.00  0.00    +0.400 HD
ATOM     23  O   LIG    1       -1.204   2.837   0.023  0.00  0.00    -0.530 OA
BRANCH  20  24
ATOM     24  C   LIG    1       -2.482   0.853   0.018  0.00  0.00    +0.320 C 
BRANCH  24  29
ATOM     25  C   LIG    1       -7.283   1.678   0.046  0.00  0.00    +0.310 C 
ATOM     26  N   LIG    1       -5.909   2.185   0.042  0.00  0.00    -0.750 N 
ATOM     27  H   LIG    1       -5.745   3.141   0.046  0.00  0.00    +0.400 HD
ATOM     28  C   LIG    1       -4.873   1.323   0.032  0.00  0.00    +0.710 C 
ATOM     29  N   LIG    1       -3.608   1.789   0.029  0.00  0.00    -0.740 N 
ATOM     30  H   LIG    1       -3.444   2.745   0.033  0.00  0.00    +0.410 HD
ATOM     31  O   LIG    1       -5.079   0.125   0.027  0.00  0.00    -0.590 OA
ENDBRANCH  24  29
ENDBRANCH  20  24
ENDBRANCH  19  21
BRANCH  19  32
ATOM     32  C   LIG    1        1.608   2.092  -1.439  0.00  0.00    -0.030 C 
ATOM     33  C   LIG    1        0.558   3.058  -1.992  0.00  0.00    +0.030 C 
ATOM     34  C   LIG    1        1.644   0.830  -2.303  0.00  0.00    +0.020 C 
ENDBRANCH  19  32
ENDBRANCH   1  19
TORSDOF 11
