REMARK  Name = ZINCzw00000009RI.0
REMARK                            x       y       z     vdW  Elec       q    Type
REMARK                         _______ _______ _______ _____ _____    ______ ____
ROOT
ATOM      1  C   LIG    1       -8.005  -0.536   3.728  0.00  0.00    +0.340 C 
ENDROOT
BRANCH   1   6
ATOM      2  C   LIG    1       -8.902   0.433   7.265  0.00  0.00    -0.160 A 
ATOM      3  C   LIG    1       -8.347  -0.608   7.986  0.00  0.00    +0.040 A 
ATOM      4  C   LIG    1       -7.682  -1.626   7.328  0.00  0.00    +0.030 A 
ATOM      5  C   LIG    1       -7.576  -1.605   5.950  0.00  0.00    +0.080 A 
ATOM      6  C   LIG    1       -8.126  -0.561   5.230  0.00  0.00    -0.100 A 
ATOM      7  C   LIG    1       -8.791   0.457   5.888  0.00  0.00    +0.060 A 
BRANCH   2   8
ATOM      8  C   LIG    1       -9.627   1.543   7.982  0.00  0.00    +0.320 C 
BRANCH   8  13
ATOM      9  C   LIG    1      -13.272   2.007   8.746  0.00  0.00    -0.010 C 
ATOM     10  C   LIG    1      -13.486   0.762   9.613  0.00  0.00    +0.060 C 
ATOM     11  C   LIG    1      -12.663  -0.395   9.039  0.00  0.00    +0.070 C 
ATOM     12  C   LIG    1      -11.191   0.019   8.971  0.00  0.00    +0.240 C 
ATOM     13  N   LIG    1      -11.050   1.197   8.107  0.00  0.00    -0.380 N 
ATOM     14  H   LIG    1      -11.426   0.991   7.194  0.00  0.00    +0.420 HD
ATOM     15  C   LIG    1      -11.778   2.331   8.689  0.00  0.00    +0.290 C 
BRANCH   9  19
ATOM     16  N   LIG    1      -15.354   3.109   9.500  0.00  0.00    -0.840 N 
ATOM     17  H   LIG    1      -15.834   3.859   9.886  0.00  0.00    +0.420 HD
ATOM     18  H   LIG    1      -15.838   2.314   9.226  0.00  0.00    +0.410 HD
ATOM     19  C   LIG    1      -14.017   3.172   9.346  0.00  0.00    +0.530 C 
ATOM     20  O   LIG    1      -13.413   4.166   9.690  0.00  0.00    -0.530 OA
ENDBRANCH   9  19
ENDBRANCH   8  13
ENDBRANCH   2   8
ENDBRANCH   1   6
BRANCH   1  21
ATOM     21  N   LIG    1       -6.783   0.177   3.349  0.00  0.00    -0.750 N 
ATOM     22  H   LIG    1       -6.202   0.542   4.034  0.00  0.00    +0.400 HD
ATOM     23  C   LIG    1       -6.466   0.325   2.047  0.00  0.00    +0.710 C 
ATOM     24  N   LIG    1       -5.341   0.980   1.698  0.00  0.00    -0.740 N 
ATOM     25  H   LIG    1       -4.760   1.346   2.383  0.00  0.00    +0.400 HD
ATOM     26  O   LIG    1       -7.194  -0.133   1.188  0.00  0.00    -0.580 OA
BRANCH  24  27
ATOM     27  C   LIG    1       -4.997   1.141   0.283  0.00  0.00    +0.340 C 
BRANCH  27  28
ATOM     28  C   LIG    1       -3.702   1.905   0.165  0.00  0.00    -0.120 A 
ATOM     29  C   LIG    1       -3.721   3.285   0.079  0.00  0.00    +0.050 A 
ATOM     30  C   LIG    1       -2.537   3.994  -0.029  0.00  0.00    +0.010 A 
ATOM     31  C   LIG    1       -1.330   3.326  -0.048  0.00  0.00    +0.050 A 
ATOM     32  C   LIG    1       -1.304   1.933   0.033  0.00  0.00    -0.130 A 
ATOM     33  C   LIG    1       -2.502   1.225   0.142  0.00  0.00    +0.080 A 
BRANCH  32  34
ATOM     34  C   LIG    1       -0.014   1.211   0.009  0.00  0.00    +0.570 C 
ATOM     35  N   LIG    1        0.969   1.616  -0.819  0.00  0.00    -0.610 N 
ATOM     36  C   LIG    1        0.857   2.682  -1.826  0.00  0.00    +0.230 C 
ATOM     37  C   LIG    1        2.218   2.776  -2.547  0.00  0.00    +0.040 C 
ATOM     38  C   LIG    1        2.838   1.375  -2.300  0.00  0.00    +0.040 C 
ATOM     39  C   LIG    1        2.333   1.060  -0.869  0.00  0.00    +0.250 C 
ATOM     40  O   LIG    1        0.158   0.250   0.732  0.00  0.00    -0.530 OA
ENDBRANCH  32  34
ENDBRANCH  27  28
ENDBRANCH  24  27
ENDBRANCH   1  21
TORSDOF 8
