REMARK  Name = ZINCzw00000009Ri.1
REMARK                            x       y       z     vdW  Elec       q    Type
REMARK                         _______ _______ _______ _____ _____    ______ ____
ROOT
ATOM      1  C   LIG    1       -0.000   0.000   0.012  0.00  0.00    +0.170 A 
ATOM      2  C   LIG    1       -0.024   1.386   0.027  0.00  0.00    +0.140 A 
ATOM      3  C   LIG    1        1.162   2.098   0.030  0.00  0.00    -0.640 A 
ATOM      4  C   LIG    1        2.373   1.431   0.018  0.00  0.00    +0.120 A 
ATOM      5  C   LIG    1        2.406   0.049   0.003  0.00  0.00    -0.010 A 
ATOM      6  C   LIG    1        1.222  -0.673   0.000  0.00  0.00    +0.080 A 
ENDROOT
BRANCH   6   7
ATOM      7  N   LIG    1        1.253  -2.071  -0.014  0.00  0.00    -0.500 N 
ATOM      8  C   LIG    1        1.878  -2.597   1.208  0.00  0.00    +0.220 C 
ATOM      9  C   LIG    1        1.838  -4.126   1.180  0.00  0.00    +0.280 C 
ATOM     10  N   LIG    1        2.556  -4.613  -0.006  0.00  0.00    -0.390 N 
ATOM     11  C   LIG    1        1.905  -4.100  -1.219  0.00  0.00    +0.280 C 
ATOM     12  C   LIG    1        2.533  -6.082  -0.023  0.00  0.00    +0.330 C 
ATOM     13  H   LIG    1        3.512  -4.292   0.024  0.00  0.00    +0.420 HD
ATOM     14  C   LIG    1        1.945  -2.570  -1.211  0.00  0.00    +0.230 C 
ENDBRANCH   6   7
BRANCH   1  16
ATOM     15  C   LIG    1       -2.326  -0.158  -0.471  0.00  0.00    +0.550 C 
ATOM     16  N   LIG    1       -1.200  -0.723   0.009  0.00  0.00    -0.660 N 
ATOM     17  H   LIG    1       -1.220  -1.630   0.352  0.00  0.00    +0.420 HD
ATOM     18  O   LIG    1       -2.281   0.939  -0.992  0.00  0.00    -0.490 OA
BRANCH  15  22
ATOM     19  C   LIG    1       -6.036  -2.215  -0.160  0.00  0.00    -0.090 A 
ATOM     20  C   LIG    1       -5.984  -0.955  -0.759  0.00  0.00    +0.090 A 
ATOM     21  C   LIG    1       -4.782  -0.289  -0.860  0.00  0.00    +0.090 A 
ATOM     22  C   LIG    1       -3.617  -0.874  -0.362  0.00  0.00    -0.110 A 
ATOM     23  C   LIG    1       -3.667  -2.136   0.232  0.00  0.00    +0.030 A 
ATOM     24  C   LIG    1       -4.870  -2.800   0.338  0.00  0.00    +0.080 A 
BRANCH  19  25
ATOM     25  C   LIG    1       -7.326  -2.930  -0.053  0.00  0.00    +0.500 C 
ATOM     26  O   LIG    1       -8.341  -2.422  -0.486  0.00  0.00    -0.490 OA
BRANCH  25  28
ATOM     27  C   LIG    1       -8.676  -4.790   0.596  0.00  0.00    +0.290 C 
ATOM     28  O   LIG    1       -7.376  -4.146   0.525  0.00  0.00    -0.360 OA
ENDBRANCH  25  28
ENDBRANCH  19  25
ENDBRANCH  15  22
ENDBRANCH   1  16
BRANCH   3  29
ATOM     29  S   LIG    1        1.129   3.859   0.048  0.00  0.00    +2.680 S 
ATOM     30  O   LIG    1       -0.130   4.243  -0.487  0.00  0.00    -0.940 OA
ATOM     31  O   LIG    1        2.369   4.290  -0.497  0.00  0.00    -0.950 OA
BRANCH  29  32
ATOM     32  N   LIG    1        1.126   4.333   1.635  0.00  0.00    -0.990 NA
ATOM     33  C   LIG    1       -0.140   4.529   2.355  0.00  0.00    +0.290 C 
ATOM     34  C   LIG    1       -0.105   3.690   3.641  0.00  0.00    +0.010 C 
ATOM     35  C   LIG    1        1.141   4.057   4.450  0.00  0.00    +0.020 C 
ATOM     36  C   LIG    1        2.395   3.736   3.632  0.00  0.00    +0.010 C 
ATOM     37  C   LIG    1        2.389   4.571   2.348  0.00  0.00    +0.290 C 
ENDBRANCH  29  32
ENDBRANCH   3  29
TORSDOF 7
