REMARK  Name = ZINCpk00000y6wZY.0
REMARK                            x       y       z     vdW  Elec       q    Type
REMARK                         _______ _______ _______ _____ _____    ______ ____
ROOT
ATOM      1  N   LIG    1       -1.526  -1.417   1.339  0.00  0.00    -0.730 N 
ATOM      2  H   LIG    1       -2.106  -1.468   0.564  0.00  0.00    +0.400 HD
ATOM      3  C   LIG    1       -0.379  -0.712   1.277  0.00  0.00    +0.540 C 
ATOM      4  O   LIG    1        0.347  -0.648   2.246  0.00  0.00    -0.510 OA
ENDROOT
BRANCH   3   5
ATOM      5  C   LIG    1        0.002  -0.004   0.002  0.00  0.00    -0.060 C 
ATOM      6  C   LIG    1       -0.019   1.526   0.010  0.00  0.00    +0.060 C 
ATOM      7  C   LIG    1        1.317   0.779  -0.006  0.00  0.00    +0.050 C 
BRANCH   7   8
ATOM      8  C   LIG    1        2.132   0.783   1.261  0.00  0.00    -0.050 A 
ATOM      9  C   LIG    1        1.593   1.294   2.426  0.00  0.00    +0.070 A 
ATOM     10  C   LIG    1        2.336   1.295   3.592  0.00  0.00    +0.010 A 
ATOM     11  C   LIG    1        3.630   0.795   3.592  0.00  0.00    +0.050 A 
ATOM     12  O   LIG    1        4.353   0.812   4.745  0.00  0.00    -0.310 OA
ATOM     13  C   LIG    1        5.504  -0.038   4.794  0.00  0.00    +0.220 C 
ATOM     14  C   LIG    1        6.291   0.143   3.490  0.00  0.00    +0.220 C 
ATOM     15  O   LIG    1        5.438  -0.216   2.397  0.00  0.00    -0.310 OA
ATOM     16  C   LIG    1        4.173   0.284   2.418  0.00  0.00    +0.040 A 
ATOM     17  C   LIG    1        3.420   0.281   1.254  0.00  0.00    +0.030 A 
ENDBRANCH   7   8
ENDBRANCH   3   5
BRANCH   1  18
ATOM     18  C   LIG    1       -1.896  -2.105   2.579  0.00  0.00    +0.260 C 
BRANCH  18  19
ATOM     19  C   LIG    1       -3.232  -2.825   2.383  0.00  0.00    +0.100 C 
BRANCH  19  24
ATOM     20  O   LIG    1       -4.574  -5.413   6.957  0.00  0.00    -0.530 OA
ATOM     21  C   LIG    1       -4.273  -4.829   5.930  0.00  0.00    +0.630 A 
ATOM     22  N   LIG    1       -3.461  -5.420   5.050  0.00  0.00    -0.540 NA
ATOM     23  C   LIG    1       -3.121  -4.812   3.932  0.00  0.00    +0.440 A 
ATOM     24  C   LIG    1       -3.612  -3.533   3.658  0.00  0.00    -0.260 A 
ATOM     25  C   LIG    1       -4.435  -2.933   4.560  0.00  0.00    +0.370 A 
ATOM     26  N   LIG    1       -4.766  -3.597   5.699  0.00  0.00    -0.620 N 
ATOM     27  H   LIG    1       -5.354  -3.182   6.348  0.00  0.00    +0.420 HD
ENDBRANCH  19  24
ENDBRANCH  18  19
ENDBRANCH   1  18
TORSDOF 5
