REMARK  Name = ZINCqH0000004tE0.2
REMARK                            x       y       z     vdW  Elec       q    Type
REMARK                         _______ _______ _______ _____ _____    ______ ____
ROOT
ATOM      1  C   LIG    1       -2.373   5.427  -3.770  0.00  0.00    +0.510 C 
ATOM      2  N   LIG    1       -2.677   6.731  -3.927  0.00  0.00    -0.630 N 
ATOM      3  H   LIG    1       -2.495   7.361  -3.212  0.00  0.00    +0.420 HD
ATOM      4  O   LIG    1       -2.600   4.639  -4.664  0.00  0.00    -0.500 OA
ENDROOT
BRANCH   2   5
ATOM      5  C   LIG    1       -3.251   7.172  -5.111  0.00  0.00    +0.050 A 
ATOM      6  C   LIG    1       -3.596   8.466  -5.371  0.00  0.00    -0.110 A 
ATOM      7  C   LIG    1       -4.177   8.657  -6.690  0.00  0.00    -0.040 A 
ATOM      8  C   LIG    1       -4.258   7.515  -7.379  0.00  0.00    -0.240 A 
ATOM      9  C   LIG    1       -4.825   7.377  -8.777  0.00  0.00    +0.120 C 
ATOM     10  C   LIG    1       -4.242   8.457  -9.686  0.00  0.00    +0.020 C 
ATOM     11  C   LIG    1       -5.132   9.696  -9.632  0.00  0.00    +0.000 C 
ATOM     12  C   LIG    1       -5.739   9.837  -8.238  0.00  0.00    +0.030 C 
ATOM     13  C   LIG    1       -4.625  10.012  -7.209  0.00  0.00    +0.090 C 
ATOM     14  S   LIG    1       -3.612   6.174  -6.441  0.00  0.00    +0.320 S 
BRANCH   6  15
ATOM     15  C   LIG    1       -3.405   9.533  -4.435  0.00  0.00    +0.270 C 
ATOM     16  N   LIG    1       -3.254  10.379  -3.692  0.00  0.00    -0.420 NA
ENDBRANCH   6  15
ENDBRANCH   2   5
BRANCH   1  17
ATOM     17  C   LIG    1       -1.750   4.948  -2.484  0.00  0.00    +0.070 C 
BRANCH  17  18
ATOM     18  C   LIG    1       -1.507   3.440  -2.566  0.00  0.00    +0.210 C 
BRANCH  18  25
ATOM     19  C   LIG    1       -0.748   1.510  -1.313  0.00  0.00    +0.100 C 
ATOM     20  C   LIG    1       -0.059   1.074  -0.017  0.00  0.00    +0.220 C 
ATOM     21  O   LIG    1       -0.819   1.538   1.102  0.00  0.00    -0.380 OA
ATOM     22  C   LIG    1       -0.987   2.958   1.134  0.00  0.00    +0.200 C 
ATOM     23  C   LIG    1       -1.685   3.414  -0.150  0.00  0.00    +0.140 C 
ATOM     24  C   LIG    1        0.383   3.632   1.237  0.00  0.00    +0.010 C 
ATOM     25  N   LIG    1       -0.900   2.973  -1.312  0.00  0.00    -0.530 NA
BRANCH  19  27
ATOM     26  C   LIG    1        0.169  -0.441  -2.575  0.00  0.00    +0.020 C 
ATOM     27  C   LIG    1        0.102   1.086  -2.512  0.00  0.00    +0.020 C 
ENDBRANCH  19  27
ENDBRANCH  18  25
ENDBRANCH  17  18
ENDBRANCH   1  17
TORSDOF 6
