REMARK  Name = ZINCrD000006RzQh.0
REMARK                            x       y       z     vdW  Elec       q    Type
REMARK                         _______ _______ _______ _____ _____    ______ ____
ROOT
ATOM      1  N   LIG    1       -2.686   4.811  -1.988  0.00  0.00    -1.000 NA
ATOM      2  C   LIG    1       -2.023   5.974  -2.593  0.00  0.00    +0.300 C 
ATOM      3  C   LIG    1       -1.061   5.476  -3.682  0.00  0.00    +0.030 C 
ATOM      4  C   LIG    1       -1.832   4.604  -4.676  0.00  0.00    +0.000 C 
ATOM      5  C   LIG    1       -2.408   3.387  -3.950  0.00  0.00    +0.040 C 
ATOM      6  C   LIG    1       -3.381   3.858  -2.864  0.00  0.00    +0.300 C 
ENDROOT
BRANCH   4   7
ATOM      7  C   LIG    1       -0.900   4.143  -5.767  0.00  0.00    +0.520 C 
ATOM      8  N   LIG    1       -0.782   4.862  -6.901  0.00  0.00    -0.610 N 
ATOM      9  C   LIG    1       -1.463   6.156  -7.041  0.00  0.00    +0.260 C 
ATOM     10  C   LIG    1       -0.424   7.214  -7.442  0.00  0.00    +0.010 C 
ATOM     11  C   LIG    1        0.308   6.750  -8.703  0.00  0.00    +0.020 C 
ATOM     12  C   LIG    1        1.043   5.439  -8.415  0.00  0.00    +0.020 C 
ATOM     13  C   LIG    1        0.025   4.363  -8.023  0.00  0.00    +0.270 C 
ATOM     14  O   LIG    1       -0.256   3.126  -5.624  0.00  0.00    -0.540 OA
ENDBRANCH   4   7
BRANCH   1  15
ATOM     15  S   LIG    1       -2.656   4.582  -0.348  0.00  0.00    +2.690 S 
ATOM     16  O   LIG    1       -2.446   5.862   0.232  0.00  0.00    -0.950 OA
ATOM     17  O   LIG    1       -3.774   3.761  -0.037  0.00  0.00    -0.950 OA
BRANCH  15  23
ATOM     18  C   LIG    1       -0.326   0.032   0.740  0.00  0.00    +0.090 C 
ATOM     19  C   LIG    1       -0.206   1.517   0.515  0.00  0.00    -0.110 A 
ATOM     20  C   LIG    1        1.030   2.131   0.596  0.00  0.00    +0.070 A 
ATOM     21  C   LIG    1        1.140   3.493   0.390  0.00  0.00    -0.110 A 
ATOM     22  C   LIG    1        0.015   4.242   0.101  0.00  0.00    +0.020 A 
ATOM     23  C   LIG    1       -1.221   3.628   0.019  0.00  0.00    -0.680 A 
ATOM     24  C   LIG    1        0.135   5.727  -0.124  0.00  0.00    +0.090 C 
ATOM     25  C   LIG    1        2.488   4.162   0.479  0.00  0.00    +0.090 C 
ATOM     26  C   LIG    1       -1.331   2.265   0.222  0.00  0.00    +0.020 A 
ATOM     27  C   LIG    1       -2.677   1.595   0.127  0.00  0.00    +0.100 C 
ENDBRANCH  15  23
ENDBRANCH   1  15
TORSDOF 3
