REMARK  Name = ZINCpk000005J6s3.0
REMARK                            x       y       z     vdW  Elec       q    Type
REMARK                         _______ _______ _______ _____ _____    ______ ____
ROOT
ATOM      1  N   LIG    1        1.182   2.981   0.120  0.00  0.00    -0.570 N 
ATOM      2  C   LIG    1        1.148   1.644  -0.000  0.00  0.00    +0.710 C 
ATOM      3  N   LIG    1       -0.011   0.966   0.007  0.00  0.00    -0.720 N 
ATOM      4  H   LIG    1        0.002  -0.004   0.002  0.00  0.00    +0.430 HD
ATOM      5  C   LIG    1       -1.295   1.670   0.017  0.00  0.00    +0.300 C 
ATOM      6  C   LIG    1       -1.172   2.937   0.873  0.00  0.00    +0.020 C 
ATOM      7  O   LIG    1        2.192   1.032  -0.118  0.00  0.00    -0.540 OA
ATOM      8  C   LIG    1        0.088   3.671   0.490  0.00  0.00    +0.530 C 
ATOM      9  O   LIG    1        0.114   4.883   0.514  0.00  0.00    -0.490 OA
ENDROOT
BRANCH   6  10
ATOM     10  C   LIG    1       -1.111   2.555   2.353  0.00  0.00    -0.030 C 
ATOM     11  C   LIG    1       -0.980   3.818   3.233  0.00  0.00    +0.010 C 
ATOM     12  C   LIG    1       -2.251   3.797   4.112  0.00  0.00    +0.210 C 
ATOM     13  O   LIG    1       -2.652   2.410   4.147  0.00  0.00    -0.370 OA
ATOM     14  C   LIG    1       -2.445   1.920   2.804  0.00  0.00    +0.220 C 
ENDBRANCH   6  10
BRANCH   1  15
ATOM     15  C   LIG    1        2.429   3.699  -0.156  0.00  0.00    +0.310 C 
BRANCH  15  16
ATOM     16  C   LIG    1        2.480   4.083  -1.636  0.00  0.00    +0.340 C 
BRANCH  16  22
ATOM     17  C   LIG    1        2.862   7.154  -1.458  0.00  0.00    +0.160 C 
ATOM     18  C   LIG    1        3.907   6.136  -1.838  0.00  0.00    +0.100 A 
ATOM     19  C   LIG    1        5.194   6.397  -2.163  0.00  0.00    -0.070 A 
ATOM     20  C   LIG    1        5.820   5.181  -2.454  0.00  0.00    -0.010 A 
ATOM     21  N   LIG    1        4.941   4.223  -2.304  0.00  0.00    -0.230 NA
ATOM     22  N   LIG    1        3.727   4.801  -1.912  0.00  0.00    -0.350 N 
BRANCH  20  23
ATOM     23  C   LIG    1        7.258   5.003  -2.870  0.00  0.00    +0.560 C 
ATOM     24  F   LIG    1        8.098   5.389  -1.820  0.00  0.00    -0.170 F 
ATOM     25  F   LIG    1        7.520   5.797  -3.992  0.00  0.00    -0.170 F 
ATOM     26  F   LIG    1        7.490   3.660  -3.184  0.00  0.00    -0.170 F 
ENDBRANCH  20  23
ENDBRANCH  16  22
ENDBRANCH  15  16
ENDBRANCH   1  15
TORSDOF 5
