REMARK  Name = ZINCrD00000hQ6We.0
REMARK                            x       y       z     vdW  Elec       q    Type
REMARK                         _______ _______ _______ _____ _____    ______ ____
ROOT
ATOM      1  C   LIG    1        1.241  -0.436  -0.012  0.00  0.00    +0.260 A 
ATOM      2  N   LIG    1        0.002  -0.004   0.002  0.00  0.00    -0.390 NA
ATOM      3  O   LIG    1       -0.014   1.209   0.009  0.00  0.00    +0.090 OA
ATOM      4  C   LIG    1        1.235   1.685  -0.001  0.00  0.00    +0.200 A 
ATOM      5  N   LIG    1        2.043   0.655  -0.014  0.00  0.00    -0.460 NA
ENDROOT
BRANCH   1   8
ATOM      6  C   LIG    1        4.198  -1.432  -0.044  0.00  0.00    +0.170 C 
ATOM      7  C   LIG    1        2.962  -2.293  -0.037  0.00  0.00    +0.130 A 
ATOM      8  C   LIG    1        1.677  -1.845  -0.023  0.00  0.00    +0.020 A 
ATOM      9  N   LIG    1        0.849  -2.973  -0.016  0.00  0.00    -0.400 N 
ATOM     10  C   LIG    1       -0.492  -3.273  -0.011  0.00  0.00    +0.220 A 
ATOM     11  C   LIG    1       -0.859  -4.543  -0.014  0.00  0.00    +0.020 A 
ATOM     12  S   LIG    1        0.649  -5.474  -0.032  0.00  0.00    +0.190 S 
ATOM     13  C   LIG    1        1.690  -4.041  -0.034  0.00  0.00    +0.180 A 
ATOM     14  N   LIG    1        2.938  -3.627  -0.043  0.00  0.00    -0.450 NA
ENDBRANCH   1   8
BRANCH   4  15
ATOM     15  C   LIG    1        1.637   3.138   0.003  0.00  0.00    +0.140 C 
ATOM     16  C   LIG    1        1.091   3.815   1.263  0.00  0.00    +0.050 C 
ATOM     17  C   LIG    1        1.704   5.215   1.401  0.00  0.00    +0.160 C 
ATOM     18  C   LIG    1        1.547   5.931   0.085  0.00  0.00    -0.020 A 
ATOM     19  C   LIG    1        1.262   5.315  -1.088  0.00  0.00    -0.020 A 
ATOM     20  N   LIG    1        1.200   6.281  -2.021  0.00  0.00    -0.270 N 
ATOM     21  N   LIG    1        1.437   7.410  -1.441  0.00  0.00    -0.080 NA
ATOM     22  N   LIG    1        1.649   7.229  -0.181  0.00  0.00    -0.260 NA
ATOM     23  C   LIG    1        1.065   3.830  -1.241  0.00  0.00    +0.150 C 
BRANCH  20  24
ATOM     24  C   LIG    1        0.915   6.087  -3.444  0.00  0.00    +0.240 C 
ATOM     25  C   LIG    1        1.728   7.010  -4.367  0.00  0.00    +0.040 C 
ATOM     26  C   LIG    1        0.451   7.164  -5.209  0.00  0.00    +0.040 C 
ATOM     27  C   LIG    1       -0.337   6.836  -3.930  0.00  0.00    +0.040 C 
ENDBRANCH  20  24
ENDBRANCH   4  15
TORSDOF 3
