REMARK  Name = ZINCb70000004SU2.0
REMARK                            x       y       z     vdW  Elec       q    Type
REMARK                         _______ _______ _______ _____ _____    ______ ____
ROOT
ATOM      1  O   LIG    1       -3.803   5.648  -3.649  0.00  0.00    -0.530 OA
ATOM      2  C   LIG    1       -3.011   5.077  -2.921  0.00  0.00    +0.530 A 
ATOM      3  C   LIG    1       -3.230   3.854  -2.245  0.00  0.00    -0.120 A 
ATOM      4  C   LIG    1       -2.119   3.559  -1.541  0.00  0.00    +0.160 A 
ATOM      5  N   LIG    1       -1.199   4.547  -1.752  0.00  0.00    -0.500 N 
ATOM      6  H   LIG    1       -0.308   4.587  -1.370  0.00  0.00    +0.440 HD
ATOM      7  N   LIG    1       -1.765   5.493  -2.617  0.00  0.00    -0.510 N 
ATOM      8  H   LIG    1       -1.337   6.302  -2.939  0.00  0.00    +0.440 HD
ENDROOT
BRANCH   4   9
ATOM      9  C   LIG    1       -1.922   2.343  -0.673  0.00  0.00    +0.100 C 
ATOM     10  C   LIG    1       -1.476   2.751   0.756  0.00  0.00    +0.090 C 
ATOM     11  C   LIG    1       -0.714   1.486   1.216  0.00  0.00    +0.270 C 
ATOM     12  N   LIG    1       -0.012   1.005   0.008  0.00  0.00    -0.510 N 
ATOM     13  H   LIG    1        0.933   1.358   0.000  0.00  0.00    +0.430 HD
ATOM     14  H   LIG    1        0.002  -0.004   0.002  0.00  0.00    +0.440 HD
ATOM     15  C   LIG    1       -0.735   1.498  -1.179  0.00  0.00    +0.270 C 
ENDBRANCH   4   9
TORSDOF 1
