REMARK  Name = ZINCpe00000gNev3.0
REMARK                            x       y       z     vdW  Elec       q    Type
REMARK                         _______ _______ _______ _____ _____    ______ ____
ROOT
ATOM      1  O   LIG    1        3.688   2.590   1.340  0.00  0.00    -0.540 OA
ATOM      2  C   LIG    1        3.101   1.809   0.616  0.00  0.00    +0.600 C 
ATOM      3  N   LIG    1        1.917   1.292   1.001  0.00  0.00    -0.700 N 
ATOM      4  H   LIG    1        1.449   0.669   0.423  0.00  0.00    +0.420 HD
ENDROOT
BRANCH   2   5
ATOM      5  C   LIG    1        3.685   1.427  -0.685  0.00  0.00    +0.000 A 
ATOM      6  C   LIG    1        4.868   1.879  -1.196  0.00  0.00    +0.180 A 
ATOM      7  N   LIG    1        5.035   1.281  -2.408  0.00  0.00    -0.360 N 
ATOM      8  C   LIG    1        6.027   1.362  -3.344  0.00  0.00    +0.220 A 
ATOM      9  C   LIG    1        5.950   0.657  -4.491  0.00  0.00    +0.030 A 
ATOM     10  C   LIG    1        4.844  -0.174  -4.739  0.00  0.00    +0.050 A 
ATOM     11  C   LIG    1        3.849  -0.266  -3.818  0.00  0.00    +0.070 A 
ATOM     12  C   LIG    1        3.943   0.478  -2.622  0.00  0.00    +0.230 A 
ATOM     13  N   LIG    1        3.141   0.578  -1.576  0.00  0.00    -0.460 NA
ENDBRANCH   2   5
BRANCH   3  14
ATOM     14  C   LIG    1        1.338   1.671   2.292  0.00  0.00    +0.270 C 
BRANCH  14  15
ATOM     15  C   LIG    1       -0.053   1.048   2.429  0.00  0.00    +0.180 C 
BRANCH  15  16
ATOM     16  N   LIG    1       -0.904   1.501   1.321  0.00  0.00    -0.520 NA
ATOM     17  C   LIG    1       -0.810   2.958   1.147  0.00  0.00    +0.140 C 
ATOM     18  C   LIG    1       -1.664   3.379  -0.052  0.00  0.00    +0.220 C 
ATOM     19  O   LIG    1       -3.011   2.944   0.152  0.00  0.00    -0.380 OA
ATOM     20  C   LIG    1       -3.139   1.530   0.324  0.00  0.00    +0.220 C 
ATOM     21  C   LIG    1       -2.301   1.090   1.527  0.00  0.00    +0.150 C 
ENDBRANCH  15  16
BRANCH  15  22
ATOM     22  C   LIG    1       -0.675   1.478   3.760  0.00  0.00    -0.050 C 
ATOM     23  C   LIG    1        0.135   0.908   4.945  0.00  0.00    +0.010 C 
ATOM     24  C   LIG    1        0.632   2.163   5.697  0.00  0.00    +0.190 C 
ATOM     25  O   LIG    1       -0.306   3.202   5.342  0.00  0.00    -0.370 OA
ATOM     26  C   LIG    1       -0.576   3.009   3.934  0.00  0.00    +0.200 C 
ENDBRANCH  15  22
ENDBRANCH  14  15
ENDBRANCH   3  14
TORSDOF 5
