REMARK  Name = ZINCrH000004sVXD.0
REMARK                            x       y       z     vdW  Elec       q    Type
REMARK                         _______ _______ _______ _____ _____    ______ ____
ROOT
ATOM      1  N   LIG    1       -2.368   3.880   0.046  0.00  0.00    -0.470 N 
ATOM      2  C   LIG    1       -3.231   3.505  -1.081  0.00  0.00    +0.200 C 
ATOM      3  C   LIG    1       -4.580   4.216  -0.951  0.00  0.00    +0.060 C 
ATOM      4  C   LIG    1       -4.355   5.730  -0.938  0.00  0.00    +0.080 C 
ATOM      5  C   LIG    1       -3.415   6.088   0.216  0.00  0.00    +0.060 C 
ATOM      6  C   LIG    1       -2.099   5.324   0.052  0.00  0.00    +0.220 C 
ENDROOT
BRANCH   4   7
ATOM      7  C   LIG    1       -5.674   6.434  -0.750  0.00  0.00    +0.200 A 
ATOM      8  N   LIG    1       -6.484   6.302   0.265  0.00  0.00    -0.280 NA
ATOM      9  N   LIG    1       -7.516   7.050   0.095  0.00  0.00    -0.280 NA
ATOM     10  C   LIG    1       -7.411   7.692  -1.038  0.00  0.00    +0.160 A 
ATOM     11  C   LIG    1       -8.124   8.687  -1.929  0.00  0.00    +0.160 C 
ATOM     12  C   LIG    1       -7.422   8.543  -3.299  0.00  0.00    +0.070 C 
ATOM     13  C   LIG    1       -6.034   8.004  -2.888  0.00  0.00    +0.300 C 
ATOM     14  N   LIG    1       -6.238   7.327  -1.601  0.00  0.00    -0.490 N 
ENDBRANCH   4   7
BRANCH   1  19
ATOM     15  C   LIG    1        1.116   3.086   0.008  0.00  0.00    +0.390 A 
ATOM     16  N   LIG    1        1.121   1.760   0.001  0.00  0.00    -0.530 NA
ATOM     17  C   LIG    1       -0.013   1.076   0.008  0.00  0.00    +0.340 A 
ATOM     18  C   LIG    1       -1.214   1.758   0.017  0.00  0.00    -0.100 A 
ATOM     19  C   LIG    1       -1.188   3.155   0.030  0.00  0.00    +0.360 A 
ATOM     20  N   LIG    1       -0.015   3.778   0.023  0.00  0.00    -0.550 NA
BRANCH  15  26
ATOM     21 CL   LIG    1        3.659   7.615   0.008  0.00  0.00    -0.060 Cl
ATOM     22  C   LIG    1        3.634   5.879  -0.000  0.00  0.00    -0.050 A 
ATOM     23  C   LIG    1        4.823   5.171  -0.015  0.00  0.00    +0.050 A 
ATOM     24  C   LIG    1        4.810   3.788  -0.022  0.00  0.00    +0.020 A 
ATOM     25  C   LIG    1        3.610   3.106  -0.015  0.00  0.00    +0.080 A 
ATOM     26  C   LIG    1        2.409   3.814   0.000  0.00  0.00    -0.040 A 
ATOM     27  C   LIG    1        2.427   5.207   0.002  0.00  0.00    +0.090 A 
ENDBRANCH  15  26
ENDBRANCH   1  19
TORSDOF 3
