REMARK  Name = ZINCnE000001I2U2.1
REMARK                            x       y       z     vdW  Elec       q    Type
REMARK                         _______ _______ _______ _____ _____    ______ ____
ROOT
ATOM      1  C   LIG    1       -1.455   3.921   7.246  0.00  0.00    +0.280 A 
ATOM      2  C   LIG    1       -0.601   3.570   8.278  0.00  0.00    -0.080 A 
ATOM      3  C   LIG    1       -0.795   4.106   9.552  0.00  0.00    -0.080 A 
ATOM      4  C   LIG    1       -1.856   4.985   9.780  0.00  0.00    -0.060 A 
ATOM      5  C   LIG    1       -2.705   5.325   8.747  0.00  0.00    +0.040 A 
ATOM      6  C   LIG    1       -2.510   4.798   7.483  0.00  0.00    -0.070 A 
ATOM      7 CL   LIG    1       -3.583   5.230   6.189  0.00  0.00    -0.080 Cl
ENDROOT
BRANCH   3   8
ATOM      8  C   LIG    1        0.115   3.741  10.657  0.00  0.00    +0.560 C 
ATOM      9  N   LIG    1        0.357   4.620  11.650  0.00  0.00    -0.620 N 
ATOM     10  C   LIG    1       -0.188   5.978  11.575  0.00  0.00    +0.290 C 
ATOM     11  C   LIG    1        1.165   4.217  12.804  0.00  0.00    +0.280 C 
ATOM     12  O   LIG    1        0.646   2.647  10.671  0.00  0.00    -0.530 OA
ENDBRANCH   3   8
BRANCH   1  13
ATOM     13  N   LIG    1       -1.261   3.391   5.967  0.00  0.00    -1.070 NA
BRANCH  13  14
ATOM     14  S   LIG    1       -0.103   2.234   5.717  0.00  0.00    +2.630 S 
ATOM     15  O   LIG    1        1.152   2.890   5.838  0.00  0.00    -1.020 OA
ATOM     16  O   LIG    1       -0.475   1.116   6.510  0.00  0.00    -1.020 OA
BRANCH  14  20
ATOM     17  C   LIG    1       -0.710   0.679   1.805  0.00  0.00    -0.170 A 
ATOM     18  C   LIG    1        0.159   1.691   1.780  0.00  0.00    -0.020 A 
ATOM     19  C   LIG    1        0.418   2.268   3.011  0.00  0.00    +0.130 A 
ATOM     20  C   LIG    1       -0.234   1.719   4.037  0.00  0.00    -0.710 A 
ATOM     21  S   LIG    1       -1.245   0.402   3.457  0.00  0.00    +0.200 S 
BRANCH  17  23
ATOM     22  C   LIG    1       -0.222  -1.300   0.393  0.00  0.00    +0.030 C 
ATOM     23  C   LIG    1       -1.159  -0.110   0.602  0.00  0.00    +0.110 C 
ENDBRANCH  17  23
ENDBRANCH  14  20
ENDBRANCH  13  14
ENDBRANCH   1  13
TORSDOF 5
