REMARK  Name = ZINCrg00000fRFm8.0
REMARK                            x       y       z     vdW  Elec       q    Type
REMARK                         _______ _______ _______ _____ _____    ______ ____
ROOT
ATOM      1  C   LIG    1       -0.753  -1.376   1.811  0.00  0.00    +0.520 C 
ATOM      2  N   LIG    1       -0.145  -0.527   0.959  0.00  0.00    -0.620 N 
ATOM      3  C   LIG    1       -0.912   0.179  -0.079  0.00  0.00    +0.290 C 
ATOM      4  C   LIG    1       -0.590   1.674   0.010  0.00  0.00    +0.170 C 
ATOM      5  N   LIG    1        0.866   1.863  -0.057  0.00  0.00    -0.520 NA
ATOM      6  C   LIG    1        1.538   1.232   1.087  0.00  0.00    +0.170 C 
ATOM      7  C   LIG    1        1.302  -0.282   1.042  0.00  0.00    +0.280 C 
ATOM      8  O   LIG    1       -1.948  -1.566   1.728  0.00  0.00    -0.540 OA
ENDROOT
BRANCH   5   9
ATOM      9  C   LIG    1        1.208   3.288  -0.148  0.00  0.00    +0.190 C 
ATOM     10  C   LIG    1        0.645   4.027   1.068  0.00  0.00    +0.000 C 
BRANCH   9  11
ATOM     11  C   LIG    1        0.607   3.877  -1.426  0.00  0.00    +0.110 C 
BRANCH  11  12
ATOM     12  C   LIG    1        1.243   3.224  -2.627  0.00  0.00    +0.460 C 
ATOM     13  O   LIG    1        2.161   2.453  -2.480  0.00  0.00    -0.490 OA
BRANCH  12  14
ATOM     14  O   LIG    1        0.788   3.499  -3.859  0.00  0.00    -0.370 OA
ATOM     15  C   LIG    1        1.448   2.834  -4.969  0.00  0.00    +0.260 C 
ENDBRANCH  12  14
ENDBRANCH  11  12
ENDBRANCH   9  11
ENDBRANCH   5   9
BRANCH   1  16
ATOM     16  C   LIG    1        0.051  -2.089   2.867  0.00  0.00    +0.070 C 
BRANCH  16  17
ATOM     17  C   LIG    1       -0.872  -2.985   3.694  0.00  0.00    +0.090 C 
BRANCH  17  22
ATOM     18  C   LIG    1        0.850  -3.783   6.968  0.00  0.00    -0.130 A 
ATOM     19  C   LIG    1        1.417  -5.025   6.682  0.00  0.00    +0.040 A 
ATOM     20  C   LIG    1        1.238  -5.591   5.436  0.00  0.00    +0.010 A 
ATOM     21  C   LIG    1        0.493  -4.933   4.474  0.00  0.00    +0.040 A 
ATOM     22  C   LIG    1       -0.068  -3.698   4.750  0.00  0.00    -0.090 A 
ATOM     23  C   LIG    1        0.104  -3.121   5.991  0.00  0.00    +0.090 A 
BRANCH  18  27
ATOM     24  C   LIG    1        1.945  -3.204  10.562  0.00  0.00    +0.290 C 
ATOM     25  N   LIG    1        1.759  -3.811   9.241  0.00  0.00    -0.730 N 
ATOM     26  H   LIG    1        2.154  -4.675   9.045  0.00  0.00    +0.400 HD
ATOM     27  C   LIG    1        1.038  -3.170   8.300  0.00  0.00    +0.560 C 
ATOM     28  O   LIG    1        0.543  -2.087   8.547  0.00  0.00    -0.530 OA
ENDBRANCH  18  27
ENDBRANCH  17  22
ENDBRANCH  16  17
ENDBRANCH   1  16
TORSDOF 8
