REMARK  Name = ZINCpk00000ebgmu.0
REMARK                            x       y       z     vdW  Elec       q    Type
REMARK                         _______ _______ _______ _____ _____    ______ ____
ROOT
ATOM      1  N   LIG    1       -3.854   5.245   3.074  0.00  0.00    -0.730 N 
ATOM      2  H   LIG    1       -4.048   6.195   3.034  0.00  0.00    +0.400 HD
ATOM      3  C   LIG    1       -3.054   4.681   2.149  0.00  0.00    +0.560 C 
ATOM      4  O   LIG    1       -2.811   3.490   2.200  0.00  0.00    -0.490 OA
ENDROOT
BRANCH   3   5
ATOM      5  C   LIG    1       -2.472   5.506   1.075  0.00  0.00    -0.160 A 
ATOM      6  C   LIG    1       -2.649   6.894   1.067  0.00  0.00    +0.100 A 
ATOM      7  C   LIG    1       -2.088   7.623   0.034  0.00  0.00    -0.040 A 
ATOM      8  C   LIG    1       -1.370   6.968  -0.950  0.00  0.00    +0.300 A 
ATOM      9  N   LIG    1       -1.208   5.660  -0.923  0.00  0.00    -0.520 NA
ATOM     10  C   LIG    1       -1.724   4.914   0.043  0.00  0.00    +0.350 A 
BRANCH  10  11
ATOM     11  N   LIG    1       -1.530   3.545   0.032  0.00  0.00    -0.470 N 
ATOM     12  C   LIG    1       -2.187   2.929  -1.128  0.00  0.00    +0.180 C 
ATOM     13  C   LIG    1       -2.076   1.406  -1.029  0.00  0.00    +0.040 C 
ATOM     14  C   LIG    1       -0.598   1.009  -0.987  0.00  0.00    +0.010 C 
ATOM     15  C   LIG    1        0.076   1.702   0.201  0.00  0.00    +0.030 C 
ATOM     16  C   LIG    1       -0.099   3.216   0.067  0.00  0.00    +0.190 C 
ENDBRANCH  10  11
ENDBRANCH   3   5
BRANCH   1  17
ATOM     17  C   LIG    1       -4.432   4.425   4.141  0.00  0.00    +0.250 C 
BRANCH  17  18
ATOM     18  C   LIG    1       -5.294   5.304   5.050  0.00  0.00    +0.210 C 
ATOM     19  C   LIG    1       -4.459   6.477   5.567  0.00  0.00    +0.070 C 
BRANCH  18  23
ATOM     20  C   LIG    1       -8.118   3.580   8.815  0.00  0.00    +0.360 C 
ATOM     21  N   LIG    1       -7.023   3.741   7.855  0.00  0.00    -0.370 N 
ATOM     22  C   LIG    1       -6.951   4.675   6.883  0.00  0.00    +0.260 A 
ATOM     23  C   LIG    1       -5.789   4.487   6.216  0.00  0.00    -0.280 A 
ATOM     24  C   LIG    1       -5.131   3.398   6.796  0.00  0.00    +0.240 A 
ATOM     25  N   LIG    1       -5.867   2.954   7.782  0.00  0.00    -0.290 NA
ENDBRANCH  18  23
BRANCH  18  26
ATOM     26  O   LIG    1       -6.410   5.803   4.310  0.00  0.00    -0.550 OA
ATOM     27  H   LIG    1       -6.985   5.113   3.952  0.00  0.00    +0.380 HD
ENDBRANCH  18  26
ENDBRANCH  17  18
ENDBRANCH   1  17
TORSDOF 6
