REMARK  Name = ZINCvU0000000JVe.0
REMARK                            x       y       z     vdW  Elec       q    Type
REMARK                         _______ _______ _______ _____ _____    ______ ____
ROOT
ATOM      1  C   LIG    1        3.764  -0.994  -0.041  0.00  0.00    +0.550 C 
ATOM      2  N   LIG    1        3.785  -2.338   0.053  0.00  0.00    -0.610 N 
ATOM      3  C   LIG    1        2.533  -3.107   0.068  0.00  0.00    +0.280 C 
ATOM      4  C   LIG    1        2.603  -4.177  -1.032  0.00  0.00    +0.040 C 
ATOM      5  C   LIG    1        3.862  -5.023  -0.832  0.00  0.00    +0.090 C 
ATOM      6  C   LIG    1        5.101  -4.133  -0.948  0.00  0.00    +0.040 C 
ATOM      7  C   LIG    1        5.059  -3.062   0.147  0.00  0.00    +0.280 C 
ATOM      8  O   LIG    1        4.807  -0.375  -0.144  0.00  0.00    -0.540 OA
ENDROOT
BRANCH   5   9
ATOM      9  C   LIG    1        3.917  -6.098  -1.887  0.00  0.00    +0.100 A 
ATOM     10  N   LIG    1        3.950  -5.871  -3.145  0.00  0.00    -0.460 NA
ATOM     11  C   LIG    1        4.001  -6.931  -3.975  0.00  0.00    +0.080 A 
ATOM     12  C   LIG    1        4.050  -6.970  -5.383  0.00  0.00    +0.070 A 
ATOM     13  C   LIG    1        4.092  -8.164  -6.038  0.00  0.00    +0.030 A 
ATOM     14  C   LIG    1        4.089  -9.360  -5.336  0.00  0.00    +0.040 A 
ATOM     15  C   LIG    1        4.042  -9.352  -3.960  0.00  0.00    +0.060 A 
ATOM     16  C   LIG    1        3.998  -8.141  -3.272  0.00  0.00    -0.180 A 
ATOM     17  S   LIG    1        3.934  -7.772  -1.552  0.00  0.00    +0.100 S 
ENDBRANCH   5   9
BRANCH   1  19
ATOM     18  C   LIG    1        2.471   1.071  -0.012  0.00  0.00    +0.140 C 
ATOM     19  C   LIG    1        2.488  -0.279  -0.019  0.00  0.00    -0.100 C 
BRANCH  18  29
ATOM     20  C   LIG    1        1.170   3.193   0.019  0.00  0.00    +0.130 A 
ATOM     21  C   LIG    1       -0.046   3.858   0.034  0.00  0.00    -0.020 A 
ATOM     22  C   LIG    1       -1.225   3.145   0.041  0.00  0.00    -0.120 A 
ATOM     23  C   LIG    1       -1.224   1.753   0.038  0.00  0.00    +0.070 A 
ATOM     24  O   LIG    1       -2.494   1.260   0.064  0.00  0.00    -0.300 OA
ATOM     25  C   LIG    1       -3.407   2.283  -0.370  0.00  0.00    +0.200 C 
ATOM     26  C   LIG    1       -3.615   2.215  -1.885  0.00  0.00    +0.040 C 
ATOM     27  C   LIG    1       -0.012   1.077   0.023  0.00  0.00    +0.060 A 
ATOM     28  C   LIG    1       -2.676   3.587   0.039  0.00  0.00    +0.090 C 
ATOM     29  C   LIG    1        1.190   1.790   0.010  0.00  0.00    -0.080 A 
BRANCH  20  31
ATOM     30  C   LIG    1        2.232   5.319   0.022  0.00  0.00    +0.250 C 
ATOM     31  O   LIG    1        2.333   3.894   0.013  0.00  0.00    -0.310 OA
ENDBRANCH  20  31
ENDBRANCH  18  29
ENDBRANCH   1  19
TORSDOF 4
