REMARK  Name = ZINCqH0000008k22.0
REMARK                            x       y       z     vdW  Elec       q    Type
REMARK                         _______ _______ _______ _____ _____    ______ ____
ROOT
ATOM      1  C   LIG    1        3.265  -2.841   1.392  0.00  0.00    +0.040 C 
ATOM      2  C   LIG    1        3.401  -2.329  -0.044  0.00  0.00    +0.300 C 
ENDROOT
BRANCH   2   3
ATOM      3  C   LIG    1        4.657  -2.889  -0.660  0.00  0.00    -0.120 A 
ATOM      4  C   LIG    1        5.881  -2.315  -0.376  0.00  0.00    +0.070 A 
ATOM      5  C   LIG    1        7.034  -2.828  -0.941  0.00  0.00    +0.010 A 
ATOM      6  C   LIG    1        6.962  -3.917  -1.789  0.00  0.00    +0.120 A 
ATOM      7  C   LIG    1        5.737  -4.492  -2.073  0.00  0.00    -0.670 A 
ATOM      8  C   LIG    1        4.585  -3.981  -1.505  0.00  0.00    +0.130 A 
BRANCH   7   9
ATOM      9  S   LIG    1        5.645  -5.881  -3.154  0.00  0.00    +2.690 S 
ATOM     10  O   LIG    1        6.806  -5.830  -3.972  0.00  0.00    -0.950 OA
ATOM     11  O   LIG    1        4.325  -5.894  -3.678  0.00  0.00    -0.950 OA
BRANCH   9  12
ATOM     12  N   LIG    1        5.791  -7.240  -2.219  0.00  0.00    -1.000 NA
ATOM     13  C   LIG    1        7.115  -7.809  -1.955  0.00  0.00    +0.310 C 
ATOM     14  C   LIG    1        4.596  -7.874  -1.657  0.00  0.00    +0.300 C 
ENDBRANCH   9  12
ENDBRANCH   7   9
ENDBRANCH   2   3
BRANCH   2  15
ATOM     15  N   LIG    1        3.471  -0.866  -0.036  0.00  0.00    -0.690 N 
ATOM     16  H   LIG    1        4.333  -0.422  -0.042  0.00  0.00    +0.410 HD
BRANCH  15  17
ATOM     17  C   LIG    1        2.312  -0.121  -0.021  0.00  0.00    +0.500 A 
ATOM     18  N   LIG    1        1.124  -0.709  -0.013  0.00  0.00    -0.590 NA
ATOM     19  C   LIG    1        0.002  -0.004   0.002  0.00  0.00    +0.420 A 
ATOM     20  N   LIG    1       -0.016   1.309   0.009  0.00  0.00    -0.540 NA
ATOM     21  C   LIG    1        1.131   2.005   0.002  0.00  0.00    +0.200 A 
ATOM     22  C   LIG    1        1.150   3.405   0.010  0.00  0.00    +0.030 A 
ATOM     23  C   LIG    1        2.344   4.063   0.003  0.00  0.00    +0.070 A 
ATOM     24  C   LIG    1        3.547   3.365  -0.013  0.00  0.00    +0.000 A 
ATOM     25  C   LIG    1        3.565   2.000  -0.021  0.00  0.00    +0.060 A 
ATOM     26 CL   LIG    1       -1.512  -0.854   0.011  0.00  0.00    +0.020 Cl
ATOM     27  C   LIG    1        2.357   1.295  -0.013  0.00  0.00    -0.200 A 
ENDBRANCH  15  17
ENDBRANCH   2  15
TORSDOF 5
