REMARK  Name = ZINCpe000015mRTU.0
REMARK                            x       y       z     vdW  Elec       q    Type
REMARK                         _______ _______ _______ _____ _____    ______ ____
ROOT
ATOM      1  N   LIG    1        0.887  -1.978   1.152  0.00  0.00    -0.470 N 
ATOM      2  C   LIG    1        1.509  -2.476  -0.081  0.00  0.00    +0.200 C 
ATOM      3  C   LIG    1        0.681  -2.029  -1.289  0.00  0.00    +0.060 C 
ATOM      4  C   LIG    1        0.608  -0.500  -1.314  0.00  0.00    +0.030 C 
ATOM      5  C   LIG    1        0.002  -0.004   0.002  0.00  0.00    +0.010 C 
ATOM      6  C   LIG    1        0.849  -0.510   1.172  0.00  0.00    +0.230 C 
ENDROOT
BRANCH   4   7
ATOM      7  C   LIG    1       -0.256  -0.055  -2.466  0.00  0.00    -0.090 A 
ATOM      8  C   LIG    1       -1.575  -0.463  -2.537  0.00  0.00    +0.050 A 
ATOM      9  C   LIG    1       -2.370  -0.051  -3.590  0.00  0.00    -0.010 A 
ATOM     10  C   LIG    1       -1.842   0.761  -4.579  0.00  0.00    +0.100 A 
ATOM     11  C   LIG    1       -0.519   1.164  -4.510  0.00  0.00    -0.010 A 
ATOM     12  F   LIG    1       -2.616   1.159  -5.612  0.00  0.00    -0.140 F 
ATOM     13  C   LIG    1        0.273   0.755  -3.453  0.00  0.00    +0.040 A 
ENDBRANCH   4   7
BRANCH   1  17
ATOM     14  C   LIG    1        2.814  -3.345   4.479  0.00  0.00    -0.540 A 
ATOM     15  C   LIG    1        2.340  -4.295   3.586  0.00  0.00    +0.150 A 
ATOM     16  C   LIG    1        1.683  -3.851   2.449  0.00  0.00    +0.010 A 
ATOM     17  C   LIG    1        1.538  -2.475   2.275  0.00  0.00    +0.300 A 
ATOM     18  N   LIG    1        2.030  -1.643   3.182  0.00  0.00    -0.280 NA
ATOM     19  N   LIG    1        2.633  -2.062   4.235  0.00  0.00    -0.100 NA
BRANCH  14  20
ATOM     20  S   LIG    1        3.657  -3.853   5.941  0.00  0.00    +2.720 S 
ATOM     21  O   LIG    1        3.228  -5.180   6.210  0.00  0.00    -0.950 OA
ATOM     22  O   LIG    1        3.523  -2.788   6.872  0.00  0.00    -0.930 OA
BRANCH  20  23
ATOM     23  N   LIG    1        5.268  -3.948   5.569  0.00  0.00    -1.240 NA
ATOM     24  H   LIG    1        5.545  -4.172   4.666  0.00  0.00    +0.420 HD
ATOM     25  H   LIG    1        5.935  -3.781   6.253  0.00  0.00    +0.430 HD
ENDBRANCH  20  23
ENDBRANCH  14  20
ENDBRANCH   1  17
BRANCH   5  26
ATOM     26  C   LIG    1       -0.019   1.526   0.010  0.00  0.00    +0.180 C 
BRANCH  26  27
ATOM     27  O   LIG    1       -0.688   1.987   1.186  0.00  0.00    -0.570 OA
ATOM     28  H   LIG    1       -0.738   2.950   1.258  0.00  0.00    +0.380 HD
ENDBRANCH  26  27
ENDBRANCH   5  26
TORSDOF 6
