REMARK  Name = ZINCrg000000rJ9M.0
REMARK                            x       y       z     vdW  Elec       q    Type
REMARK                         _______ _______ _______ _____ _____    ______ ____
ROOT
ATOM      1  C   LIG    1       -1.166   2.128   0.037  0.00  0.00    +0.560 C 
ATOM      2  N   LIG    1       -0.046   1.476  -0.333  0.00  0.00    -0.600 N 
ATOM      3  C   LIG    1       -0.117   0.068  -0.730  0.00  0.00    +0.290 C 
ATOM      4  O   LIG    1       -1.130   3.325   0.254  0.00  0.00    -0.530 OA
ENDROOT
BRANCH   1  12
ATOM      5  C   LIG    1       -6.620   0.201   2.766  0.00  0.00    +0.080 C 
ATOM      6  C   LIG    1       -7.032   0.069   1.298  0.00  0.00    +0.200 C 
ATOM      7  C   LIG    1       -7.165   1.441   0.691  0.00  0.00    +0.490 C 
ATOM      8  N   LIG    1       -6.068   2.056   0.195  0.00  0.00    -0.670 N 
ATOM      9  H   LIG    1       -6.128   2.944  -0.190  0.00  0.00    +0.410 HD
ATOM     10  C   LIG    1       -4.839   1.380   0.252  0.00  0.00    +0.120 A 
ATOM     11  C   LIG    1       -3.655   2.076   0.118  0.00  0.00    +0.060 A 
ATOM     12  C   LIG    1       -2.436   1.392   0.180  0.00  0.00    -0.110 A 
ATOM     13  C   LIG    1       -2.425   0.007   0.371  0.00  0.00    +0.040 A 
ATOM     14  C   LIG    1       -3.610  -0.681   0.509  0.00  0.00    +0.060 A 
ATOM     15  C   LIG    1       -4.823  -0.004   0.447  0.00  0.00    +0.080 A 
ATOM     16  O   LIG    1       -8.246   1.989   0.646  0.00  0.00    -0.510 OA
ATOM     17  N   LIG    1       -6.018  -0.705   0.576  0.00  0.00    -0.490 N 
ATOM     18  C   LIG    1       -6.520  -1.137  -0.735  0.00  0.00    +0.210 C 
ENDBRANCH   1  12
BRANCH   2  19
ATOM     19  C   LIG    1        1.240   2.177  -0.343  0.00  0.00    +0.380 C 
BRANCH  19  20
ATOM     20  C   LIG    1        1.457   2.808  -1.694  0.00  0.00    -0.260 A 
ATOM     21  C   LIG    1        0.921   3.966  -2.124  0.00  0.00    +0.110 A 
ATOM     22  C   LIG    1       -0.003   4.903  -1.388  0.00  0.00    +0.310 C 
ATOM     23  N   LIG    1       -0.012   6.191  -2.104  0.00  0.00    -0.700 NA
ATOM     24  H   LIG    1       -0.692   6.821  -1.706  0.00  0.00    +0.360 HD
ATOM     25  C   LIG    1       -0.252   5.997  -3.541  0.00  0.00    +0.180 C 
ATOM     26  C   LIG    1        0.979   5.351  -4.189  0.00  0.00    +0.320 C 
ATOM     27  N   LIG    1        1.359   4.182  -3.388  0.00  0.00    -0.370 N 
ATOM     28  N   LIG    1        2.192   3.123  -3.742  0.00  0.00    -0.290 NA
ATOM     29  C   LIG    1        2.257   2.298  -2.725  0.00  0.00    +0.240 A 
ENDBRANCH  19  20
ENDBRANCH   2  19
TORSDOF 3
