REMARK  Name = ZINCrg000000tv2a.0
REMARK                            x       y       z     vdW  Elec       q    Type
REMARK                         _______ _______ _______ _____ _____    ______ ____
ROOT
ATOM      1  C   LIG    1        2.752   0.180  -0.022  0.00  0.00    +0.510 C 
ATOM      2  N   LIG    1        2.456   1.495  -0.013  0.00  0.00    -0.610 N 
ATOM      3  H   LIG    1        3.169   2.153  -0.017  0.00  0.00    +0.430 HD
ATOM      4  O   LIG    1        1.859  -0.643  -0.018  0.00  0.00    -0.510 OA
ENDROOT
BRANCH   2   5
ATOM      5  C   LIG    1        1.115   1.913   0.002  0.00  0.00    +0.010 A 
ATOM      6  C   LIG    1        0.678   3.199   0.012  0.00  0.00    +0.250 A 
ATOM      7  N   LIG    1       -0.683   3.169   0.024  0.00  0.00    -0.320 N 
ATOM      8  N   LIG    1       -1.084   1.827   0.017  0.00  0.00    -0.250 NA
ATOM      9  C   LIG    1       -0.013   1.076   0.008  0.00  0.00    +0.290 A 
BRANCH   7  10
ATOM     10  C   LIG    1       -1.531   4.281   0.037  0.00  0.00    +0.390 A 
ATOM     11  N   LIG    1       -1.097   5.429   0.530  0.00  0.00    -0.470 NA
ATOM     12  C   LIG    1       -1.861   6.504   0.556  0.00  0.00    +0.340 A 
ATOM     13  C   LIG    1       -3.157   6.465   0.077  0.00  0.00    -0.090 A 
ATOM     14  C   LIG    1       -3.653   5.276  -0.443  0.00  0.00    +0.130 A 
ATOM     15 CL   LIG    1       -4.154   7.885   0.126  0.00  0.00    -0.030 Cl
ATOM     16  C   LIG    1       -2.824   4.167  -0.462  0.00  0.00    -0.080 A 
ATOM     17 CL   LIG    1       -3.390   2.655  -1.100  0.00  0.00    -0.000 Cl
ENDBRANCH   7  10
ENDBRANCH   2   5
BRANCH   1  19
ATOM     18  O   LIG    1        5.069   0.559  -0.042  0.00  0.00    -0.510 OA
ATOM     19  C   LIG    1        4.177  -0.264  -0.038  0.00  0.00    +0.520 C 
ATOM     20  N   LIG    1        4.473  -1.579  -0.047  0.00  0.00    -0.700 N 
ATOM     21  H   LIG    1        3.760  -2.237  -0.043  0.00  0.00    +0.420 HD
BRANCH  20  22
ATOM     22  C   LIG    1        5.872  -2.015  -0.062  0.00  0.00    +0.310 C 
BRANCH  22  23
ATOM     23  C   LIG    1        5.929  -3.544  -0.070  0.00  0.00    +0.010 C 
ATOM     24  C   LIG    1        7.388  -4.016  -0.195  0.00  0.00    +0.080 C 
ATOM     25  C   LIG    1        7.452  -5.519   0.140  0.00  0.00    -0.310 C 
ATOM     26  S   LIG    1        6.058  -5.811   1.288  0.00  0.00    +2.390 S 
ATOM     27  O   LIG    1        6.568  -6.112   2.579  0.00  0.00    -0.930 OA
ATOM     28  O   LIG    1        5.119  -6.685   0.676  0.00  0.00    -0.930 OA
ATOM     29  C   LIG    1        5.395  -4.102   1.274  0.00  0.00    -0.320 C 
ENDBRANCH  22  23
ENDBRANCH  20  22
ENDBRANCH   1  19
TORSDOF 5
