REMARK  Name = ZINCkj000005hxn6.0
REMARK                            x       y       z     vdW  Elec       q    Type
REMARK                         _______ _______ _______ _____ _____    ______ ____
ROOT
ATOM      1  C   LIG    1       -2.795   1.544   2.486  0.00  0.00    -0.030 C 
ATOM      2  C   LIG    1       -2.131   0.935   3.723  0.00  0.00    +0.010 C 
ATOM      3  C   LIG    1       -2.826   1.454   4.984  0.00  0.00    +0.040 C 
ATOM      4  C   LIG    1       -4.297   1.026   4.964  0.00  0.00    +0.290 C 
ATOM      5  N   LIG    1       -4.906   1.485   3.708  0.00  0.00    -0.990 NA
ATOM      6  C   LIG    1       -4.265   1.119   2.438  0.00  0.00    +0.320 C 
ENDROOT
BRANCH   5   7
ATOM      7  S   LIG    1       -6.288   2.397   3.724  0.00  0.00    +2.700 S 
ATOM      8  O   LIG    1       -6.307   3.118   2.499  0.00  0.00    -0.940 OA
ATOM      9  O   LIG    1       -6.338   3.027   4.997  0.00  0.00    -0.950 OA
BRANCH   7  10
ATOM     10  C   LIG    1       -7.650   1.282   3.667  0.00  0.00    -0.710 A 
ATOM     11  C   LIG    1       -8.518   1.195   4.737  0.00  0.00    +0.160 A 
ATOM     12  C   LIG    1       -9.588   0.320   4.693  0.00  0.00    -0.030 A 
ATOM     13  C   LIG    1       -9.791  -0.471   3.577  0.00  0.00    +0.120 A 
ATOM     14  C   LIG    1       -8.925  -0.389   2.504  0.00  0.00    -0.090 A 
ATOM     15  C   LIG    1       -7.855   0.493   2.543  0.00  0.00    +0.220 A 
BRANCH  15  16
ATOM     16  O   LIG    1       -7.005   0.580   1.486  0.00  0.00    -0.320 OA
ATOM     17  C   LIG    1       -7.277  -0.262   0.364  0.00  0.00    +0.260 C 
ENDBRANCH  15  16
ENDBRANCH   7  10
ENDBRANCH   5   7
BRANCH   1  18
ATOM     18  C   LIG    1       -2.078   1.051   1.227  0.00  0.00    +0.270 C 
BRANCH  18  20
ATOM     19  C   LIG    1       -0.013   1.086   0.008  0.00  0.00    +0.320 C 
ATOM     20  N   LIG    1       -0.700   1.560   1.217  0.00  0.00    -0.510 N 
ATOM     21  H   LIG    1       -0.714   2.568   1.222  0.00  0.00    +0.430 HD
ATOM     22  H   LIG    1       -0.212   1.225   2.034  0.00  0.00    +0.430 HD
ENDBRANCH  18  20
ENDBRANCH   1  18
TORSDOF 5
