REMARK  Name = ZINCrD000000Bput.0
REMARK                            x       y       z     vdW  Elec       q    Type
REMARK                         _______ _______ _______ _____ _____    ______ ____
ROOT
ATOM      1  C   LIG    1       -2.563   3.850   0.019  0.00  0.00    +0.320 C 
ENDROOT
BRANCH   1   2
ATOM      2  C   LIG    1       -1.244   3.122   0.010  0.00  0.00    -0.120 A 
ATOM      3  C   LIG    1       -1.220   1.739  -0.005  0.00  0.00    +0.050 A 
ATOM      4  C   LIG    1       -0.013   1.068  -0.008  0.00  0.00    +0.020 A 
ATOM      5  C   LIG    1        1.178   1.783  -0.006  0.00  0.00    +0.150 A 
ATOM      6  C   LIG    1        1.150   3.172   0.004  0.00  0.00    -0.010 A 
ATOM      7  C   LIG    1       -0.060   3.837   0.012  0.00  0.00    +0.050 A 
BRANCH   5   8
ATOM      8  N   LIG    1        2.402   1.107  -0.014  0.00  0.00    -0.670 N 
ATOM      9  H   LIG    1        3.158   1.477  -0.496  0.00  0.00    +0.420 HD
ATOM     10  C   LIG    1        2.531  -0.059   0.649  0.00  0.00    +0.610 C 
ATOM     11  O   LIG    1        1.563  -0.566   1.183  0.00  0.00    -0.500 OA
BRANCH  10  12
ATOM     12  C   LIG    1        3.840  -0.717   0.726  0.00  0.00    -0.090 A 
ATOM     13  C   LIG    1        4.109  -1.895   1.362  0.00  0.00    +0.050 A 
ATOM     14  C   LIG    1        5.478  -2.147   1.182  0.00  0.00    -0.070 A 
ATOM     15  C   LIG    1        5.978  -1.124   0.454  0.00  0.00    +0.210 A 
ATOM     16  O   LIG    1        4.987  -0.268   0.176  0.00  0.00    -0.170 OA
ENDBRANCH  10  12
ENDBRANCH   5   8
ENDBRANCH   1   2
BRANCH   1  19
ATOM     17  O   LIG    1       -4.843   5.114  -0.669  0.00  0.00    -0.530 OA
ATOM     18  C   LIG    1       -4.155   4.739  -1.598  0.00  0.00    +0.560 C 
ATOM     19  N   LIG    1       -2.994   4.096  -1.359  0.00  0.00    -0.720 N 
ATOM     20  H   LIG    1       -2.445   3.797  -2.100  0.00  0.00    +0.400 HD
BRANCH  18  21
ATOM     21  C   LIG    1       -4.589   4.987  -2.987  0.00  0.00    -0.150 A 
ATOM     22  C   LIG    1       -3.791   4.558  -4.056  0.00  0.00    +0.060 A 
ATOM     23  C   LIG    1       -4.185   4.777  -5.344  0.00  0.00    +0.020 A 
ATOM     24  C   LIG    1       -5.379   5.439  -5.607  0.00  0.00    +0.070 A 
ATOM     25  N   LIG    1       -6.032   5.807  -6.763  0.00  0.00    -0.600 N 
ATOM     26  H   LIG    1       -5.730   5.645  -7.670  0.00  0.00    +0.430 HD
ATOM     27  C   LIG    1       -7.181   6.439  -6.397  0.00  0.00    +0.490 A 
ATOM     28  N   LIG    1       -7.274   6.483  -5.101  0.00  0.00    -0.490 NA
ATOM     29  C   LIG    1       -6.190   5.881  -4.546  0.00  0.00    +0.030 A 
ATOM     30  C   LIG    1       -5.788   5.651  -3.231  0.00  0.00    +0.160 A 
ENDBRANCH  18  21
ENDBRANCH   1  19
TORSDOF 5
