REMARK  Name = ZINCvU000000094Y.0
REMARK                            x       y       z     vdW  Elec       q    Type
REMARK                         _______ _______ _______ _____ _____    ______ ____
ROOT
ATOM      1  C   LIG    1      -11.101   2.792  -0.425  0.00  0.00    +0.260 A 
ATOM      2  C   LIG    1      -10.625   1.547  -0.831  0.00  0.00    -0.070 A 
ATOM      3  C   LIG    1       -9.281   1.314  -0.888  0.00  0.00    +0.100 A 
ATOM      4  C   LIG    1       -8.379   2.330  -0.538  0.00  0.00    -0.180 A 
ATOM      5  C   LIG    1       -8.864   3.580  -0.124  0.00  0.00    +0.110 A 
ATOM      6  C   LIG    1      -10.210   3.805  -0.076  0.00  0.00    -0.080 A 
ENDROOT
BRANCH   4   7
ATOM      7  C   LIG    1       -6.938   2.085  -0.598  0.00  0.00    +0.260 C 
ATOM      8  C   LIG    1       -6.431   1.170  -1.497  0.00  0.00    -0.170 C 
BRANCH   8   9
ATOM      9  C   LIG    1       -5.007   0.805  -1.450  0.00  0.00    +0.580 C 
ATOM     10  N   LIG    1       -4.511  -0.090  -2.328  0.00  0.00    -0.670 N 
ATOM     11  H   LIG    1       -5.078  -0.444  -3.030  0.00  0.00    +0.410 HD
ATOM     12  O   LIG    1       -4.277   1.310  -0.618  0.00  0.00    -0.510 OA
BRANCH  10  13
ATOM     13  C   LIG    1       -3.181  -0.507  -2.225  0.00  0.00    +0.130 A 
ATOM     14  C   LIG    1       -2.699  -1.010  -1.023  0.00  0.00    -0.070 A 
ATOM     15  C   LIG    1       -1.383  -1.415  -0.924  0.00  0.00    +0.020 A 
ATOM     16  C   LIG    1       -0.547  -1.331  -2.022  0.00  0.00    +0.020 A 
ATOM     17  C   LIG    1       -1.025  -0.836  -3.222  0.00  0.00    +0.020 A 
ATOM     18  C   LIG    1       -3.611  -1.108   0.173  0.00  0.00    +0.100 C 
ATOM     19  C   LIG    1       -2.338  -0.423  -3.326  0.00  0.00    -0.090 A 
ATOM     20  C   LIG    1       -2.858   0.116  -4.634  0.00  0.00    +0.080 C 
ENDBRANCH  10  13
ENDBRANCH   8   9
BRANCH   8  21
ATOM     21  C   LIG    1       -7.290   0.576  -2.475  0.00  0.00    +0.250 C 
ATOM     22  N   LIG    1       -7.973   0.104  -3.252  0.00  0.00    -0.410 NA
ENDBRANCH   8  21
ENDBRANCH   4   7
BRANCH   1  23
ATOM     23  N   LIG    1      -12.469   3.025  -0.367  0.00  0.00    -0.610 N 
BRANCH  23  25
ATOM     24  C   LIG    1      -13.755   1.138   0.509  0.00  0.00    +0.020 C 
ATOM     25  C   LIG    1      -13.409   1.962  -0.733  0.00  0.00    +0.270 C 
ENDBRANCH  23  25
BRANCH  23  26
ATOM     26  C   LIG    1      -12.973   4.333   0.059  0.00  0.00    +0.340 C 
BRANCH  26  27
ATOM     27  C   LIG    1      -13.127   5.228  -1.143  0.00  0.00    -0.110 A 
ATOM     28  C   LIG    1      -12.075   6.029  -1.547  0.00  0.00    +0.020 A 
ATOM     29  C   LIG    1      -12.214   6.847  -2.652  0.00  0.00    +0.000 A 
ATOM     30  C   LIG    1      -13.408   6.872  -3.348  0.00  0.00    +0.010 A 
ATOM     31  C   LIG    1      -14.462   6.075  -2.941  0.00  0.00    +0.000 A 
ATOM     32  C   LIG    1      -14.321   5.253  -1.838  0.00  0.00    +0.010 A 
ENDBRANCH  26  27
ENDBRANCH  23  26
ENDBRANCH   1  23
TORSDOF 8
