REMARK  Name = ZINCvU00000005YF.0
REMARK                            x       y       z     vdW  Elec       q    Type
REMARK                         _______ _______ _______ _____ _____    ______ ____
ROOT
ATOM      1  C   LIG    1        3.007   4.292  -1.163  0.00  0.00    +0.300 A 
ATOM      2  N   LIG    1        4.154   4.886  -1.245  0.00  0.00    -0.460 NA
ATOM      3  C   LIG    1        4.598   5.179  -2.470  0.00  0.00    +0.100 A 
ATOM      4  C   LIG    1        3.769   4.819  -3.479  0.00  0.00    -0.050 A 
ATOM      5  S   LIG    1        2.346   4.053  -2.776  0.00  0.00    +0.110 S 
ENDROOT
BRANCH   1   8
ATOM      6  C   LIG    1        2.213   3.916   2.488  0.00  0.00    +0.130 C 
ATOM      7  C   LIG    1        2.941   4.232   1.207  0.00  0.00    +0.510 C 
ATOM      8  N   LIG    1        2.389   3.907   0.021  0.00  0.00    -0.480 N 
ATOM      9  O   LIG    1        4.023   4.778   1.242  0.00  0.00    -0.460 OA
BRANCH   8  10
ATOM     10  C   LIG    1        1.191   3.180  -0.019  0.00  0.00    +0.060 A 
ATOM     11  C   LIG    1       -0.026   3.846  -0.030  0.00  0.00    +0.070 A 
ATOM     12  C   LIG    1       -1.206   3.127  -0.070  0.00  0.00    +0.020 A 
ATOM     13  C   LIG    1       -1.175   1.745  -0.104  0.00  0.00    +0.070 A 
ATOM     14  C   LIG    1        0.035   1.077  -0.087  0.00  0.00    +0.000 A 
ATOM     15  C   LIG    1        1.219   1.790  -0.047  0.00  0.00    +0.120 A 
ATOM     16  F   LIG    1        2.402   1.137  -0.036  0.00  0.00    -0.120 F 
ENDBRANCH   8  10
ENDBRANCH   1   8
BRANCH   3  17
ATOM     17  C   LIG    1        5.882   5.846  -2.704  0.00  0.00    +0.150 C 
ATOM     18  C   LIG    1        6.670   6.183  -1.657  0.00  0.00    -0.040 C 
BRANCH  18  19
ATOM     19  C   LIG    1        7.912   6.827  -1.884  0.00  0.00    +0.550 C 
ATOM     20  N   LIG    1        8.697   7.163  -0.841  0.00  0.00    -0.720 N 
ATOM     21  H   LIG    1        8.412   6.964   0.064  0.00  0.00    +0.400 HD
ATOM     22  O   LIG    1        8.269   7.077  -3.021  0.00  0.00    -0.540 OA
BRANCH  20  23
ATOM     23  C   LIG    1        9.980   7.829  -1.075  0.00  0.00    +0.180 C 
ATOM     24  C   LIG    1        9.742   9.155  -1.801  0.00  0.00    +0.030 C 
ATOM     25  C   LIG    1       11.082   9.851  -2.046  0.00  0.00    -0.010 C 
ATOM     26  C   LIG    1       11.974   8.952  -2.905  0.00  0.00    +0.010 C 
ATOM     27  C   LIG    1       12.212   7.626  -2.179  0.00  0.00    -0.010 C 
ATOM     28  C   LIG    1       12.899   7.895  -0.839  0.00  0.00    +0.010 C 
ATOM     29  C   LIG    1       12.008   8.794   0.020  0.00  0.00    -0.010 C 
ATOM     30  C   LIG    1       11.770  10.119  -0.706  0.00  0.00    +0.010 C 
ATOM     31  C   LIG    1       10.872   6.931  -1.935  0.00  0.00    +0.030 C 
ATOM     32  C   LIG    1       10.667   8.098   0.265  0.00  0.00    +0.020 C 
ENDBRANCH  20  23
ENDBRANCH  18  19
ENDBRANCH   3  17
TORSDOF 5
