REMARK  Name = ZINCpk00000Fdj6i.0
REMARK                            x       y       z     vdW  Elec       q    Type
REMARK                         _______ _______ _______ _____ _____    ______ ____
ROOT
ATOM      1  C   LIG    1        3.057   3.891   1.615  0.00  0.00    +0.580 C 
ATOM      2  N   LIG    1        2.568   3.915   0.359  0.00  0.00    -0.610 N 
ATOM      3  C   LIG    1        3.162   4.638  -0.781  0.00  0.00    +0.240 C 
ATOM      4  C   LIG    1        1.984   4.877  -1.757  0.00  0.00    +0.170 C 
ATOM      5  C   LIG    1        1.175   3.562  -1.597  0.00  0.00    +0.080 C 
ATOM      6  C   LIG    1        1.353   3.227  -0.101  0.00  0.00    +0.270 C 
ATOM      7  O   LIG    1        4.095   4.468   1.874  0.00  0.00    -0.510 OA
ENDROOT
BRANCH   6   8
ATOM      8  C   LIG    1        1.510   1.738   0.075  0.00  0.00    -0.120 A 
ATOM      9  C   LIG    1        2.767   1.192   0.246  0.00  0.00    +0.030 A 
ATOM     10  C   LIG    1        2.912  -0.176   0.408  0.00  0.00    +0.100 A 
ATOM     11  C   LIG    1        1.796  -0.996   0.398  0.00  0.00    +0.030 A 
ATOM     12  C   LIG    1        0.538  -0.449   0.226  0.00  0.00    +0.040 A 
ATOM     13  F   LIG    1        4.141  -0.711   0.575  0.00  0.00    -0.130 F 
ATOM     14  C   LIG    1        0.394   0.918   0.065  0.00  0.00    +0.100 A 
ATOM     15  F   LIG    1       -0.835   1.452  -0.108  0.00  0.00    -0.120 F 
ENDBRANCH   6   8
BRANCH   1  19
ATOM     16  C   LIG    1        0.927   1.802   4.582  0.00  0.00    +0.100 A 
ATOM     17  C   LIG    1        2.175   2.326   4.912  0.00  0.00    +0.040 A 
ATOM     18  C   LIG    1        2.893   3.017   3.950  0.00  0.00    +0.140 A 
ATOM     19  C   LIG    1        2.331   3.161   2.677  0.00  0.00    -0.170 A 
ATOM     20  C   LIG    1        1.071   2.610   2.425  0.00  0.00    +0.290 A 
ATOM     21  N   LIG    1        0.424   1.957   3.364  0.00  0.00    -0.460 NA
BRANCH  16  25
ATOM     22  N   LIG    1       -1.057   0.549   5.296  0.00  0.00    -0.830 N 
ATOM     23  H   LIG    1       -1.564   0.064   5.965  0.00  0.00    +0.410 HD
ATOM     24  H   LIG    1       -1.419   0.666   4.404  0.00  0.00    +0.410 HD
ATOM     25  C   LIG    1        0.151   1.060   5.606  0.00  0.00    +0.580 C 
ATOM     26  O   LIG    1        0.605   0.913   6.723  0.00  0.00    -0.530 OA
ENDBRANCH  16  25
ENDBRANCH   1  19
BRANCH   4  27
ATOM     27  O   LIG    1        2.451   5.030  -3.098  0.00  0.00    -0.550 OA
ATOM     28  H   LIG    1        2.962   5.838  -3.247  0.00  0.00    +0.390 HD
ENDBRANCH   4  27
TORSDOF 4
