REMARK  Name = ZINCvU0000000A2I.0
REMARK                            x       y       z     vdW  Elec       q    Type
REMARK                         _______ _______ _______ _____ _____    ______ ____
ROOT
ATOM      1  N   LIG    1        4.713   1.662   5.236  0.00  0.00    -0.670 N 
ATOM      2  H   LIG    1        4.662   0.882   5.811  0.00  0.00    +0.410 HD
ATOM      3  C   LIG    1        5.312   2.786   5.675  0.00  0.00    +0.560 C 
ATOM      4  O   LIG    1        5.293   3.791   4.992  0.00  0.00    -0.500 OA
ENDROOT
BRANCH   1   8
ATOM      5  C   LIG    1        3.076   1.532   1.408  0.00  0.00    -0.130 A 
ATOM      6  C   LIG    1        4.210   2.286   1.648  0.00  0.00    +0.050 A 
ATOM      7  C   LIG    1        4.751   2.336   2.918  0.00  0.00    +0.020 A 
ATOM      8  C   LIG    1        4.163   1.618   3.951  0.00  0.00    +0.160 A 
ATOM      9  C   LIG    1        3.027   0.858   3.705  0.00  0.00    -0.010 A 
ATOM     10  C   LIG    1        2.487   0.817   2.435  0.00  0.00    +0.050 A 
BRANCH   5  11
ATOM     11  C   LIG    1        2.484   1.484   0.023  0.00  0.00    +0.350 C 
BRANCH  11  17
ATOM     12  C   LIG    1       -0.506   1.604   0.827  0.00  0.00    +0.170 C 
ATOM     13  C   LIG    1        0.292   2.704   0.175  0.00  0.00    +0.210 A 
ATOM     14  N   LIG    1       -0.164   3.883  -0.151  0.00  0.00    -0.490 NA
ATOM     15  C   LIG    1        0.825   4.601  -0.704  0.00  0.00    +0.140 A 
ATOM     16  C   LIG    1        1.933   3.836  -0.729  0.00  0.00    +0.110 A 
ATOM     17  N   LIG    1        1.596   2.633  -0.169  0.00  0.00    -0.450 N 
ENDBRANCH  11  17
ENDBRANCH   5  11
ENDBRANCH   1   8
BRANCH   3  18
ATOM     18  C   LIG    1        5.992   2.797   6.987  0.00  0.00    -0.130 A 
ATOM     19  C   LIG    1        6.011   1.646   7.777  0.00  0.00    +0.110 A 
ATOM     20  C   LIG    1        6.653   1.661   8.998  0.00  0.00    -0.180 A 
ATOM     21  C   LIG    1        7.267   2.817   9.446  0.00  0.00    +0.120 A 
ATOM     22  C   LIG    1        7.248   3.963   8.670  0.00  0.00    -0.090 A 
ATOM     23  C   LIG    1        6.615   3.960   7.445  0.00  0.00    +0.150 A 
BRANCH  20  24
ATOM     24  C   LIG    1        6.679   0.418   9.849  0.00  0.00    +0.510 C 
ATOM     25  F   LIG    1        7.846   0.405  10.620  0.00  0.00    -0.170 F 
ATOM     26  F   LIG    1        6.652  -0.712   9.025  0.00  0.00    -0.170 F 
ATOM     27  F   LIG    1        5.563   0.406  10.692  0.00  0.00    -0.170 F 
ENDBRANCH  20  24
BRANCH  22  28
ATOM     28  C   LIG    1        7.920   5.217   9.166  0.00  0.00    +0.080 C 
ATOM     29  C   LIG    1        7.280   5.652  10.486  0.00  0.00    +0.090 C 
ATOM     30  C   LIG    1        7.754   6.329   8.128  0.00  0.00    +0.090 C 
BRANCH  28  31
ATOM     31  C   LIG    1        9.353   4.955   9.379  0.00  0.00    +0.210 C 
ATOM     32  N   LIG    1       10.459   4.752   9.543  0.00  0.00    -0.410 NA
ENDBRANCH  28  31
ENDBRANCH  22  28
ENDBRANCH   3  18
TORSDOF 7
