REMARK  Name = ZINCnE000001KGMX.0
REMARK                            x       y       z     vdW  Elec       q    Type
REMARK                         _______ _______ _______ _____ _____    ______ ____
ROOT
ATOM      1  C   LIG    1       -0.277  -6.178  -0.029  0.00  0.00    -0.090 C 
ATOM      2  C   LIG    1        0.001  -7.003   1.228  0.00  0.00    +0.050 C 
ATOM      3  C   LIG    1        0.818  -7.246  -0.043  0.00  0.00    +0.060 C 
ENDROOT
BRANCH   1   6
ATOM      4  C   LIG    1       -3.736  -5.815  -1.508  0.00  0.00    +0.110 A 
ATOM      5  C   LIG    1       -2.569  -5.544  -0.809  0.00  0.00    +0.000 A 
ATOM      6  C   LIG    1       -1.546  -6.472  -0.788  0.00  0.00    -0.000 A 
ATOM      7  C   LIG    1       -1.682  -7.668  -1.468  0.00  0.00    -0.040 A 
ATOM      8  C   LIG    1       -2.846  -7.943  -2.162  0.00  0.00    +0.020 A 
ATOM      9  C   LIG    1       -3.872  -7.019  -2.185  0.00  0.00    -0.130 A 
ATOM     10  C   LIG    1       -5.138  -7.316  -2.946  0.00  0.00    +0.090 C 
BRANCH   4  12
ATOM     11  C   LIG    1       -4.534  -3.687  -0.811  0.00  0.00    +0.240 C 
ATOM     12  O   LIG    1       -4.744  -4.904  -1.530  0.00  0.00    -0.320 OA
ENDBRANCH   4  12
ENDBRANCH   1   6
BRANCH   1  13
ATOM     13  C   LIG    1        0.158  -4.735  -0.025  0.00  0.00    +0.500 C 
ATOM     14  N   LIG    1       -0.765  -3.753  -0.012  0.00  0.00    -0.660 NA
ATOM     15  O   LIG    1        1.338  -4.458  -0.034  0.00  0.00    -0.560 OA
BRANCH  14  16
ATOM     16  C   LIG    1       -0.364  -2.422  -0.008  0.00  0.00    +0.300 A 
ATOM     17  N   LIG    1        0.865  -2.001  -0.017  0.00  0.00    -0.360 NA
ATOM     18  N   LIG    1        1.058  -0.754  -0.012  0.00  0.00    -0.180 NA
ATOM     19  C   LIG    1        0.002  -0.004   0.002  0.00  0.00    -0.190 A 
ATOM     20  S   LIG    1       -1.408  -1.064   0.017  0.00  0.00    +0.050 S 
BRANCH  19  21
ATOM     21  C   LIG    1       -0.018   1.503   0.010  0.00  0.00    +0.510 C 
ATOM     22  F   LIG    1       -0.673   1.954   1.161  0.00  0.00    -0.200 F 
ATOM     23  F   LIG    1       -0.695   1.966  -1.123  0.00  0.00    -0.200 F 
ENDBRANCH  19  21
ENDBRANCH  14  16
ENDBRANCH   1  13
TORSDOF 5
