REMARK  Name = ZINCrD000000A7ry.0
REMARK                            x       y       z     vdW  Elec       q    Type
REMARK                         _______ _______ _______ _____ _____    ______ ____
ROOT
ATOM      1  N   LIG    1       -1.114   5.310  -2.832  0.00  0.00    -0.740 N 
ATOM      2  H   LIG    1       -0.555   4.647  -3.268  0.00  0.00    +0.400 HD
ATOM      3  C   LIG    1       -1.612   5.067  -1.604  0.00  0.00    +0.710 C 
ATOM      4  N   LIG    1       -1.256   3.949  -0.940  0.00  0.00    -0.610 N 
ATOM      5  C   LIG    1       -0.437   2.985  -1.618  0.00  0.00    +0.250 C 
ATOM      6  C   LIG    1       -0.743   1.573  -1.221  0.00  0.00    -0.030 C 
ATOM      7  C   LIG    1       -0.020   1.077  -0.000  0.00  0.00    +0.030 C 
ATOM      8  C   LIG    1       -0.721   1.569   1.266  0.00  0.00    -0.010 C 
ATOM      9  C   LIG    1       -0.748   3.068   1.329  0.00  0.00    +0.040 C 
ATOM     10  C   LIG    1       -2.129   0.978   1.301  0.00  0.00    +0.020 C 
ATOM     11  C   LIG    1       -2.903   1.592   0.132  0.00  0.00    -0.030 C 
ATOM     12  C   LIG    1       -3.080   3.082   0.388  0.00  0.00    +0.020 C 
ATOM     13  C   LIG    1       -2.233   1.277  -1.190  0.00  0.00    +0.020 C 
ATOM     14  C   LIG    1       -1.719   3.779   0.425  0.00  0.00    +0.260 C 
ATOM     15  O   LIG    1       -2.384   5.856  -1.094  0.00  0.00    -0.580 OA
ENDROOT
BRANCH   1  21
ATOM     16  O   LIG    1        0.745   8.690  -6.462  0.00  0.00    -0.530 OA
ATOM     17  C   LIG    1       -0.465   8.638  -6.394  0.00  0.00    +0.540 C 
ATOM     18  N   LIG    1       -1.056   7.761  -5.558  0.00  0.00    -0.620 N 
ATOM     19  C   LIG    1       -2.503   7.519  -5.454  0.00  0.00    +0.250 C 
ATOM     20  C   LIG    1       -2.712   6.457  -4.353  0.00  0.00    +0.030 C 
ATOM     21  C   LIG    1       -1.415   6.574  -3.508  0.00  0.00    +0.260 C 
ATOM     22  C   LIG    1       -0.360   6.886  -4.598  0.00  0.00    +0.260 C 
BRANCH  17  23
ATOM     23  C   LIG    1       -1.308   9.553  -7.245  0.00  0.00    -0.010 C 
ATOM     24  C   LIG    1       -0.516   9.966  -8.488  0.00  0.00    +0.040 C 
ATOM     25  C   LIG    1       -1.371  10.895  -9.352  0.00  0.00    +0.010 C 
ATOM     26  C   LIG    1       -1.743  12.142  -8.546  0.00  0.00    +0.000 C 
ATOM     27  C   LIG    1       -2.534  11.729  -7.303  0.00  0.00    +0.010 C 
ATOM     28  C   LIG    1       -1.679  10.800  -6.440  0.00  0.00    +0.030 C 
ENDBRANCH  17  23
ENDBRANCH   1  21
TORSDOF 2
