REMARK  Name = ZINCpk00000FmKiK.0
REMARK                            x       y       z     vdW  Elec       q    Type
REMARK                         _______ _______ _______ _____ _____    ______ ____
ROOT
ATOM      1  C   LIG    1        2.904   2.349   4.270  0.00  0.00    +0.120 C 
ENDROOT
BRANCH   1   7
ATOM      2  C   LIG    1        4.201   1.534  10.748  0.00  0.00    +0.100 C 
ATOM      3  C   LIG    1        4.030   1.457   9.252  0.00  0.00    -0.030 A 
ATOM      4  C   LIG    1        3.427   2.506   8.575  0.00  0.00    +0.000 A 
ATOM      5  C   LIG    1        3.264   2.450   7.209  0.00  0.00    +0.080 A 
ATOM      6  C   LIG    1        3.710   1.327   6.505  0.00  0.00    -0.150 A 
ATOM      7  C   LIG    1        3.552   1.235   5.051  0.00  0.00    +0.050 A 
ATOM      8  C   LIG    1        4.001   0.117   4.427  0.00  0.00    -0.080 A 
ATOM      9  C   LIG    1        4.609  -0.911   5.181  0.00  0.00    +0.510 A 
ATOM     10  O   LIG    1        4.751  -0.819   6.512  0.00  0.00    -0.270 OA
ATOM     11  O   LIG    1        5.012  -1.907   4.609  0.00  0.00    -0.460 OA
ATOM     12  C   LIG    1        4.321   0.265   7.194  0.00  0.00    +0.150 A 
ATOM     13  C   LIG    1        4.475   0.343   8.572  0.00  0.00    +0.000 A 
ENDBRANCH   1   7
BRANCH   1  14
ATOM     14  C   LIG    1        1.407   2.172   4.291  0.00  0.00    +0.520 C 
ATOM     15  N   LIG    1        0.615   3.057   3.654  0.00  0.00    -0.710 N 
ATOM     16  H   LIG    1        1.008   3.807   3.181  0.00  0.00    +0.410 HD
ATOM     17  O   LIG    1        0.916   1.234   4.881  0.00  0.00    -0.530 OA
BRANCH  15  18
ATOM     18  C   LIG    1       -0.840   2.885   3.674  0.00  0.00    +0.230 C 
ATOM     19  C   LIG    1       -1.410   3.514   4.947  0.00  0.00    +0.040 C 
BRANCH  18  20
ATOM     20  C   LIG    1       -1.451   3.568   2.449  0.00  0.00    +0.180 C 
BRANCH  20  21
ATOM     21  N   LIG    1       -0.817   3.048   1.230  0.00  0.00    -0.530 NA
ATOM     22  C   LIG    1       -0.731   1.580   1.266  0.00  0.00    +0.140 C 
ATOM     23  C   LIG    1       -0.013   1.086   0.008  0.00  0.00    +0.220 C 
ATOM     24  O   LIG    1       -0.706   1.560  -1.149  0.00  0.00    -0.380 OA
ATOM     25  C   LIG    1       -0.807   2.985  -1.216  0.00  0.00    +0.220 C 
ATOM     26  C   LIG    1       -1.534   3.499   0.029  0.00  0.00    +0.160 C 
ENDBRANCH  20  21
ENDBRANCH  18  20
ENDBRANCH  15  18
ENDBRANCH   1  14
TORSDOF 5
