REMARK  Name = ZINCpk00000KfLHm.0
REMARK                            x       y       z     vdW  Elec       q    Type
REMARK                         _______ _______ _______ _____ _____    ______ ____
ROOT
ATOM      1  C   LIG    1        1.378   7.136   2.754  0.00  0.00    -0.090 A 
ATOM      2  C   LIG    1        1.016   8.237   1.966  0.00  0.00    +0.040 A 
ATOM      3  C   LIG    1       -0.094   8.145   1.152  0.00  0.00    +0.280 A 
ATOM      4  N   LIG    1       -0.815   7.042   1.107  0.00  0.00    -0.490 NA
ATOM      5  C   LIG    1       -0.512   5.977   1.834  0.00  0.00    +0.290 A 
ATOM      6  C   LIG    1        0.588   5.987   2.684  0.00  0.00    +0.030 A 
ENDROOT
BRANCH   5   7
ATOM      7  N   LIG    1       -1.306   4.839   1.750  0.00  0.00    -0.470 N 
ATOM      8  C   LIG    1       -2.430   5.045   0.811  0.00  0.00    +0.230 C 
ATOM      9  C   LIG    1       -2.660   3.659   0.160  0.00  0.00    +0.020 C 
ATOM     10  C   LIG    1       -1.208   3.131   0.025  0.00  0.00    -0.020 C 
ATOM     11  C   LIG    1       -3.321   3.801  -1.213  0.00  0.00    +0.040 C 
ATOM     12  C   LIG    1       -0.519   3.679   1.293  0.00  0.00    +0.220 C 
BRANCH  10  13
ATOM     13  C   LIG    1       -1.187   1.624   0.017  0.00  0.00    +0.530 C 
ATOM     14  O   LIG    1       -2.229   1.003   0.018  0.00  0.00    -0.530 OA
ATOM     15  N   LIG    1       -0.011   0.966   0.007  0.00  0.00    -0.860 N 
ATOM     16  H   LIG    1        0.822   1.462   0.002  0.00  0.00    +0.400 HD
ATOM     17  H   LIG    1        0.002  -0.004   0.002  0.00  0.00    +0.400 HD
ENDBRANCH  10  13
ENDBRANCH   5   7
BRANCH   1  18
ATOM     18  C   LIG    1        2.562   7.193   3.640  0.00  0.00    +0.490 C 
ATOM     19  O   LIG    1        2.861   6.228   4.318  0.00  0.00    -0.440 OA
BRANCH  18  24
ATOM     20  N   LIG    1        4.488   8.600   4.479  0.00  0.00    -0.410 N 
ATOM     21  C   LIG    1        4.938   9.854   4.238  0.00  0.00    +0.170 A 
ATOM     22  C   LIG    1        4.098  10.415   3.331  0.00  0.00    +0.160 A 
ATOM     23  N   LIG    1        3.161   9.524   3.022  0.00  0.00    -0.430 NA
ATOM     24  C   LIG    1        3.378   8.416   3.702  0.00  0.00    +0.110 A 
BRANCH  20  25
ATOM     25  C   LIG    1        5.080   7.624   5.397  0.00  0.00    +0.300 C 
BRANCH  25  27
ATOM     26  C   LIG    1        6.643   5.683   5.580  0.00  0.00    +0.030 C 
ATOM     27  C   LIG    1        6.025   6.703   4.622  0.00  0.00    +0.010 C 
ENDBRANCH  25  27
ENDBRANCH  20  25
ENDBRANCH  18  24
ENDBRANCH   1  18
TORSDOF 6
