REMARK  Name = ZINCqH0000007EEJ.0
REMARK                            x       y       z     vdW  Elec       q    Type
REMARK                         _______ _______ _______ _____ _____    ______ ____
ROOT
ATOM      1  S   LIG    1       -2.745   4.361  -0.595  0.00  0.00    +2.690 S 
ATOM      2  O   LIG    1       -2.599   5.687  -0.106  0.00  0.00    -0.950 OA
ATOM      3  O   LIG    1       -3.783   3.487  -0.172  0.00  0.00    -0.950 OA
ENDROOT
BRANCH   1   4
ATOM      4  C   LIG    1       -1.228   3.534  -0.252  0.00  0.00    -0.680 A 
ATOM      5  C   LIG    1       -1.221   2.172  -0.015  0.00  0.00    +0.020 A 
ATOM      6  C   LIG    1       -0.031   1.524   0.258  0.00  0.00    -0.120 A 
ATOM      7  C   LIG    1        1.154   2.236   0.286  0.00  0.00    -0.020 A 
ATOM      8  C   LIG    1        1.147   3.597   0.046  0.00  0.00    -0.120 A 
ATOM      9  C   LIG    1        2.438   4.374   0.077  0.00  0.00    +0.090 C 
ATOM     10  C   LIG    1        2.452   1.528   0.578  0.00  0.00    +0.100 C 
ATOM     11  C   LIG    1       -0.024   0.040   0.520  0.00  0.00    +0.090 C 
ATOM     12  C   LIG    1       -2.511   1.394  -0.052  0.00  0.00    +0.110 C 
ATOM     13  C   LIG    1       -0.043   4.246  -0.223  0.00  0.00    +0.030 A 
ATOM     14  C   LIG    1       -0.050   5.730  -0.485  0.00  0.00    +0.100 C 
ENDBRANCH   1   4
BRANCH   1  15
ATOM     15  N   LIG    1       -2.877   4.481  -2.241  0.00  0.00    -1.110 NA
ATOM     16  H   LIG    1       -2.866   5.353  -2.666  0.00  0.00    +0.420 HD
BRANCH  15  17
ATOM     17  C   LIG    1       -3.010   3.270  -3.055  0.00  0.00    +0.330 C 
BRANCH  17  22
ATOM     18  C   LIG    1       -3.002   4.473  -6.645  0.00  0.00    +0.110 A 
ATOM     19  C   LIG    1       -4.338   4.330  -6.981  0.00  0.00    -0.050 A 
ATOM     20  C   LIG    1       -5.238   3.846  -6.050  0.00  0.00    +0.050 A 
ATOM     21  C   LIG    1       -4.808   3.504  -4.782  0.00  0.00    +0.010 A 
ATOM     22  C   LIG    1       -3.475   3.644  -4.439  0.00  0.00    -0.080 A 
ATOM     23  C   LIG    1       -2.570   4.133  -5.366  0.00  0.00    +0.080 A 
BRANCH  18  25
ATOM     24  C   LIG    1       -2.631   5.282  -8.850  0.00  0.00    +0.240 C 
ATOM     25  O   LIG    1       -2.116   4.948  -7.560  0.00  0.00    -0.310 OA
ENDBRANCH  18  25
BRANCH  23  26
ATOM     26  O   LIG    1       -1.260   4.276  -5.029  0.00  0.00    -0.320 OA
ATOM     27  C   LIG    1       -0.403   3.158  -5.267  0.00  0.00    +0.210 C 
ENDBRANCH  23  26
ENDBRANCH  17  22
ENDBRANCH  15  17
ENDBRANCH   1  15
TORSDOF 6
