REMARK  Name = ZINCnE000001Qsh1.1
REMARK                            x       y       z     vdW  Elec       q    Type
REMARK                         _______ _______ _______ _____ _____    ______ ____
ROOT
ATOM      1  C   LIG    1        6.080  -1.823  -0.068  0.00  0.00    +0.400 A 
ATOM      2  C   LIG    1        4.931  -2.611  -0.060  0.00  0.00    -0.120 A 
ATOM      3  C   LIG    1        3.702  -2.006  -0.039  0.00  0.00    +0.150 A 
ATOM      4  C   LIG    1        3.647  -0.604  -0.036  0.00  0.00    -0.120 A 
ATOM      5  C   LIG    1        4.840   0.122  -0.044  0.00  0.00    +0.350 A 
ATOM      6  N   LIG    1        6.000  -0.500  -0.059  0.00  0.00    -0.550 NA
ENDROOT
BRANCH   4   7
ATOM      7  C   LIG    1        2.347   0.093  -0.020  0.00  0.00    +0.380 A 
ATOM      8  N   LIG    1        2.319   1.411  -0.013  0.00  0.00    -0.620 NA
ATOM      9  C   LIG    1        1.168   2.080   0.002  0.00  0.00    +0.160 A 
ATOM     10  C   LIG    1       -0.017   1.404   0.010  0.00  0.00    -0.350 A 
ATOM     11  C   LIG    1        0.002  -0.004   0.002  0.00  0.00    +0.490 A 
ATOM     12  O   LIG    1       -1.039  -0.640   0.009  0.00  0.00    -0.630 OA
ATOM     13  C   LIG    1       -1.325   2.152   0.020  0.00  0.00    +0.070 C 
ATOM     14  C   LIG    1        1.174   3.587   0.010  0.00  0.00    +0.090 C 
ATOM     15  N   LIG    1        1.195  -0.636  -0.013  0.00  0.00    -0.660 NA
ENDBRANCH   4   7
BRANCH   1  16
ATOM     16  N   LIG    1        7.325  -2.432  -0.084  0.00  0.00    -0.720 N 
ATOM     17  H   LIG    1        8.130  -1.891  -0.089  0.00  0.00    +0.400 HD
BRANCH  16  18
ATOM     18  C   LIG    1        7.425  -3.894  -0.093  0.00  0.00    +0.360 C 
BRANCH  18  21
ATOM     19  C   LIG    1        9.093  -4.365   2.372  0.00  0.00    +0.110 C 
ATOM     20  C   LIG    1        9.629  -4.510   0.971  0.00  0.00    -0.080 A 
ATOM     21  C   LIG    1        8.877  -4.298  -0.110  0.00  0.00    -0.210 A 
ATOM     22  S   LIG    1        9.837  -4.569  -1.559  0.00  0.00    +0.110 S 
ATOM     23  C   LIG    1       11.250  -4.957  -0.586  0.00  0.00    -0.050 A 
ATOM     24  C   LIG    1       10.938  -4.874   0.708  0.00  0.00    +0.000 A 
ENDBRANCH  18  21
ENDBRANCH  16  18
ENDBRANCH   1  16
TORSDOF 4
