REMARK  Name = ZINCrD000000A52m.0
REMARK                            x       y       z     vdW  Elec       q    Type
REMARK                         _______ _______ _______ _____ _____    ______ ____
ROOT
ATOM      1  C   LIG    1        3.753   3.081  -2.286  0.00  0.00    +0.530 C 
ATOM      2  N   LIG    1        3.495   3.278  -0.978  0.00  0.00    -0.720 N 
ATOM      3  H   LIG    1        3.192   4.146  -0.669  0.00  0.00    +0.410 HD
ATOM      4  O   LIG    1        4.132   1.995  -2.672  0.00  0.00    -0.520 OA
ENDROOT
BRANCH   1   5
ATOM      5  C   LIG    1        3.570   4.208  -3.269  0.00  0.00    +0.110 C 
BRANCH   5  10
ATOM      6  C   LIG    1        3.301   2.642  -6.700  0.00  0.00    +0.230 A 
ATOM      7  C   LIG    1        4.580   2.854  -7.198  0.00  0.00    -0.060 A 
ATOM      8  C   LIG    1        5.523   3.502  -6.424  0.00  0.00    +0.070 A 
ATOM      9  C   LIG    1        5.195   3.939  -5.154  0.00  0.00    -0.030 A 
ATOM     10  C   LIG    1        3.923   3.730  -4.654  0.00  0.00    -0.010 A 
ATOM     11  C   LIG    1        2.977   3.078  -5.420  0.00  0.00    -0.100 A 
ATOM     12 CL   LIG    1        1.382   2.808  -4.789  0.00  0.00    -0.070 Cl
BRANCH   6  13
ATOM     13  N   LIG    1        2.345   1.987  -7.481  0.00  0.00    -0.870 N 
ATOM     14  H   LIG    1        1.452   1.840  -7.132  0.00  0.00    +0.400 HD
ATOM     15  H   LIG    1        2.574   1.680  -8.372  0.00  0.00    +0.400 HD
ENDBRANCH   6  13
ENDBRANCH   5  10
ENDBRANCH   1   5
BRANCH   2  16
ATOM     16  C   LIG    1        3.672   2.182  -0.023  0.00  0.00    +0.290 C 
BRANCH  16  17
ATOM     17  C   LIG    1        3.928   2.748   1.350  0.00  0.00    +0.520 C 
ATOM     18  N   LIG    1        4.533   1.994   2.288  0.00  0.00    -0.600 N 
ATOM     19  C   LIG    1        5.042   0.655   1.959  0.00  0.00    +0.270 C 
ATOM     20  C   LIG    1        6.520   0.580   2.369  0.00  0.00    +0.010 C 
ATOM     21  C   LIG    1        6.654   0.956   3.847  0.00  0.00    +0.020 C 
ATOM     22  C   LIG    1        6.169   2.393   4.054  0.00  0.00    +0.010 C 
ATOM     23  C   LIG    1        4.692   2.491   3.662  0.00  0.00    +0.270 C 
ATOM     24  O   LIG    1        3.589   3.884   1.610  0.00  0.00    -0.530 OA
ENDBRANCH  16  17
BRANCH  16  25
ATOM     25  C   LIG    1        2.426   1.335   0.007  0.00  0.00    -0.100 A 
ATOM     26  C   LIG    1        1.184   1.936   0.102  0.00  0.00    +0.030 A 
ATOM     27  C   LIG    1        0.041   1.160   0.130  0.00  0.00    +0.000 A 
ATOM     28  C   LIG    1        0.139  -0.217   0.065  0.00  0.00    +0.010 A 
ATOM     29  C   LIG    1        1.380  -0.818  -0.029  0.00  0.00    +0.010 A 
ATOM     30  C   LIG    1        2.524  -0.042  -0.057  0.00  0.00    +0.020 A 
ENDBRANCH  16  25
ENDBRANCH   2  16
TORSDOF 6
