REMARK  Name = ZINCkj000005ksrt.1
REMARK                            x       y       z     vdW  Elec       q    Type
REMARK                         _______ _______ _______ _____ _____    ______ ____
ROOT
ATOM      1  N   LIG    1        4.796   4.754   0.773  0.00  0.00    -0.490 NA
ATOM      2  C   LIG    1        4.038   4.275   1.936  0.00  0.00    +0.240 C 
ATOM      3  C   LIG    1        3.274   3.004   1.561  0.00  0.00    +0.060 C 
ATOM      4  C   LIG    1        2.324   3.310   0.400  0.00  0.00    +0.290 C 
ATOM      5  C   LIG    1        3.132   3.852  -0.782  0.00  0.00    +0.050 C 
ATOM      6  C   LIG    1        3.901   5.099  -0.338  0.00  0.00    +0.220 C 
ENDROOT
BRANCH   1  12
ATOM      7  C   LIG    1        7.993   8.036  -0.613  0.00  0.00    +0.200 C 
ATOM      8  C   LIG    1        7.147   7.425   0.474  0.00  0.00    +0.180 C 
ATOM      9  C   LIG    1        7.199   7.945   1.751  0.00  0.00    +0.030 C 
ATOM     10  C   LIG    1        6.417   7.378   2.749  0.00  0.00    +0.210 C 
ATOM     11  C   LIG    1        5.607   6.304   2.423  0.00  0.00    +0.000 C 
ATOM     12  C   LIG    1        5.605   5.832   1.114  0.00  0.00    +0.360 C 
ATOM     13  N   LIG    1        6.369   6.397   0.193  0.00  0.00    -0.470 NA
ATOM     14  H   LIG    1        6.354   6.048  -0.713  0.00  0.00    +0.440 HD
ENDBRANCH   1  12
BRANCH   4  15
ATOM     15  N   LIG    1        1.631   2.083  -0.002  0.00  0.00    -0.990 NA
ATOM     16  C   LIG    1        2.265   0.855  -0.490  0.00  0.00    +0.240 C 
ATOM     17  C   LIG    1        1.267  -0.243  -0.872  0.00  0.00    +0.080 C 
ATOM     18  C   LIG    1        0.002  -0.004   0.002  0.00  0.00    -0.310 C 
ATOM     19  S   LIG    1       -0.023   1.835   0.012  0.00  0.00    +2.560 S 
ATOM     20  O   LIG    1       -0.470   2.342   1.262  0.00  0.00    -0.950 OA
ATOM     21  O   LIG    1       -0.493   2.355  -1.224  0.00  0.00    -0.940 OA
ENDBRANCH   4  15
TORSDOF 2
