REMARK  Name = ZINCpk00000xZDXG.0
REMARK                            x       y       z     vdW  Elec       q    Type
REMARK                         _______ _______ _______ _____ _____    ______ ____
ROOT
ATOM      1  C   LIG    1       -3.685   1.151  -1.619  0.00  0.00    +0.140 C 
ATOM      2  C   LIG    1       -4.217   2.511  -2.079  0.00  0.00    +0.050 C 
ATOM      3  C   LIG    1       -3.044   3.412  -2.474  0.00  0.00    +0.030 C 
ATOM      4  C   LIG    1       -2.142   3.632  -1.256  0.00  0.00    +0.270 C 
ATOM      5  N   LIG    1       -1.744   2.324  -0.719  0.00  0.00    -0.590 N 
ATOM      6  C   LIG    1       -0.443   2.026  -0.532  0.00  0.00    +0.600 C 
ATOM      7  O   LIG    1       -0.118   0.903  -0.199  0.00  0.00    -0.520 OA
ATOM      8  C   LIG    1       -2.790   1.344  -0.397  0.00  0.00    +0.270 C 
ENDROOT
BRANCH   6   9
ATOM      9  C   LIG    1        0.594   3.066  -0.740  0.00  0.00    -0.010 A 
ATOM     10  N   LIG    1        0.393   4.342  -0.966  0.00  0.00    -0.330 NA
ATOM     11  O   LIG    1        1.434   4.943  -1.094  0.00  0.00    +0.120 OA
ATOM     12  C   LIG    1        2.498   4.131  -0.967  0.00  0.00    +0.020 A 
ATOM     13  C   LIG    1        2.001   2.880  -0.727  0.00  0.00    +0.010 A 
BRANCH  12  14
ATOM     14  C   LIG    1        3.922   4.515  -1.063  0.00  0.00    -0.030 A 
ATOM     15  C   LIG    1        4.920   3.553  -0.902  0.00  0.00    +0.040 A 
ATOM     16  C   LIG    1        6.247   3.917  -0.997  0.00  0.00    +0.010 A 
ATOM     17  C   LIG    1        6.590   5.235  -1.241  0.00  0.00    +0.030 A 
ATOM     18  C   LIG    1        5.606   6.195  -1.396  0.00  0.00    +0.010 A 
ATOM     19  C   LIG    1        4.275   5.843  -1.308  0.00  0.00    +0.040 A 
ENDBRANCH  12  14
ENDBRANCH   6   9
BRANCH   1  20
ATOM     20  O   LIG    1       -2.926   0.555  -2.673  0.00  0.00    -0.530 OA
ATOM     21  H   LIG    1       -2.558  -0.311  -2.450  0.00  0.00    +0.370 HD
ENDBRANCH   1  20
BRANCH   1  22
ATOM     22  C   LIG    1       -4.859   0.240  -1.256  0.00  0.00    +0.030 C 
BRANCH  22  26
ATOM     23  C   LIG    1       -7.768  -0.797  -3.519  0.00  0.00    +0.290 C 
ATOM     24  N   LIG    1       -6.896  -0.636  -2.353  0.00  0.00    -0.740 N 
ATOM     25  H   LIG    1       -7.140  -1.042  -1.506  0.00  0.00    +0.400 HD
ATOM     26  C   LIG    1       -5.756   0.075  -2.456  0.00  0.00    +0.510 C 
ATOM     27  O   LIG    1       -5.452   0.582  -3.515  0.00  0.00    -0.510 OA
ENDBRANCH  22  26
ENDBRANCH   1  22
TORSDOF 5
