REMARK  Name = ZINCnE000001O8ro.0
REMARK                            x       y       z     vdW  Elec       q    Type
REMARK                         _______ _______ _______ _____ _____    ______ ____
ROOT
ATOM      1  C   LIG    1       -2.693  -2.517  -0.086  0.00  0.00    +0.510 A 
ATOM      2  N   LIG    1       -3.719  -1.683  -0.179  0.00  0.00    -0.560 NA
ATOM      3  C   LIG    1       -4.957  -2.135  -0.297  0.00  0.00    +0.350 A 
ATOM      4  C   LIG    1       -5.180  -3.500  -0.313  0.00  0.00    -0.110 A 
ATOM      5  C   LIG    1       -4.080  -4.356  -0.208  0.00  0.00    +0.240 A 
ATOM      6  N   LIG    1       -2.862  -3.830  -0.097  0.00  0.00    -0.520 NA
ENDROOT
BRANCH   1  12
ATOM      7  C   LIG    1       -0.019   1.526   0.010  0.00  0.00    +0.020 C 
ATOM      8  C   LIG    1        0.002  -0.004   0.002  0.00  0.00    -0.030 C 
ATOM      9  C   LIG    1        0.743  -0.512   1.242  0.00  0.00    +0.030 C 
ATOM     10  C   LIG    1        0.707  -2.043   1.257  0.00  0.00    -0.080 C 
ATOM     11  C   LIG    1       -0.749  -2.514   1.237  0.00  0.00    +0.240 C 
ATOM     12  N   LIG    1       -1.414  -2.003   0.031  0.00  0.00    -0.460 N 
ATOM     13  C   LIG    1       -1.433  -0.535   0.018  0.00  0.00    +0.210 C 
BRANCH  10  14
ATOM     14  C   LIG    1        1.382  -2.550   2.505  0.00  0.00    +0.500 C 
ATOM     15  O   LIG    1        2.285  -1.907   3.014  0.00  0.00    -0.690 OA
ATOM     16  O   LIG    1        1.025  -3.602   3.007  0.00  0.00    -0.700 OA
ENDBRANCH  10  14
ENDBRANCH   1  12
BRANCH   5  17
ATOM     17  C   LIG    1       -4.267  -5.827  -0.220  0.00  0.00    -0.040 A 
ATOM     18  C   LIG    1       -5.546  -6.369  -0.331  0.00  0.00    +0.050 A 
ATOM     19  C   LIG    1       -5.714  -7.738  -0.347  0.00  0.00    +0.040 A 
ATOM     20  C   LIG    1       -4.615  -8.573  -0.242  0.00  0.00    -0.080 A 
ATOM     21  C   LIG    1       -3.343  -8.041  -0.125  0.00  0.00    +0.040 A 
ATOM     22 BR   LIG    1       -4.854 -10.449  -0.257  0.00  0.00    -0.050 Br
ATOM     23  C   LIG    1       -3.164  -6.673  -0.114  0.00  0.00    +0.090 A 
ENDBRANCH   5  17
TORSDOF 3
