REMARK  Name = ZINCrD00000lcM6x.0
REMARK                            x       y       z     vdW  Elec       q    Type
REMARK                         _______ _______ _______ _____ _____    ______ ____
ROOT
ATOM      1  C   LIG    1        7.252   1.355  -0.057  0.00  0.00    +0.140 C 
ATOM      2  C   LIG    1        5.966   2.140  -0.042  0.00  0.00    +0.190 A 
ATOM      3  C   LIG    1        6.001   3.504  -0.035  0.00  0.00    -0.260 A 
ATOM      4  C   LIG    1        4.786   4.216  -0.020  0.00  0.00    +0.530 A 
ATOM      5  N   LIG    1        3.628   3.522  -0.019  0.00  0.00    -0.630 N 
ATOM      6  H   LIG    1        2.779   3.991  -0.012  0.00  0.00    +0.420 HD
ATOM      7  C   LIG    1        3.656   2.159  -0.021  0.00  0.00    +0.440 A 
ATOM      8  O   LIG    1        4.780   5.436  -0.013  0.00  0.00    -0.530 OA
ATOM      9  N   LIG    1        4.797   1.502  -0.035  0.00  0.00    -0.520 NA
ENDROOT
BRANCH   7  10
ATOM     10  C   LIG    1        2.385   1.407  -0.013  0.00  0.00    -0.080 A 
ATOM     11  C   LIG    1        1.167   2.088   0.002  0.00  0.00    +0.030 A 
ATOM     12  C   LIG    1       -0.017   1.379   0.010  0.00  0.00    +0.010 A 
ATOM     13  C   LIG    1        0.002  -0.004   0.002  0.00  0.00    +0.040 A 
ATOM     14  C   LIG    1        1.206  -0.686  -0.013  0.00  0.00    +0.000 A 
ATOM     15  C   LIG    1        2.397   0.011  -0.021  0.00  0.00    +0.100 A 
ENDBRANCH   7  10
BRANCH   3  16
ATOM     16  C   LIG    1        7.319   4.236  -0.043  0.00  0.00    +0.140 C 
BRANCH  16  17
ATOM     17  C   LIG    1        7.691   4.601  -1.481  0.00  0.00    +0.060 C 
BRANCH  17  18
ATOM     18  C   LIG    1        9.008   5.333  -1.489  0.00  0.00    +0.520 C 
ATOM     19  N   LIG    1        9.537   5.756  -2.654  0.00  0.00    -0.620 N 
ATOM     20  C   LIG    1       10.819   6.477  -2.683  0.00  0.00    +0.300 C 
ATOM     21  C   LIG    1       11.843   5.611  -3.432  0.00  0.00    +0.110 C 
ATOM     22  C   LIG    1       11.206   5.074  -4.696  0.00  0.00    -0.170 A 
ATOM     23  C   LIG    1        9.882   5.017  -4.931  0.00  0.00    -0.130 A 
ATOM     24  C   LIG    1        9.554   4.469  -6.167  0.00  0.00    +0.020 A 
ATOM     25  C   LIG    1       10.582   4.093  -6.921  0.00  0.00    -0.040 A 
ATOM     26  S   LIG    1       12.086   4.424  -6.074  0.00  0.00    +0.110 S 
ATOM     27  C   LIG    1        8.847   5.513  -3.928  0.00  0.00    +0.360 C 
ATOM     28  O   LIG    1        9.592   5.542  -0.446  0.00  0.00    -0.530 OA
ENDBRANCH  17  18
ENDBRANCH  16  17
ENDBRANCH   3  16
TORSDOF 4
