REMARK  Name = ZINCpk00000y6ys8.0
REMARK                            x       y       z     vdW  Elec       q    Type
REMARK                         _______ _______ _______ _____ _____    ______ ____
ROOT
ATOM      1  C   LIG    1       -5.893   1.438   1.146  0.00  0.00    +0.460 C 
ATOM      2  O   LIG    1       -5.914   2.634   1.317  0.00  0.00    -0.510 OA
ENDROOT
BRANCH   1   3
ATOM      3  O   LIG    1       -4.864   0.871   0.498  0.00  0.00    -0.340 OA
BRANCH   3   4
ATOM      4  C   LIG    1       -3.812   1.755   0.030  0.00  0.00    +0.150 C 
ATOM      5  C   LIG    1       -4.139   2.232  -1.387  0.00  0.00    +0.060 C 
BRANCH   4   6
ATOM      6  C   LIG    1       -2.500   1.013   0.019  0.00  0.00    +0.400 C 
ATOM      7  O   LIG    1       -2.489  -0.199   0.013  0.00  0.00    -0.420 OA
BRANCH   6  11
ATOM      8  C   LIG    1        1.154   3.167   0.008  0.00  0.00    -0.040 A 
ATOM      9  C   LIG    1        1.171   1.783   0.001  0.00  0.00    +0.000 A 
ATOM     10  C   LIG    1       -0.013   1.076   0.008  0.00  0.00    +0.090 A 
ATOM     11  C   LIG    1       -1.232   1.760   0.018  0.00  0.00    -0.170 A 
ATOM     12  C   LIG    1       -1.240   3.159   0.031  0.00  0.00    +0.060 A 
ATOM     13  C   LIG    1       -0.049   3.852   0.022  0.00  0.00    +0.000 A 
BRANCH   8  15
ATOM     14  C   LIG    1        2.878   4.199  -1.446  0.00  0.00    +0.030 C 
ATOM     15  C   LIG    1        2.452   3.933  -0.001  0.00  0.00    +0.070 C 
ENDBRANCH   8  15
ENDBRANCH   6  11
ENDBRANCH   4   6
ENDBRANCH   3   4
ENDBRANCH   1   3
BRANCH   1  16
ATOM     16  C   LIG    1       -7.022   0.584   1.661  0.00  0.00    +0.110 C 
BRANCH  16  17
ATOM     17  C   LIG    1       -8.058   1.471   2.356  0.00  0.00    +0.030 C 
BRANCH  17  18
ATOM     18  C   LIG    1       -9.204   0.603   2.879  0.00  0.00    +0.060 C 
BRANCH  18  19
ATOM     19  C   LIG    1      -10.239   1.490   3.573  0.00  0.00    -0.050 C 
BRANCH  19  20
ATOM     20  C   LIG    1       -9.580   2.224   4.743  0.00  0.00    +0.200 C 
BRANCH  20  21
ATOM     21  O   LIG    1       -9.069   1.270   5.675  0.00  0.00    -0.570 OA
ATOM     22  H   LIG    1       -8.636   1.665   6.445  0.00  0.00    +0.380 HD
ENDBRANCH  20  21
ENDBRANCH  19  20
BRANCH  19  23
ATOM     23  C   LIG    1      -11.386   0.623   4.096  0.00  0.00    +0.190 C 
BRANCH  23  24
ATOM     24  O   LIG    1      -12.353   1.452   4.744  0.00  0.00    -0.570 OA
ATOM     25  H   LIG    1      -13.110   0.967   5.101  0.00  0.00    +0.380 HD
ENDBRANCH  23  24
ENDBRANCH  19  23
BRANCH  19  26
ATOM     26  C   LIG    1      -10.787   2.512   2.574  0.00  0.00    +0.200 C 
BRANCH  26  27
ATOM     27  O   LIG    1      -11.403   1.827   1.482  0.00  0.00    -0.570 OA
ATOM     28  H   LIG    1      -11.774   2.413   0.808  0.00  0.00    +0.380 HD
ENDBRANCH  26  27
ENDBRANCH  19  26
ENDBRANCH  18  19
ENDBRANCH  17  18
ENDBRANCH  16  17
ENDBRANCH   1  16
TORSDOF 15
