REMARK  Name = ZINCqH0000033MvV.0
REMARK                            x       y       z     vdW  Elec       q    Type
REMARK                         _______ _______ _______ _____ _____    ______ ____
ROOT
ATOM      1  N   LIG    1       -0.842   3.078   1.154  0.00  0.00    -0.490 N 
ATOM      2  C   LIG    1       -0.720   1.616   1.246  0.00  0.00    +0.180 C 
ATOM      3  C   LIG    1        0.002   1.089   0.002  0.00  0.00    +0.280 C 
ATOM      4  N   LIG    1       -0.697   1.584  -1.194  0.00  0.00    -0.620 N 
ATOM      5  C   LIG    1       -0.974   3.025  -1.291  0.00  0.00    +0.310 C 
ATOM      6  C   LIG    1       -1.073   0.740  -2.175  0.00  0.00    +0.710 C 
ATOM      7  N   LIG    1       -0.713  -0.558  -2.122  0.00  0.00    -0.680 N 
ATOM      8  H   LIG    1       -0.255  -0.903  -1.339  0.00  0.00    +0.410 HD
ATOM      9  O   LIG    1       -1.738   1.149  -3.107  0.00  0.00    -0.570 OA
ATOM     10  C   LIG    1       -1.662   3.477   0.002  0.00  0.00    +0.180 C 
ENDROOT
BRANCH   7  11
ATOM     11  C   LIG    1       -1.000  -1.410  -3.198  0.00  0.00    +0.130 A 
ATOM     12  C   LIG    1       -0.981  -0.920  -4.496  0.00  0.00    +0.100 A 
ATOM     13  C   LIG    1       -1.265  -1.761  -5.555  0.00  0.00    +0.010 A 
ATOM     14  C   LIG    1       -1.568  -3.092  -5.323  0.00  0.00    +0.110 A 
ATOM     15  C   LIG    1       -1.589  -3.584  -4.029  0.00  0.00    -0.020 A 
ATOM     16  F   LIG    1       -1.845  -3.912  -6.361  0.00  0.00    -0.130 F 
ATOM     17  C   LIG    1       -1.300  -2.748  -2.966  0.00  0.00    +0.100 A 
ATOM     18  F   LIG    1       -1.314  -3.229  -1.704  0.00  0.00    -0.130 F 
ENDBRANCH   7  11
BRANCH   1  24
ATOM     19  C   LIG    1       -0.569   4.467   3.117  0.00  0.00    +0.160 A 
ATOM     20  C   LIG    1       -1.079   4.994   4.291  0.00  0.00    -0.080 A 
ATOM     21  C   LIG    1       -2.363   4.674   4.693  0.00  0.00    +0.050 A 
ATOM     22  C   LIG    1       -3.140   3.828   3.926  0.00  0.00    -0.030 A 
ATOM     23  C   LIG    1       -2.641   3.302   2.749  0.00  0.00    +0.010 A 
ATOM     24  C   LIG    1       -1.352   3.614   2.342  0.00  0.00    +0.050 A 
BRANCH  19  25
ATOM     25  O   LIG    1        0.694   4.780   2.720  0.00  0.00    -0.290 OA
BRANCH  25  27
ATOM     26  C   LIG    1        2.825   5.895   2.960  0.00  0.00    +0.070 C 
ATOM     27  C   LIG    1        1.439   5.660   3.564  0.00  0.00    +0.170 C 
ENDBRANCH  25  27
ENDBRANCH  19  25
ENDBRANCH   1  24
TORSDOF 4
