REMARK  Name = ZINCpe000015AApY.0
REMARK                            x       y       z     vdW  Elec       q    Type
REMARK                         _______ _______ _______ _____ _____    ______ ____
ROOT
ATOM      1  C   LIG    1        1.756   3.735  -4.995  0.00  0.00    +0.170 A 
ATOM      2  C   LIG    1        2.523   4.897  -5.103  0.00  0.00    +0.010 A 
ATOM      3  C   LIG    1        2.690   5.724  -4.013  0.00  0.00    +0.070 A 
ATOM      4  C   LIG    1        2.100   5.417  -2.795  0.00  0.00    +0.110 A 
ATOM      5  C   LIG    1        1.335   4.271  -2.667  0.00  0.00    -0.130 A 
ATOM      6  C   LIG    1        0.577   3.653  -1.559  0.00  0.00    +0.570 C 
ATOM      7  O   LIG    1        0.482   4.095  -0.432  0.00  0.00    -0.450 OA
ATOM      8  N   LIG    1        0.014   2.517  -2.008  0.00  0.00    -0.570 N 
ATOM      9  C   LIG    1        0.307   2.312  -3.305  0.00  0.00    +0.580 C 
ATOM     10  O   LIG    1       -0.069   1.371  -3.976  0.00  0.00    -0.430 OA
ATOM     11  C   LIG    1        1.158   3.417  -3.777  0.00  0.00    -0.120 A 
ENDROOT
BRANCH   8  12
ATOM     12  C   LIG    1       -0.815   1.624  -1.194  0.00  0.00    +0.270 C 
ATOM     13  C   LIG    1       -0.013   1.086   0.008  0.00  0.00    +0.100 C 
ATOM     14  C   LIG    1       -0.777   1.601   1.208  0.00  0.00    +0.540 C 
ATOM     15  N   LIG    1       -1.834   2.309   0.782  0.00  0.00    -0.670 N 
ATOM     16  H   LIG    1       -2.462   2.731   1.389  0.00  0.00    +0.420 HD
ATOM     17  O   LIG    1       -0.480   1.404   2.367  0.00  0.00    -0.470 OA
ATOM     18  C   LIG    1       -1.951   2.388  -0.549  0.00  0.00    +0.530 C 
ATOM     19  O   LIG    1       -2.828   2.976  -1.144  0.00  0.00    -0.460 OA
ENDBRANCH   8  12
BRANCH   1  24
ATOM     20  C   LIG    1        2.143   1.669  -9.926  0.00  0.00    +0.010 C 
ATOM     21  C   LIG    1        1.794   1.826  -8.673  0.00  0.00    -0.120 C 
ATOM     22  C   LIG    1        0.559   2.619  -8.298  0.00  0.00    +0.090 C 
ATOM     23  C   LIG    1        0.946   3.619  -7.202  0.00  0.00    +0.180 C 
ATOM     24  N   LIG    1        1.589   2.904  -6.093  0.00  0.00    -0.510 N 
ATOM     25  C   LIG    1        2.868   2.311  -6.503  0.00  0.00    +0.190 C 
ATOM     26  C   LIG    1        2.612   1.222  -7.551  0.00  0.00    +0.090 C 
ENDBRANCH   1  24
TORSDOF 2
