REMARK  Name = ZINCpe00000VVGJK.0
REMARK                            x       y       z     vdW  Elec       q    Type
REMARK                         _______ _______ _______ _____ _____    ______ ____
ROOT
ATOM      1  C   LIG    1       -0.021   1.957   4.760  0.00  0.00    +0.520 C 
ATOM      2  N   LIG    1       -0.478   2.424   5.939  0.00  0.00    -0.660 N 
ATOM      3  H   LIG    1       -1.405   2.694   6.027  0.00  0.00    +0.420 HD
ATOM      4  O   LIG    1        1.156   1.698   4.625  0.00  0.00    -0.490 OA
ENDROOT
BRANCH   2   5
ATOM      5  C   LIG    1        0.387   2.519   7.037  0.00  0.00    +0.150 A 
ATOM      6  C   LIG    1       -0.091   2.283   8.319  0.00  0.00    +0.000 A 
ATOM      7  C   LIG    1        0.762   2.372   9.402  0.00  0.00    +0.050 A 
ATOM      8  C   LIG    1        2.095   2.707   9.213  0.00  0.00    +0.040 A 
ATOM      9  O   LIG    1        2.919   2.799  10.294  0.00  0.00    -0.310 OA
ATOM     10  C   LIG    1        4.326   2.768  10.034  0.00  0.00    +0.220 C 
ATOM     11  C   LIG    1        4.620   3.721   8.867  0.00  0.00    +0.220 C 
ATOM     12  O   LIG    1        3.881   3.272   7.726  0.00  0.00    -0.300 OA
ATOM     13  C   LIG    1        2.575   2.947   7.931  0.00  0.00    +0.070 A 
ATOM     14  C   LIG    1        1.720   2.853   6.844  0.00  0.00    +0.030 A 
ENDBRANCH   2   5
BRANCH   1  16
ATOM     15  C   LIG    1       -2.054   0.751   4.010  0.00  0.00    +0.070 C 
ATOM     16  C   LIG    1       -0.973   1.756   3.609  0.00  0.00    +0.190 C 
BRANCH  16  17
ATOM     17  O   LIG    1       -0.243   1.250   2.460  0.00  0.00    -0.330 OA
BRANCH  17  18
ATOM     18  C   LIG    1       -0.713   1.579   1.246  0.00  0.00    +0.450 C 
ATOM     19  O   LIG    1       -1.701   2.268   1.147  0.00  0.00    -0.490 OA
BRANCH  18  20
ATOM     20  C   LIG    1       -0.008   1.090   0.007  0.00  0.00    +0.410 C 
BRANCH  20  21
ATOM     21  N   LIG    1       -0.710   1.581  -1.180  0.00  0.00    -0.600 N 
ATOM     22  C   LIG    1       -0.353   2.869  -1.793  0.00  0.00    +0.380 C 
ATOM     23  S   LIG    1       -1.803   3.241  -2.857  0.00  0.00    -0.230 S 
ATOM     24  C   LIG    1       -2.348   1.488  -2.957  0.00  0.00    +0.170 C 
ATOM     25  C   LIG    1       -1.685   0.875  -1.740  0.00  0.00    +0.520 C 
ATOM     26  O   LIG    1       -2.029  -0.201  -1.299  0.00  0.00    -0.510 OA
ENDBRANCH  20  21
ENDBRANCH  18  20
ENDBRANCH  17  18
ENDBRANCH  16  17
ENDBRANCH   1  16
TORSDOF 6
