REMARK  Name = ZINCrD000000f8ub.0
REMARK                            x       y       z     vdW  Elec       q    Type
REMARK                         _______ _______ _______ _____ _____    ______ ____
ROOT
ATOM      1  N   LIG    1        3.454   3.509   0.572  0.00  0.00    -0.720 N 
ATOM      2  H   LIG    1        2.569   3.906   0.561  0.00  0.00    +0.400 HD
ATOM      3  C   LIG    1        4.483   4.174   1.133  0.00  0.00    +0.540 C 
ATOM      4  O   LIG    1        5.590   3.678   1.146  0.00  0.00    -0.500 OA
ENDROOT
BRANCH   1   5
ATOM      5  C   LIG    1        3.671   2.187  -0.021  0.00  0.00    +0.440 C 
BRANCH   5   6
ATOM      6  C   LIG    1        2.377   1.415  -0.013  0.00  0.00    -0.120 A 
ATOM      7  C   LIG    1        1.171   2.087   0.002  0.00  0.00    +0.070 A 
ATOM      8  C   LIG    1       -0.017   1.379   0.010  0.00  0.00    +0.040 A 
ATOM      9  C   LIG    1        0.002  -0.004   0.002  0.00  0.00    -0.000 A 
ATOM     10  C   LIG    1        1.209  -0.679  -0.013  0.00  0.00    +0.010 A 
ATOM     11 CL   LIG    1       -1.489  -0.892   0.012  0.00  0.00    -0.050 Cl
ATOM     12  C   LIG    1        2.398   0.030  -0.021  0.00  0.00    +0.130 A 
ATOM     13  F   LIG    1        3.578  -0.628  -0.035  0.00  0.00    -0.120 F 
ENDBRANCH   5   6
BRANCH   5  15
ATOM     14  C   LIG    1        4.517   2.466  -2.513  0.00  0.00    +0.070 C 
ATOM     15  C   LIG    1        4.141   2.343  -1.407  0.00  0.00    -0.210 C 
ENDBRANCH   5  15
ENDBRANCH   1   5
BRANCH   3  16
ATOM     16  C   LIG    1        4.260   5.534   1.742  0.00  0.00    +0.090 C 
BRANCH  16  17
ATOM     17  S   LIG    1        5.825   6.162   2.409  0.00  0.00    -0.090 S 
BRANCH  17  18
ATOM     18  C   LIG    1        5.360   7.779   3.088  0.00  0.00    +0.010 C 
ATOM     19  C   LIG    1        4.918   8.702   1.951  0.00  0.00    +0.070 C 
BRANCH  18  20
ATOM     20  C   LIG    1        6.543   8.386   3.797  0.00  0.00    +0.550 C 
ATOM     21  N   LIG    1        6.351   9.289   4.778  0.00  0.00    -0.630 N 
ATOM     22  H   LIG    1        5.450   9.549   5.028  0.00  0.00    +0.420 HD
ATOM     23  O   LIG    1        7.669   8.061   3.484  0.00  0.00    -0.490 OA
BRANCH  21  24
ATOM     24  C   LIG    1        7.446   9.851   5.434  0.00  0.00    +0.250 A 
ATOM     25  N   LIG    1        7.416  10.733   6.398  0.00  0.00    -0.390 NA
ATOM     26  O   LIG    1        8.530  11.028   6.763  0.00  0.00    +0.100 OA
ATOM     27  C   LIG    1        9.471  10.366   6.074  0.00  0.00    -0.020 A 
ATOM     28  C   LIG    1       10.963  10.476   6.252  0.00  0.00    +0.190 C 
ATOM     29  C   LIG    1        8.818   9.575   5.192  0.00  0.00    -0.040 A 
ENDBRANCH  21  24
ENDBRANCH  18  20
ENDBRANCH  17  18
ENDBRANCH  16  17
ENDBRANCH   3  16
TORSDOF 8
