REMARK  Name = ZINCpe000000SXCt.0
REMARK                            x       y       z     vdW  Elec       q    Type
REMARK                         _______ _______ _______ _____ _____    ______ ____
ROOT
ATOM      1  C   LIG    1       -0.913   3.848   1.958  0.00  0.00    +0.530 C 
ATOM      2  N   LIG    1       -0.454   4.967   2.553  0.00  0.00    -0.620 N 
ATOM      3  C   LIG    1        0.174   6.038   1.763  0.00  0.00    +0.300 C 
ATOM      4  C   LIG    1       -0.507   7.367   2.126  0.00  0.00    +0.200 C 
ATOM      5  N   LIG    1       -0.454   7.557   3.582  0.00  0.00    -0.480 N 
ATOM      6  C   LIG    1       -1.209   6.509   4.283  0.00  0.00    +0.210 C 
ATOM      7  C   LIG    1       -0.562   5.148   4.008  0.00  0.00    +0.290 C 
ATOM      8  O   LIG    1       -1.424   2.973   2.625  0.00  0.00    -0.520 OA
ENDROOT
BRANCH   1  11
ATOM      9  N   LIG    1       -0.018   1.461   0.010  0.00  0.00    -0.610 N 
ATOM     10  C   LIG    1       -1.241   2.272   0.020  0.00  0.00    +0.300 C 
ATOM     11  C   LIG    1       -0.792   3.684   0.465  0.00  0.00    +0.000 C 
ATOM     12  C   LIG    1        0.690   3.695   0.025  0.00  0.00    +0.080 C 
ATOM     13  C   LIG    1        1.081   2.234   0.004  0.00  0.00    +0.520 C 
ATOM     14  O   LIG    1        2.222   1.821  -0.017  0.00  0.00    -0.520 OA
BRANCH   9  16
ATOM     15  C   LIG    1        0.719  -0.497  -1.256  0.00  0.00    +0.030 C 
ATOM     16  C   LIG    1        0.002  -0.004   0.002  0.00  0.00    +0.240 C 
ATOM     17  C   LIG    1        0.742  -0.511   1.242  0.00  0.00    +0.030 C 
ENDBRANCH   9  16
ENDBRANCH   1  11
BRANCH   5  18
ATOM     18  C   LIG    1       -0.909   8.817   3.935  0.00  0.00    +0.340 A 
ATOM     19  C   LIG    1       -0.311   9.945   3.376  0.00  0.00    -0.040 A 
ATOM     20  C   LIG    1       -0.766  11.189   3.723  0.00  0.00    +0.150 A 
ATOM     21  C   LIG    1       -1.819  11.283   4.645  0.00  0.00    -0.110 A 
ATOM     22  C   LIG    1       -2.368  10.111   5.170  0.00  0.00    +0.360 A 
ATOM     23  N   LIG    1       -1.903   8.934   4.804  0.00  0.00    -0.520 NA
BRANCH  21  24
ATOM     24  C   LIG    1       -2.324  12.562   5.043  0.00  0.00    +0.260 C 
ATOM     25  N   LIG    1       -2.725  13.577   5.359  0.00  0.00    -0.410 NA
ENDBRANCH  21  24
ENDBRANCH   5  18
TORSDOF 4
