REMARK  Name = ZINCrD000000ALhr.0
REMARK                            x       y       z     vdW  Elec       q    Type
REMARK                         _______ _______ _______ _____ _____    ______ ____
ROOT
ATOM      1  N   LIG    1        3.621  -0.674  -0.037  0.00  0.00    -0.670 N 
ATOM      2  H   LIG    1        4.456  -0.186  -0.110  0.00  0.00    +0.410 HD
ATOM      3  C   LIG    1        3.632  -2.018   0.057  0.00  0.00    +0.590 C 
ATOM      4  O   LIG    1        2.584  -2.636   0.064  0.00  0.00    -0.500 OA
ENDROOT
BRANCH   1   9
ATOM      5  C   LIG    1        0.077   0.155  -0.620  0.00  0.00    -0.120 A 
ATOM      6  C   LIG    1       -0.000   1.405  -0.003  0.00  0.00    +0.030 A 
ATOM      7  C   LIG    1        1.119   1.951   0.593  0.00  0.00    +0.020 A 
ATOM      8  C   LIG    1        2.318   1.263   0.582  0.00  0.00    +0.010 A 
ATOM      9  C   LIG    1        2.405   0.018  -0.029  0.00  0.00    +0.140 A 
ATOM     10  C   LIG    1        1.287  -0.539  -0.631  0.00  0.00    +0.100 A 
BRANCH   5  12
ATOM     11  O   LIG    1       -1.051  -1.520  -1.795  0.00  0.00    -0.520 OA
ATOM     12  C   LIG    1       -1.120  -0.432  -1.259  0.00  0.00    +0.560 C 
ATOM     13  N   LIG    1       -2.289   0.240  -1.247  0.00  0.00    -0.700 N 
ATOM     14  H   LIG    1       -2.344   1.109  -0.819  0.00  0.00    +0.400 HD
BRANCH  13  15
ATOM     15  C   LIG    1       -3.475  -0.342  -1.880  0.00  0.00    +0.220 C 
ATOM     16  C   LIG    1       -4.342   0.582  -2.739  0.00  0.00    +0.010 C 
ATOM     17  C   LIG    1       -4.843   0.115  -1.371  0.00  0.00    +0.020 C 
ENDBRANCH  13  15
ENDBRANCH   5  12
ENDBRANCH   1   9
BRANCH   3  18
ATOM     18  C   LIG    1        4.912  -2.739   0.152  0.00  0.00    -0.290 A 
ATOM     19  C   LIG    1        6.176  -2.184   0.151  0.00  0.00    +0.310 A 
ATOM     20  N   LIG    1        7.064  -3.183   0.257  0.00  0.00    -0.460 N 
ATOM     21  H   LIG    1        8.028  -3.074   0.282  0.00  0.00    +0.450 HD
ATOM     22  N   LIG    1        6.392  -4.407   0.319  0.00  0.00    -0.280 NA
ATOM     23  C   LIG    1        5.098  -4.190   0.259  0.00  0.00    +0.180 A 
BRANCH  23  24
ATOM     24  C   LIG    1        4.028  -5.216   0.294  0.00  0.00    -0.050 A 
ATOM     25  C   LIG    1        2.819  -4.944   0.932  0.00  0.00    +0.130 A 
ATOM     26  C   LIG    1        1.824  -5.900   0.957  0.00  0.00    -0.020 A 
ATOM     27  C   LIG    1        2.030  -7.132   0.359  0.00  0.00    +0.120 A 
ATOM     28  C   LIG    1        3.232  -7.409  -0.271  0.00  0.00    -0.030 A 
ATOM     29  F   LIG    1        1.055  -8.067   0.391  0.00  0.00    -0.140 F 
ATOM     30  C   LIG    1        4.231  -6.457  -0.306  0.00  0.00    +0.080 A 
ENDBRANCH  23  24
ENDBRANCH   3  18
TORSDOF 5
