REMARK  Name = ZINCrD000000ALhr.1
REMARK                            x       y       z     vdW  Elec       q    Type
REMARK                         _______ _______ _______ _____ _____    ______ ____
ROOT
ATOM      1  N   LIG    1        3.621  -0.674  -0.037  0.00  0.00    -0.670 N 
ATOM      2  H   LIG    1        4.456  -0.186  -0.111  0.00  0.00    +0.410 HD
ATOM      3  C   LIG    1        3.632  -2.018   0.056  0.00  0.00    +0.590 C 
ATOM      4  O   LIG    1        2.584  -2.636   0.064  0.00  0.00    -0.510 OA
ENDROOT
BRANCH   1   9
ATOM      5  C   LIG    1        0.077   0.155  -0.620  0.00  0.00    -0.120 A 
ATOM      6  C   LIG    1       -0.000   1.405  -0.003  0.00  0.00    +0.030 A 
ATOM      7  C   LIG    1        1.119   1.950   0.593  0.00  0.00    +0.020 A 
ATOM      8  C   LIG    1        2.318   1.263   0.582  0.00  0.00    +0.010 A 
ATOM      9  C   LIG    1        2.405   0.018  -0.029  0.00  0.00    +0.140 A 
ATOM     10  C   LIG    1        1.287  -0.539  -0.631  0.00  0.00    +0.100 A 
BRANCH   5  12
ATOM     11  O   LIG    1       -1.051  -1.520  -1.795  0.00  0.00    -0.530 OA
ATOM     12  C   LIG    1       -1.121  -0.432  -1.259  0.00  0.00    +0.560 C 
ATOM     13  N   LIG    1       -2.289   0.240  -1.246  0.00  0.00    -0.700 N 
ATOM     14  H   LIG    1       -2.344   1.109  -0.818  0.00  0.00    +0.400 HD
BRANCH  13  15
ATOM     15  C   LIG    1       -3.475  -0.341  -1.879  0.00  0.00    +0.220 C 
ATOM     16  C   LIG    1       -4.342   0.583  -2.737  0.00  0.00    +0.010 C 
ATOM     17  C   LIG    1       -4.843   0.115  -1.369  0.00  0.00    +0.020 C 
ENDBRANCH  13  15
ENDBRANCH   5  12
ENDBRANCH   1   9
BRANCH   3  18
ATOM     18  C   LIG    1        4.911  -2.739   0.150  0.00  0.00    -0.290 A 
ATOM     19  C   LIG    1        5.080  -4.119   0.258  0.00  0.00    +0.220 A 
ATOM     20  N   LIG    1        6.410  -4.352   0.315  0.00  0.00    -0.450 N 
ATOM     21  H   LIG    1        6.831  -5.223   0.391  0.00  0.00    +0.450 HD
ATOM     22  N   LIG    1        7.077  -3.124   0.252  0.00  0.00    -0.280 NA
ATOM     23  C   LIG    1        6.200  -2.163   0.155  0.00  0.00    +0.280 A 
BRANCH  19  24
ATOM     24  C   LIG    1        4.008  -5.134   0.298  0.00  0.00    -0.080 A 
ATOM     25  C   LIG    1        2.887  -4.938   1.109  0.00  0.00    +0.130 A 
ATOM     26  C   LIG    1        1.887  -5.886   1.138  0.00  0.00    -0.020 A 
ATOM     27  C   LIG    1        1.997  -7.038   0.374  0.00  0.00    +0.120 A 
ATOM     28  C   LIG    1        3.109  -7.240  -0.428  0.00  0.00    -0.020 A 
ATOM     29  F   LIG    1        1.017  -7.967   0.412  0.00  0.00    -0.130 F 
ATOM     30  C   LIG    1        4.113  -6.296  -0.469  0.00  0.00    +0.060 A 
ENDBRANCH  19  24
ENDBRANCH   3  18
TORSDOF 5
