REMARK  Name = ZINCpk000000mWvH.0
REMARK                            x       y       z     vdW  Elec       q    Type
REMARK                         _______ _______ _______ _____ _____    ______ ____
ROOT
ATOM      1  C   LIG    1       -1.512   1.649   3.548  0.00  0.00    +0.250 C 
ENDROOT
BRANCH   1   2
ATOM      2  C   LIG    1       -0.723   1.015   2.432  0.00  0.00    +0.520 C 
ATOM      3  N   LIG    1       -0.724   1.572   1.205  0.00  0.00    -0.620 N 
ATOM      4  C   LIG    1       -1.443   2.797   0.777  0.00  0.00    +0.230 C 
ATOM      5  C   LIG    1       -1.946   2.441  -0.644  0.00  0.00    +0.170 C 
ATOM      6  C   LIG    1       -0.779   1.607  -1.222  0.00  0.00    -0.070 C 
ATOM      7  C   LIG    1       -1.317   0.436  -2.048  0.00  0.00    +0.040 C 
ATOM      8  C   LIG    1        0.130   2.488  -2.081  0.00  0.00    +0.060 C 
ATOM      9  C   LIG    1       -0.013   1.086   0.008  0.00  0.00    +0.260 C 
ATOM     10  O   LIG    1       -0.088   0.002   2.638  0.00  0.00    -0.500 OA
BRANCH   5  11
ATOM     11  O   LIG    1       -2.158   3.621  -1.421  0.00  0.00    -0.550 OA
ATOM     12  H   LIG    1       -2.880   4.179  -1.100  0.00  0.00    +0.380 HD
ENDBRANCH   5  11
ENDBRANCH   1   2
BRANCH   1  15
ATOM     13  C   LIG    1       -0.955  -0.941   6.312  0.00  0.00    +0.080 C 
ATOM     14  C   LIG    1       -0.709   0.078   5.229  0.00  0.00    +0.520 C 
ATOM     15  N   LIG    1       -1.751   0.659   4.602  0.00  0.00    -0.720 N 
ATOM     16  H   LIG    1       -2.659   0.422   4.848  0.00  0.00    +0.400 HD
ATOM     17  O   LIG    1        0.426   0.374   4.921  0.00  0.00    -0.520 OA
ENDBRANCH   1  15
BRANCH   1  18
ATOM     18  C   LIG    1       -0.724   2.827   4.125  0.00  0.00    +0.120 C 
BRANCH  18  19
ATOM     19  C   LIG    1       -1.563   3.536   5.156  0.00  0.00    -0.160 A 
ATOM     20  C   LIG    1       -2.336   4.614   4.952  0.00  0.00    +0.220 A 
ATOM     21  N   LIG    1       -2.947   4.978   6.121  0.00  0.00    -0.590 N 
ATOM     22  H   LIG    1       -3.554   5.728   6.222  0.00  0.00    +0.420 HD
ATOM     23  C   LIG    1       -2.573   4.121   7.131  0.00  0.00    +0.090 A 
ATOM     24  C   LIG    1       -2.892   4.036   8.482  0.00  0.00    -0.010 A 
ATOM     25  C   LIG    1       -2.341   3.037   9.254  0.00  0.00    +0.020 A 
ATOM     26  C   LIG    1       -1.469   2.111   8.697  0.00  0.00    -0.030 A 
ATOM     27  C   LIG    1       -1.143   2.175   7.372  0.00  0.00    +0.050 A 
ATOM     28  C   LIG    1       -1.694   3.177   6.570  0.00  0.00    -0.090 A 
ENDBRANCH  18  19
ENDBRANCH   1  18
TORSDOF 5
