REMARK  Name = ZINCvU000000057O.0
REMARK                            x       y       z     vdW  Elec       q    Type
REMARK                         _______ _______ _______ _____ _____    ______ ____
ROOT
ATOM      1  C   LIG    1       -3.962   1.009  -3.052  0.00  0.00    +0.500 C 
ATOM      2  O   LIG    1       -2.916   0.545  -3.462  0.00  0.00    -0.480 OA
ENDROOT
BRANCH   1   8
ATOM      3  C   LIG    1       -5.109   0.413  -5.186  0.00  0.00    +0.210 A 
ATOM      4  C   LIG    1       -6.256   0.369  -5.968  0.00  0.00    +0.010 A 
ATOM      5  C   LIG    1       -7.449   0.858  -5.474  0.00  0.00    +0.060 A 
ATOM      6  C   LIG    1       -7.513   1.395  -4.198  0.00  0.00    +0.010 A 
ATOM      7  C   LIG    1       -6.387   1.443  -3.405  0.00  0.00    +0.090 A 
ATOM      8  C   LIG    1       -5.171   0.957  -3.892  0.00  0.00    -0.130 A 
BRANCH   3   9
ATOM      9  N   LIG    1       -3.908  -0.078  -5.680  0.00  0.00    -0.700 N 
ATOM     10  H   LIG    1       -3.365   0.470  -6.269  0.00  0.00    +0.410 HD
BRANCH   9  16
ATOM     11  C   LIG    1       -0.456  -3.575  -5.823  0.00  0.00    +0.090 C 
ATOM     12  C   LIG    1       -1.812  -3.083  -5.385  0.00  0.00    -0.040 A 
ATOM     13  C   LIG    1       -2.635  -3.904  -4.636  0.00  0.00    -0.050 A 
ATOM     14  C   LIG    1       -3.880  -3.457  -4.233  0.00  0.00    +0.040 A 
ATOM     15  C   LIG    1       -4.306  -2.189  -4.577  0.00  0.00    -0.080 A 
ATOM     16  C   LIG    1       -3.481  -1.362  -5.330  0.00  0.00    +0.240 A 
ATOM     17  C   LIG    1       -2.233  -1.816  -5.738  0.00  0.00    -0.150 A 
ATOM     18  C   LIG    1       -1.338  -0.924  -6.559  0.00  0.00    +0.090 C 
ENDBRANCH   9  16
ENDBRANCH   3   9
ENDBRANCH   1   8
BRANCH   1  19
ATOM     19  O   LIG    1       -4.016   1.572  -1.828  0.00  0.00    -0.340 OA
BRANCH  19  20
ATOM     20  C   LIG    1       -2.786   1.589  -1.056  0.00  0.00    +0.240 C 
BRANCH  20  21
ATOM     21  C   LIG    1       -3.038   2.252   0.274  0.00  0.00    +0.450 C 
ATOM     22  O   LIG    1       -4.163   2.586   0.583  0.00  0.00    -0.420 OA
BRANCH  21  23
ATOM     23  C   LIG    1       -1.960   2.485   1.164  0.00  0.00    -0.270 A 
ATOM     24  C   LIG    1       -1.222   3.643   1.286  0.00  0.00    +0.150 A 
ATOM     25  N   LIG    1       -0.288   3.486   2.243  0.00  0.00    -0.570 N 
ATOM     26  H   LIG    1        0.348   4.168   2.510  0.00  0.00    +0.420 HD
ATOM     27  C   LIG    1       -0.358   2.221   2.791  0.00  0.00    +0.090 A 
ATOM     28  C   LIG    1        0.367   1.577   3.788  0.00  0.00    +0.000 A 
ATOM     29  C   LIG    1        0.060   0.278   4.132  0.00  0.00    +0.030 A 
ATOM     30  C   LIG    1       -0.969  -0.398   3.492  0.00  0.00    +0.000 A 
ATOM     31  C   LIG    1       -1.698   0.224   2.502  0.00  0.00    +0.040 A 
ATOM     32  C   LIG    1       -1.435   4.897   0.477  0.00  0.00    +0.150 C 
ATOM     33  C   LIG    1       -1.399   1.535   2.146  0.00  0.00    -0.060 A 
ENDBRANCH  21  23
ENDBRANCH  20  21
ENDBRANCH  19  20
ENDBRANCH   1  19
TORSDOF 7
