REMARK  Name = ZINCpk00000e9hwG.0
REMARK                            x       y       z     vdW  Elec       q    Type
REMARK                         _______ _______ _______ _____ _____    ______ ____
ROOT
ATOM      1  C   LIG    1        1.713   5.897   0.204  0.00  0.00    -0.120 A 
ATOM      2  C   LIG    1        0.398   6.335   0.045  0.00  0.00    +0.030 A 
ATOM      3  C   LIG    1        0.134   7.679  -0.121  0.00  0.00    +0.040 A 
ATOM      4  C   LIG    1        1.169   8.596  -0.131  0.00  0.00    +0.010 A 
ATOM      5  C   LIG    1        2.482   8.169   0.027  0.00  0.00    +0.140 A 
ATOM      6  C   LIG    1        2.757   6.822   0.201  0.00  0.00    +0.090 A 
ENDROOT
BRANCH   1   9
ATOM      7  N   LIG    1        0.988   3.565   0.391  0.00  0.00    -0.720 N 
ATOM      8  H   LIG    1        0.073   3.868   0.281  0.00  0.00    +0.410 HD
ATOM      9  C   LIG    1        1.999   4.457   0.383  0.00  0.00    +0.560 C 
ATOM     10  O   LIG    1        3.146   4.077   0.521  0.00  0.00    -0.530 OA
BRANCH   7  11
ATOM     11  C   LIG    1        1.272   2.139   0.568  0.00  0.00    +0.300 C 
BRANCH  11  13
ATOM     12  N   LIG    1       -0.005   0.023   0.685  0.00  0.00    -0.610 N 
ATOM     13  C   LIG    1       -0.020   1.363   0.540  0.00  0.00    +0.510 C 
ATOM     14  O   LIG    1       -1.073   1.944   0.383  0.00  0.00    -0.540 OA
BRANCH  12  16
ATOM     15  C   LIG    1        1.588  -0.771   2.362  0.00  0.00    +0.020 C 
ATOM     16  C   LIG    1        1.268  -0.679   0.869  0.00  0.00    +0.270 C 
ENDBRANCH  12  16
BRANCH  12  17
ATOM     17  C   LIG    1       -1.261  -0.731   0.658  0.00  0.00    +0.280 C 
ATOM     18  C   LIG    1       -1.576  -1.146  -0.781  0.00  0.00    +0.020 C 
ENDBRANCH  12  17
ENDBRANCH  11  13
ENDBRANCH   7  11
ENDBRANCH   1   9
BRANCH   5  19
ATOM     19  N   LIG    1        3.526   9.101   0.016  0.00  0.00    -0.670 N 
ATOM     20  H   LIG    1        3.385   9.992   0.373  0.00  0.00    +0.410 HD
ATOM     21  C   LIG    1        4.728   8.761  -0.490  0.00  0.00    +0.510 C 
ATOM     22  O   LIG    1        4.878   7.681  -1.023  0.00  0.00    -0.490 OA
BRANCH  21  23
ATOM     23  C   LIG    1        5.885   9.721  -0.395  0.00  0.00    +0.170 C 
ATOM     24  C   LIG    1        6.324   9.889   1.082  0.00  0.00    +0.030 C 
ATOM     25  C   LIG    1        7.805  10.323   0.901  0.00  0.00    +0.020 C 
ATOM     26  C   LIG    1        8.227   9.533  -0.356  0.00  0.00    +0.210 C 
ATOM     27  O   LIG    1        7.035   9.185  -1.069  0.00  0.00    -0.350 OA
ENDBRANCH  21  23
ENDBRANCH   5  19
TORSDOF 7
