REMARK  Name = ZINCrD000000C0L9.0
REMARK                            x       y       z     vdW  Elec       q    Type
REMARK                         _______ _______ _______ _____ _____    ______ ____
ROOT
ATOM      1  O   LIG    1        6.840  -0.818   4.898  0.00  0.00    -0.570 OA
ATOM      2  C   LIG    1        6.298  -1.593   5.662  0.00  0.00    +0.720 C 
ATOM      3  N   LIG    1        7.006  -2.164   6.657  0.00  0.00    -0.620 N 
ATOM      4  C   LIG    1        6.400  -3.195   7.511  0.00  0.00    +0.260 C 
ATOM      5  C   LIG    1        7.301  -4.434   7.502  0.00  0.00    +0.010 C 
ATOM      6  C   LIG    1        8.719  -4.032   7.912  0.00  0.00    +0.030 C 
ATOM      7  C   LIG    1        9.277  -3.023   6.906  0.00  0.00    +0.020 C 
ATOM      8  C   LIG    1        8.400  -1.772   6.904  0.00  0.00    +0.310 C 
ATOM      9  N   LIG    1        4.990  -1.882   5.515  0.00  0.00    -0.670 N 
ATOM     10  H   LIG    1        4.541  -2.445   6.165  0.00  0.00    +0.410 HD
ENDROOT
BRANCH   7  11
ATOM     11  C   LIG    1       10.685  -2.653   7.292  0.00  0.00    -0.080 A 
ATOM     12  C   LIG    1       10.934  -2.066   8.519  0.00  0.00    +0.010 A 
ATOM     13  C   LIG    1       12.227  -1.730   8.875  0.00  0.00    +0.000 A 
ATOM     14  C   LIG    1       13.270  -1.974   8.001  0.00  0.00    +0.000 A 
ATOM     15  C   LIG    1       13.021  -2.557   6.772  0.00  0.00    +0.000 A 
ATOM     16  C   LIG    1       11.728  -2.896   6.418  0.00  0.00    +0.010 A 
ENDBRANCH   7  11
BRANCH   9  17
ATOM     17  C   LIG    1        4.281  -1.370   4.426  0.00  0.00    +0.340 A 
ATOM     18  C   LIG    1        4.756  -0.243   3.765  0.00  0.00    +0.020 A 
ATOM     19  C   LIG    1        4.046   0.256   2.688  0.00  0.00    +0.060 A 
ATOM     20  C   LIG    1        2.875  -0.395   2.305  0.00  0.00    +0.030 A 
ATOM     21  C   LIG    1        2.459  -1.512   3.016  0.00  0.00    +0.240 A 
ATOM     22  N   LIG    1        3.165  -1.963   4.035  0.00  0.00    -0.490 NA
BRANCH  20  23
ATOM     23  N   LIG    1        2.125   0.074   1.221  0.00  0.00    -0.480 N 
ATOM     24  C   LIG    1        0.937  -0.764   1.000  0.00  0.00    +0.170 C 
ATOM     25  C   LIG    1        0.180  -0.252  -0.228  0.00  0.00    +0.220 C 
ATOM     26  O   LIG    1       -0.157   1.125  -0.035  0.00  0.00    -0.380 OA
ATOM     27  C   LIG    1        0.977   1.969   0.182  0.00  0.00    +0.220 C 
ATOM     28  C   LIG    1        1.742   1.480   1.415  0.00  0.00    +0.160 C 
ENDBRANCH  20  23
ENDBRANCH   9  17
TORSDOF 3
