REMARK  Name = ZINCpk00000FdBVa.0
REMARK                            x       y       z     vdW  Elec       q    Type
REMARK                         _______ _______ _______ _____ _____    ______ ____
ROOT
ATOM      1  C   LIG    1       -0.669   1.921  -3.606  0.00  0.00    +0.280 C 
ATOM      2  C   LIG    1       -0.025   1.215  -2.410  0.00  0.00    +0.190 C 
ATOM      3  N   LIG    1       -0.543   1.800  -1.165  0.00  0.00    -0.520 NA
ATOM      4  C   LIG    1       -0.261   3.242  -1.111  0.00  0.00    +0.160 C 
ATOM      5  C   LIG    1       -0.902   3.928  -2.320  0.00  0.00    +0.250 C 
ATOM      6  O   LIG    1       -0.411   3.325  -3.520  0.00  0.00    -0.370 OA
ENDROOT
BRANCH   1  11
ATOM      7  C   LIG    1       -0.124  -0.131  -8.191  0.00  0.00    +0.200 C 
ATOM      8  C   LIG    1        0.149   0.500  -6.850  0.00  0.00    +0.190 A 
ATOM      9  N   LIG    1        1.321   0.807  -6.364  0.00  0.00    -0.290 NA
ATOM     10  N   LIG    1        1.182   1.335  -5.199  0.00  0.00    -0.260 NA
ATOM     11  C   LIG    1       -0.084   1.380  -4.886  0.00  0.00    +0.180 A 
ATOM     12  N   LIG    1       -0.776   0.855  -5.926  0.00  0.00    -0.570 N 
ATOM     13  H   LIG    1       -1.738   0.754  -5.995  0.00  0.00    +0.430 HD
ENDBRANCH   1  11
BRANCH   3  14
ATOM     14  C   LIG    1        0.007   1.111   0.010  0.00  0.00    +0.220 C 
BRANCH  14  15
ATOM     15  C   LIG    1       -0.718   1.572   1.248  0.00  0.00    +0.520 C 
ATOM     16  N   LIG    1       -0.302   1.164   2.463  0.00  0.00    -0.550 N 
ATOM     17  C   LIG    1        0.899   0.330   2.600  0.00  0.00    +0.270 C 
ATOM     18  C   LIG    1        0.584  -0.795   3.589  0.00  0.00    +0.020 C 
ATOM     19  C   LIG    1        0.277  -0.183   4.956  0.00  0.00    +0.080 C 
ATOM     20  C   LIG    1       -0.765   0.897   4.828  0.00  0.00    -0.120 A 
ATOM     21  C   LIG    1       -1.485   1.269   5.950  0.00  0.00    +0.020 A 
ATOM     22  C   LIG    1       -2.442   2.262   5.867  0.00  0.00    -0.020 A 
ATOM     23  C   LIG    1       -2.687   2.891   4.660  0.00  0.00    +0.020 A 
ATOM     24  C   LIG    1       -1.975   2.524   3.536  0.00  0.00    +0.010 A 
ATOM     25  C   LIG    1       -1.012   1.524   3.617  0.00  0.00    +0.150 A 
ATOM     26  O   LIG    1       -1.676   2.309   1.151  0.00  0.00    -0.490 OA
ENDBRANCH  14  15
ENDBRANCH   3  14
TORSDOF 3
