REMARK  Name = ZINCpk00000FdBVa.1
REMARK                            x       y       z     vdW  Elec       q    Type
REMARK                         _______ _______ _______ _____ _____    ______ ____
ROOT
ATOM      1  C   LIG    1        0.592   4.228   6.568  0.00  0.00    +0.290 C 
ATOM      2  C   LIG    1       -0.456   3.663   5.606  0.00  0.00    +0.170 C 
ATOM      3  N   LIG    1        0.198   3.280   4.346  0.00  0.00    -0.520 NA
ATOM      4  C   LIG    1        0.871   4.435   3.736  0.00  0.00    +0.150 C 
ATOM      5  C   LIG    1        1.906   4.992   4.717  0.00  0.00    +0.250 C 
ATOM      6  O   LIG    1        1.258   5.330   5.946  0.00  0.00    -0.370 OA
ENDROOT
BRANCH   1  10
ATOM      7  C   LIG    1       -0.941   4.357  11.333  0.00  0.00    +0.200 C 
ATOM      8  C   LIG    1       -0.739   4.740   9.890  0.00  0.00    +0.290 A 
ATOM      9  N   LIG    1       -0.051   4.065   9.005  0.00  0.00    -0.530 NA
ATOM     10  C   LIG    1       -0.083   4.695   7.831  0.00  0.00    +0.230 A 
ATOM     11  N   LIG    1       -0.790   5.788   7.955  0.00  0.00    -0.290 NA
ATOM     12  N   LIG    1       -1.233   5.835   9.287  0.00  0.00    -0.480 N 
ATOM     13  H   LIG    1       -1.783   6.524   9.693  0.00  0.00    +0.440 HD
ENDBRANCH   1  10
BRANCH   3  14
ATOM     14  C   LIG    1       -0.766   2.679   3.414  0.00  0.00    +0.220 C 
BRANCH  14  15
ATOM     15  C   LIG    1       -0.028   2.086   2.241  0.00  0.00    +0.520 C 
ATOM     16  N   LIG    1       -0.716   1.587   1.195  0.00  0.00    -0.560 N 
ATOM     17  C   LIG    1       -2.181   1.492   1.241  0.00  0.00    +0.270 C 
ATOM     18  C   LIG    1       -2.580   0.113   0.701  0.00  0.00    +0.020 C 
ATOM     19  C   LIG    1       -2.151   0.012  -0.763  0.00  0.00    +0.080 C 
ATOM     20  C   LIG    1       -0.700   0.388  -0.913  0.00  0.00    -0.120 A 
ATOM     21  C   LIG    1       -0.011  -0.039  -2.036  0.00  0.00    +0.020 A 
ATOM     22  C   LIG    1        1.320   0.292  -2.204  0.00  0.00    -0.020 A 
ATOM     23  C   LIG    1        1.972   1.053  -1.252  0.00  0.00    +0.020 A 
ATOM     24  C   LIG    1        1.292   1.482  -0.129  0.00  0.00    +0.010 A 
ATOM     25  C   LIG    1       -0.046   1.148   0.043  0.00  0.00    +0.150 A 
ATOM     26  O   LIG    1        1.184   2.058   2.239  0.00  0.00    -0.490 OA
ENDBRANCH  14  15
ENDBRANCH   3  14
TORSDOF 3
