REMARK  Name = ZINCc70000002weI.0
REMARK                            x       y       z     vdW  Elec       q    Type
REMARK                         _______ _______ _______ _____ _____    ______ ____
ROOT
ATOM      1  C   LIG    1       -0.044   1.512   0.029  0.00  0.00    -0.030 C 
ATOM      2  C   LIG    1        1.283   2.235   0.278  0.00  0.00    +0.020 C 
ATOM      3  C   LIG    1        1.925   1.682   1.554  0.00  0.00    +0.250 C 
ATOM      4  O   LIG    1        2.111   0.272   1.418  0.00  0.00    -0.380 OA
ATOM      5  C   LIG    1        0.899  -0.462   1.230  0.00  0.00    +0.250 C 
ATOM      6  C   LIG    1        0.217   0.005  -0.058  0.00  0.00    +0.020 C 
ENDROOT
BRANCH   1   8
ATOM      7  C   LIG    1       -0.740   3.447  -1.206  0.00  0.00    +0.310 C 
ATOM      8  N   LIG    1       -0.630   1.983  -1.233  0.00  0.00    -0.360 N 
ATOM      9  C   LIG    1        0.228   1.576  -2.354  0.00  0.00    +0.300 C 
ATOM     10  H   LIG    1       -1.548   1.579  -1.349  0.00  0.00    +0.430 HD
ENDBRANCH   1   8
BRANCH   1  11
ATOM     11  C   LIG    1       -0.993   1.795   1.165  0.00  0.00    +0.500 C 
ATOM     12  O   LIG    1       -2.109   2.229   0.933  0.00  0.00    -0.670 OA
ATOM     13  O   LIG    1       -0.646   1.589   2.315  0.00  0.00    -0.620 OA
ENDBRANCH   1  11
TORSDOF 2
