REMARK  Name = ZINCvU0000000J76.0
REMARK                            x       y       z     vdW  Elec       q    Type
REMARK                         _______ _______ _______ _____ _____    ______ ____
ROOT
ATOM      1  C   LIG    1        1.268   1.933  -0.230  0.00  0.00    +0.160 A 
ATOM      2  N   LIG    1        0.076   1.434  -0.397  0.00  0.00    -0.270 NA
ATOM      3  N   LIG    1        0.130   0.150  -0.388  0.00  0.00    -0.290 NA
ATOM      4  C   LIG    1        1.370  -0.243  -0.215  0.00  0.00    +0.150 A 
ATOM      5  N   LIG    1        2.135   0.882  -0.109  0.00  0.00    -0.450 N 
ENDROOT
BRANCH   1   6
ATOM      6  C   LIG    1        1.625   3.396  -0.182  0.00  0.00    +0.270 C 
BRANCH   6   7
ATOM      7  N   LIG    1        0.832   4.059   0.862  0.00  0.00    -0.520 NA
ATOM      8  C   LIG    1        1.213   3.581   2.197  0.00  0.00    +0.190 C 
ATOM      9  C   LIG    1       -0.607   3.874   0.627  0.00  0.00    +0.210 C 
ENDBRANCH   6   7
BRANCH   6  11
ATOM     10  C   LIG    1        1.773   5.502  -1.518  0.00  0.00    +0.040 C 
ATOM     11  C   LIG    1        1.325   4.040  -1.537  0.00  0.00    +0.040 C 
ENDBRANCH   6  11
ENDBRANCH   1   6
BRANCH   4  12
ATOM     12  S   LIG    1        1.940  -1.909  -0.134  0.00  0.00    +0.070 S 
BRANCH  12  13
ATOM     13  C   LIG    1        0.373  -2.788  -0.353  0.00  0.00    +0.160 C 
ATOM     14  C   LIG    1       -0.543  -2.502   0.839  0.00  0.00    +0.110 C 
BRANCH  13  15
ATOM     15  C   LIG    1        0.636  -4.269  -0.440  0.00  0.00    +0.170 A 
ATOM     16  N   LIG    1        1.427  -4.957   0.334  0.00  0.00    -0.250 NA
ATOM     17  N   LIG    1        1.413  -6.193  -0.023  0.00  0.00    -0.260 NA
ATOM     18  C   LIG    1        0.603  -6.338  -1.049  0.00  0.00    +0.250 A 
ATOM     19  O   LIG    1        0.091  -5.121  -1.328  0.00  0.00    -0.210 OA
BRANCH  18  20
ATOM     20  C   LIG    1        0.306  -7.593  -1.756  0.00  0.00    -0.160 A 
ATOM     21  C   LIG    1        0.832  -8.811  -1.452  0.00  0.00    +0.110 A 
ATOM     22  C   LIG    1        0.399  -9.838  -2.261  0.00  0.00    +0.020 A 
ATOM     23  C   LIG    1       -0.467  -9.482  -3.216  0.00  0.00    -0.010 A 
ATOM     24  S   LIG    1       -0.789  -7.756  -3.122  0.00  0.00    +0.180 S 
ENDBRANCH  18  20
ENDBRANCH  13  15
ENDBRANCH  12  13
ENDBRANCH   4  12
BRANCH   5  25
ATOM     25  C   LIG    1        3.585   0.951   0.093  0.00  0.00    +0.360 C 
BRANCH  25  26
ATOM     26  C   LIG    1        4.278   0.973  -1.244  0.00  0.00    -0.120 A 
ATOM     27  C   LIG    1        4.657  -0.212  -1.846  0.00  0.00    +0.040 A 
ATOM     28  C   LIG    1        5.288  -0.192  -3.076  0.00  0.00    +0.010 A 
ATOM     29  C   LIG    1        5.551   1.014  -3.698  0.00  0.00    +0.030 A 
ATOM     30  C   LIG    1        5.177   2.200  -3.094  0.00  0.00    +0.010 A 
ATOM     31  C   LIG    1        4.541   2.179  -1.867  0.00  0.00    +0.020 A 
ENDBRANCH  25  26
ENDBRANCH   5  25
TORSDOF 9
