REMARK  Name = ZINCkj000005m6D3.0
REMARK                            x       y       z     vdW  Elec       q    Type
REMARK                         _______ _______ _______ _____ _____    ______ ____
ROOT
ATOM      1  O   LIG    1       -0.681   5.005   2.184  0.00  0.00    -0.530 OA
ATOM      2  C   LIG    1       -0.417   3.820   2.205  0.00  0.00    +0.580 C 
ATOM      3  N   LIG    1       -0.594   3.070   1.099  0.00  0.00    -0.590 N 
ATOM      4  C   LIG    1       -0.126   1.677   1.057  0.00  0.00    +0.290 C 
ATOM      5  C   LIG    1        0.769   1.496  -0.174  0.00  0.00    -0.000 C 
ATOM      6  C   LIG    1        0.007   1.942  -1.424  0.00  0.00    +0.020 C 
ATOM      7  C   LIG    1       -0.352   3.425  -1.303  0.00  0.00    -0.020 C 
ATOM      8  C   LIG    1       -1.259   3.628  -0.085  0.00  0.00    +0.270 C 
ENDROOT
BRANCH   7   9
ATOM      9  C   LIG    1       -1.084   3.878  -2.567  0.00  0.00    +0.000 C 
ATOM     10  C   LIG    1       -0.178   3.675  -3.785  0.00  0.00    +0.060 C 
ATOM     11  C   LIG    1       -0.884   4.205  -5.034  0.00  0.00    +0.250 C 
ATOM     12  N   LIG    1       -1.174   5.634  -4.869  0.00  0.00    -0.510 N 
ATOM     13  C   LIG    1       -2.101   5.829  -3.748  0.00  0.00    +0.250 C 
ATOM     14  H   LIG    1       -0.316   6.131  -4.684  0.00  0.00    +0.430 HD
ATOM     15  H   LIG    1       -1.592   5.992  -5.715  0.00  0.00    +0.430 HD
ATOM     16  C   LIG    1       -1.440   5.362  -2.448  0.00  0.00    +0.050 C 
ENDBRANCH   7   9
BRANCH   2  17
ATOM     17  C   LIG    1        0.101   3.199   3.446  0.00  0.00    +0.020 A 
ATOM     18  C   LIG    1        0.467   3.998   4.532  0.00  0.00    +0.100 A 
ATOM     19  C   LIG    1        0.942   3.366   5.673  0.00  0.00    +0.050 A 
ATOM     20  C   LIG    1        1.034   1.984   5.663  0.00  0.00    +0.250 A 
ATOM     21  N   LIG    1        0.670   1.304   4.589  0.00  0.00    -0.240 NA
ATOM     22  N   LIG    1        0.225   1.879   3.531  0.00  0.00    -0.210 NA
ENDBRANCH   2  17
TORSDOF 2
