REMARK  Name = ZINCvU0000000Fyn.0
REMARK                            x       y       z     vdW  Elec       q    Type
REMARK                         _______ _______ _______ _____ _____    ______ ____
ROOT
ATOM      1  N   LIG    1        6.957   0.355  -2.252  0.00  0.00    -0.510 N 
ATOM      2  C   LIG    1        8.126  -0.045  -1.707  0.00  0.00    +0.520 C 
ATOM      3  C   LIG    1        7.777  -0.588  -0.381  0.00  0.00    -0.040 C 
ATOM      4  N   LIG    1        6.422  -0.451  -0.265  0.00  0.00    -0.490 NA
ATOM      5  C   LIG    1        8.639  -1.120   0.550  0.00  0.00    +0.220 C 
ATOM      6  O   LIG    1        9.235   0.026  -2.205  0.00  0.00    -0.460 OA
ATOM      7  C   LIG    1        5.949   0.092  -1.356  0.00  0.00    +0.320 C 
ENDROOT
BRANCH   5   8
ATOM      8  C   LIG    1       10.044  -1.351   0.200  0.00  0.00    -0.090 A 
ATOM      9  C   LIG    1       10.380  -1.856  -1.063  0.00  0.00    +0.100 A 
ATOM     10  C   LIG    1       11.701  -2.066  -1.390  0.00  0.00    +0.030 A 
ATOM     11  C   LIG    1       12.703  -1.791  -0.468  0.00  0.00    +0.060 A 
ATOM     12  O   LIG    1       14.059  -1.917  -0.547  0.00  0.00    -0.310 OA
ATOM     13  C   LIG    1       14.530  -1.882   0.813  0.00  0.00    +0.430 C 
ATOM     14  O   LIG    1       13.529  -1.109   1.502  0.00  0.00    -0.310 OA
ATOM     15  C   LIG    1       12.376  -1.293   0.795  0.00  0.00    +0.020 A 
ATOM     16  C   LIG    1       11.055  -1.074   1.130  0.00  0.00    +0.070 A 
ENDBRANCH   5   8
BRANCH   1  21
ATOM     17  C   LIG    1        6.317   2.719  -7.372  0.00  0.00    +0.100 C 
ATOM     18  C   LIG    1        6.486   2.092  -6.013  0.00  0.00    -0.070 A 
ATOM     19  C   LIG    1        7.191   2.759  -5.028  0.00  0.00    +0.020 A 
ATOM     20  C   LIG    1        7.349   2.186  -3.781  0.00  0.00    +0.040 A 
ATOM     21  C   LIG    1        6.798   0.940  -3.517  0.00  0.00    +0.110 A 
ATOM     22  C   LIG    1        6.095   0.270  -4.509  0.00  0.00    +0.030 A 
ATOM     23  C   LIG    1        5.936   0.850  -5.752  0.00  0.00    +0.020 A 
ENDBRANCH   1  21
BRANCH   7  24
ATOM     24  S   LIG    1        4.246   0.447  -1.637  0.00  0.00    +0.040 S 
BRANCH  24  25
ATOM     25  C   LIG    1        3.540  -0.150  -0.081  0.00  0.00    +0.210 C 
BRANCH  25  26
ATOM     26  C   LIG    1        2.047   0.058  -0.094  0.00  0.00    +0.070 A 
ATOM     27  C   LIG    1        1.469   1.176   0.353  0.00  0.00    -0.060 A 
ATOM     28  S   LIG    1       -0.273   1.002   0.156  0.00  0.00    +0.140 S 
ATOM     29  C   LIG    1       -0.051  -0.558  -0.508  0.00  0.00    +0.050 A 
ATOM     30  C   LIG    1       -1.161  -1.462  -0.978  0.00  0.00    +0.180 C 
ATOM     31  N   LIG    1        1.206  -0.850  -0.548  0.00  0.00    -0.460 NA
ENDBRANCH  25  26
ENDBRANCH  24  25
ENDBRANCH   7  24
TORSDOF 5
