REMARK  Name = ZINCpe000000YKb1.0
REMARK                            x       y       z     vdW  Elec       q    Type
REMARK                         _______ _______ _______ _____ _____    ______ ____
ROOT
ATOM      1  C   LIG    1       -1.600   3.910   2.281  0.00  0.00    -0.680 A 
ATOM      2  C   LIG    1       -1.221   3.225   3.395  0.00  0.00    +0.200 A 
ATOM      3  C   LIG    1       -1.249   1.831   3.425  0.00  0.00    +0.010 A 
ATOM      4  C   LIG    1       -1.657   1.113   2.342  0.00  0.00    +0.120 A 
ATOM      5  C   LIG    1       -2.049   1.783   1.176  0.00  0.00    -0.100 A 
ATOM      6  C   LIG    1       -2.475   1.091   0.019  0.00  0.00    +0.150 A 
ATOM      7  N   LIG    1       -2.834   1.772  -1.055  0.00  0.00    -0.460 NA
ATOM      8  C   LIG    1       -2.815   3.091  -1.103  0.00  0.00    +0.280 A 
ATOM      9  C   LIG    1       -2.430   3.850  -0.033  0.00  0.00    -0.010 A 
ATOM     10  C   LIG    1       -2.026   3.202   1.147  0.00  0.00    +0.050 A 
ENDROOT
BRANCH   6  11
ATOM     11  C   LIG    1       -2.519  -0.388   0.012  0.00  0.00    +0.580 C 
ATOM     12  N   LIG    1       -3.701  -1.027   0.115  0.00  0.00    -0.600 N 
ATOM     13  C   LIG    1       -3.760  -2.494   0.213  0.00  0.00    +0.300 C 
ATOM     14  C   LIG    1       -4.631  -2.861   1.425  0.00  0.00    +0.180 C 
ATOM     15  N   LIG    1       -5.935  -2.194   1.304  0.00  0.00    -0.500 NA
ATOM     16  C   LIG    1       -5.791  -0.733   1.335  0.00  0.00    +0.170 C 
ATOM     17  C   LIG    1       -4.966  -0.278   0.126  0.00  0.00    +0.280 C 
ATOM     18  O   LIG    1       -1.490  -1.026  -0.088  0.00  0.00    -0.520 OA
BRANCH  15  19
ATOM     19  C   LIG    1       -6.861  -2.655   2.347  0.00  0.00    +0.140 C 
ATOM     20  C   LIG    1       -6.272  -3.454   3.511  0.00  0.00    -0.020 C 
ATOM     21  C   LIG    1       -7.119  -4.159   2.449  0.00  0.00    +0.030 C 
ENDBRANCH  15  19
ENDBRANCH   6  11
BRANCH   1  22
ATOM     22  S   LIG    1       -1.556   5.672   2.264  0.00  0.00    +2.710 S 
ATOM     23  O   LIG    1       -1.055   6.073   3.531  0.00  0.00    -0.960 OA
ATOM     24  O   LIG    1       -2.812   6.099   1.754  0.00  0.00    -0.950 OA
BRANCH  22  25
ATOM     25  N   LIG    1       -0.420   6.123   1.147  0.00  0.00    -1.250 NA
ATOM     26  H   LIG    1       -0.244   7.063   0.987  0.00  0.00    +0.420 HD
ATOM     27  H   LIG    1        0.070   5.447   0.653  0.00  0.00    +0.420 HD
ENDBRANCH  22  25
ENDBRANCH   1  22
TORSDOF 4
