REMARK  Name = ZINCkj00000GeSep.0
REMARK                            x       y       z     vdW  Elec       q    Type
REMARK                         _______ _______ _______ _____ _____    ______ ____
ROOT
ATOM      1  N   LIG    1       -0.611   2.418   6.413  0.00  0.00    -0.480 N 
ATOM      2  H   LIG    1        0.260   2.726   6.818  0.00  0.00    +0.440 HD
ATOM      3  H   LIG    1       -0.736   1.433   6.593  0.00  0.00    +0.440 HD
ENDROOT
BRANCH   1   4
ATOM      4  C   LIG    1       -0.587   2.651   4.963  0.00  0.00    +0.180 C 
BRANCH   4   5
ATOM      5  C   LIG    1       -0.278   4.101   4.693  0.00  0.00    +0.510 C 
ATOM      6  O   LIG    1        0.260   4.776   5.545  0.00  0.00    -0.520 OA
ATOM      7  N   LIG    1       -0.600   4.648   3.504  0.00  0.00    -0.820 N 
ATOM      8  H   LIG    1       -0.468   5.598   3.355  0.00  0.00    +0.430 HD
ATOM      9  H   LIG    1       -0.964   4.093   2.797  0.00  0.00    +0.410 HD
ENDBRANCH   4   5
BRANCH   4  10
ATOM     10  C   LIG    1        0.490   1.772   4.323  0.00  0.00    +0.020 C 
ATOM     11  C   LIG    1        1.831   2.026   5.014  0.00  0.00    +0.060 C 
BRANCH  10  13
ATOM     12  C   LIG    1        1.113  -0.573   3.727  0.00  0.00    +0.050 C 
ATOM     13  C   LIG    1        0.106   0.300   4.479  0.00  0.00    +0.020 C 
ENDBRANCH  10  13
ENDBRANCH   4  10
ENDBRANCH   1   4
BRANCH   1  14
ATOM     14  C   LIG    1       -1.722   3.170   7.011  0.00  0.00    +0.270 C 
BRANCH  14  15
ATOM     15  C   LIG    1       -1.748   2.930   8.499  0.00  0.00    +0.510 C 
ATOM     16  N   LIG    1       -2.618   3.605   9.276  0.00  0.00    -0.580 N 
ATOM     17  O   LIG    1       -0.984   2.130   8.997  0.00  0.00    -0.520 OA
BRANCH  16  18
ATOM     18  C   LIG    1       -2.565   3.460  10.732  0.00  0.00    +0.240 C 
ATOM     19  C   LIG    1       -1.170   3.841  11.233  0.00  0.00    +0.050 C 
ATOM     20  C   LIG    1       -2.864   2.008  11.111  0.00  0.00    +0.040 C 
ENDBRANCH  16  18
BRANCH  16  21
ATOM     21  C   LIG    1       -3.617   4.484   8.663  0.00  0.00    +0.280 C 
BRANCH  21  22
ATOM     22  C   LIG    1       -4.946   3.736   8.536  0.00  0.00    -0.030 C 
ATOM     23  C   LIG    1       -4.783   2.570   7.560  0.00  0.00    +0.010 C 
ATOM     24  C   LIG    1       -6.021   4.692   8.015  0.00  0.00    +0.040 C 
ENDBRANCH  21  22
ENDBRANCH  16  21
ENDBRANCH  14  15
ENDBRANCH   1  14
TORSDOF 9
