REMARK  Name = ZINCrD00000F5Lse.0
REMARK                            x       y       z     vdW  Elec       q    Type
REMARK                         _______ _______ _______ _____ _____    ______ ____
ROOT
ATOM      1  O   LIG    1        8.783  -0.179  -3.493  0.00  0.00    -0.490 OA
ATOM      2  C   LIG    1        8.487   0.863  -2.957  0.00  0.00    +0.460 C 
ENDROOT
BRANCH   2   3
ATOM      3  O   LIG    1        9.006   2.017  -3.402  0.00  0.00    -0.350 OA
BRANCH   3   4
ATOM      4  C   LIG    1        9.916   1.939  -4.531  0.00  0.00    +0.290 C 
BRANCH   4   5
ATOM      5  C   LIG    1       10.395   3.323  -4.888  0.00  0.00    -0.100 A 
ATOM      6  C   LIG    1        9.695   4.080  -5.808  0.00  0.00    +0.080 A 
ATOM      7  C   LIG    1       10.131   5.351  -6.132  0.00  0.00    +0.020 A 
ATOM      8  C   LIG    1       11.273   5.861  -5.542  0.00  0.00    +0.080 A 
ATOM      9  C   LIG    1       11.976   5.102  -4.625  0.00  0.00    -0.180 A 
ATOM     10  C   LIG    1       11.537   3.833  -4.298  0.00  0.00    +0.100 A 
BRANCH   9  11
ATOM     11  C   LIG    1       13.220   5.658  -3.983  0.00  0.00    +0.510 C 
ATOM     12  F   LIG    1       13.367   5.114  -2.702  0.00  0.00    -0.170 F 
ATOM     13  F   LIG    1       13.115   7.050  -3.889  0.00  0.00    -0.180 F 
ATOM     14  F   LIG    1       14.335   5.326  -4.761  0.00  0.00    -0.170 F 
ENDBRANCH   9  11
ENDBRANCH   4   5
ENDBRANCH   3   4
ENDBRANCH   2   3
BRANCH   2  15
ATOM     15  C   LIG    1        7.534   0.866  -1.789  0.00  0.00    +0.370 C 
BRANCH  15  16
ATOM     16  N   LIG    1        7.112  -0.507  -1.500  0.00  0.00    -1.110 NA
ATOM     17  H   LIG    1        7.266  -1.209  -2.151  0.00  0.00    +0.430 HD
BRANCH  16  18
ATOM     18  S   LIG    1        6.372  -0.860  -0.061  0.00  0.00    +2.690 S 
ATOM     19  O   LIG    1        6.060  -2.246  -0.099  0.00  0.00    -0.950 OA
ATOM     20  O   LIG    1        7.171  -0.271   0.956  0.00  0.00    -0.950 OA
BRANCH  18  21
ATOM     21  C   LIG    1        4.832  -0.004  -0.043  0.00  0.00    -0.600 C 
ATOM     22  C   LIG    1        3.695  -0.685  -0.036  0.00  0.00    +0.220 C 
BRANCH  22  23
ATOM     23  C   LIG    1        2.403   0.034  -0.020  0.00  0.00    -0.100 A 
ATOM     24  C   LIG    1        1.204  -0.681  -0.013  0.00  0.00    +0.040 A 
ATOM     25  C   LIG    1        0.002  -0.004   0.002  0.00  0.00    +0.000 A 
ATOM     26  C   LIG    1       -0.017   1.379   0.010  0.00  0.00    +0.030 A 
ATOM     27  C   LIG    1        1.168   2.093   0.002  0.00  0.00    +0.000 A 
ATOM     28  C   LIG    1        2.377   1.429  -0.013  0.00  0.00    +0.040 A 
ENDBRANCH  22  23
ENDBRANCH  18  21
ENDBRANCH  16  18
ENDBRANCH  15  16
ENDBRANCH   2  15
TORSDOF 9
