REMARK  Name = ZINCpe00000gMS7j.0
REMARK                            x       y       z     vdW  Elec       q    Type
REMARK                         _______ _______ _______ _____ _____    ______ ____
ROOT
ATOM      1  N   LIG    1        2.091   4.338   0.005  0.00  0.00    -0.600 N 
ATOM      2  C   LIG    1        1.031   3.506   0.003  0.00  0.00    +0.530 C 
ATOM      3  O   LIG    1       -0.095   3.957   0.008  0.00  0.00    -0.510 OA
ATOM      4  C   LIG    1        3.451   3.793  -0.002  0.00  0.00    +0.300 C 
ENDROOT
BRANCH   1   5
ATOM      5  C   LIG    1        1.883   5.789   0.015  0.00  0.00    +0.340 C 
BRANCH   5   8
ATOM      6  N   LIG    1        1.628   7.587   1.694  0.00  0.00    -0.670 N 
ATOM      7  H   LIG    1        1.604   8.225   0.964  0.00  0.00    +0.410 HD
ATOM      8  C   LIG    1        1.816   6.277   1.439  0.00  0.00    +0.500 C 
ATOM      9  O   LIG    1        1.930   5.490   2.356  0.00  0.00    -0.510 OA
BRANCH   6  14
ATOM     10  C   LIG    1        0.983   9.372   7.041  0.00  0.00    +0.100 C 
ATOM     11  C   LIG    1        1.155   8.898   5.620  0.00  0.00    -0.100 A 
ATOM     12  C   LIG    1        2.007   7.845   5.343  0.00  0.00    +0.030 A 
ATOM     13  C   LIG    1        2.166   7.407   4.042  0.00  0.00    +0.020 A 
ATOM     14  C   LIG    1        1.469   8.027   3.013  0.00  0.00    +0.140 A 
ATOM     15  C   LIG    1        0.618   9.087   3.295  0.00  0.00    -0.010 A 
ATOM     16  C   LIG    1        0.459   9.516   4.598  0.00  0.00    +0.030 A 
ENDBRANCH   6  14
ENDBRANCH   5   8
ENDBRANCH   1   5
BRANCH   2  17
ATOM     17  C   LIG    1        1.245   2.014  -0.008  0.00  0.00    +0.280 C 
BRANCH  17  18
ATOM     18  O   LIG    1       -0.021   1.351  -0.009  0.00  0.00    -0.330 OA
BRANCH  18  19
ATOM     19  C   LIG    1       -0.006   0.002  -0.017  0.00  0.00    +0.530 C 
ATOM     20  O   LIG    1        1.054  -0.595  -0.024  0.00  0.00    -0.490 OA
BRANCH  19  21
ATOM     21  C   LIG    1       -1.264  -0.743  -0.019  0.00  0.00    -0.080 C 
ATOM     22  C   LIG    1       -2.424  -0.069  -0.011  0.00  0.00    +0.260 C 
ATOM     23  O   LIG    1       -3.614  -0.707  -0.005  0.00  0.00    -0.290 OA
ATOM     24  C   LIG    1       -3.607  -2.088  -0.385  0.00  0.00    +0.230 C 
ATOM     25  C   LIG    1       -2.442  -2.777   0.340  0.00  0.00    +0.230 C 
ATOM     26  O   LIG    1       -1.231  -2.104  -0.033  0.00  0.00    -0.290 OA
ENDBRANCH  19  21
ENDBRANCH  18  19
ENDBRANCH  17  18
ENDBRANCH   2  17
TORSDOF 7
