REMARK  Name = ZINCrD0000074JjB.0
REMARK                            x       y       z     vdW  Elec       q    Type
REMARK                         _______ _______ _______ _____ _____    ______ ____
ROOT
ATOM      1  O   LIG    1        0.901   6.018  -0.565  0.00  0.00    -0.330 OA
ENDROOT
BRANCH   1   2
ATOM      2  C   LIG    1       -0.218   5.282  -0.426  0.00  0.00    +0.510 C 
ATOM      3  O   LIG    1       -1.308   5.816  -0.488  0.00  0.00    -0.500 OA
BRANCH   2  10
ATOM      4  C   LIG    1       -2.615   3.761   0.138  0.00  0.00    +0.130 C 
ATOM      5  C   LIG    1       -1.271   3.081   0.074  0.00  0.00    +0.040 A 
ATOM      6  C   LIG    1       -1.175   1.720   0.280  0.00  0.00    +0.000 A 
ATOM      7  C   LIG    1        0.059   1.095   0.228  0.00  0.00    +0.170 A 
ATOM      8  C   LIG    1        1.201   1.827  -0.043  0.00  0.00    -0.680 A 
ATOM      9  C   LIG    1        1.118   3.187  -0.256  0.00  0.00    +0.200 A 
ATOM     10  C   LIG    1       -0.122   3.825  -0.199  0.00  0.00    -0.150 A 
BRANCH   8  11
ATOM     11  S   LIG    1        2.766   1.019  -0.115  0.00  0.00    +2.500 S 
ATOM     12  O   LIG    1        2.608  -0.125   0.714  0.00  0.00    -0.930 OA
ATOM     13  O   LIG    1        3.701   2.038   0.213  0.00  0.00    -0.930 OA
ATOM     14  C   LIG    1        2.942   0.528  -1.852  0.00  0.00    -0.250 C 
ENDBRANCH   8  11
ENDBRANCH   2  10
ENDBRANCH   1   2
BRANCH   1  15
ATOM     15  C   LIG    1        0.731   7.442  -0.786  0.00  0.00    +0.160 C 
ATOM     16  C   LIG    1        0.700   8.168   0.560  0.00  0.00    +0.070 C 
BRANCH  15  17
ATOM     17  C   LIG    1        1.879   7.963  -1.611  0.00  0.00    +0.430 C 
ATOM     18  O   LIG    1        2.882   7.293  -1.749  0.00  0.00    -0.440 OA
BRANCH  17  19
ATOM     19  C   LIG    1        1.789   9.237  -2.227  0.00  0.00    -0.270 A 
ATOM     20  C   LIG    1        0.726  10.113  -2.166  0.00  0.00    +0.330 A 
ATOM     21  N   LIG    1        1.011  11.220  -2.877  0.00  0.00    -0.560 N 
ATOM     22  H   LIG    1        0.415  11.978  -2.980  0.00  0.00    +0.420 HD
ATOM     23  C   LIG    1        2.269  11.130  -3.438  0.00  0.00    +0.070 A 
ATOM     24  C   LIG    1        3.014  11.987  -4.241  0.00  0.00    +0.000 A 
ATOM     25  C   LIG    1        4.274  11.617  -4.659  0.00  0.00    +0.030 A 
ATOM     26  C   LIG    1        4.811  10.394  -4.286  0.00  0.00    +0.000 A 
ATOM     27  C   LIG    1        4.088   9.531  -3.491  0.00  0.00    +0.060 A 
ATOM     28  C   LIG    1        2.817   9.895  -3.058  0.00  0.00    -0.060 A 
ENDBRANCH  17  19
ENDBRANCH  15  17
ENDBRANCH   1  15
TORSDOF 6
