REMARK  Name = ZINCqH0000007UwS.2
REMARK                            x       y       z     vdW  Elec       q    Type
REMARK                         _______ _______ _______ _____ _____    ______ ____
ROOT
ATOM      1  C   LIG    1        1.025  -2.204  -0.020  0.00  0.00    -0.050 A 
ATOM      2  C   LIG    1        0.925  -2.893   1.175  0.00  0.00    +0.040 A 
ATOM      3  C   LIG    1        0.686  -4.255   1.170  0.00  0.00    +0.040 A 
ATOM      4  C   LIG    1        0.558  -4.929  -0.030  0.00  0.00    -0.170 A 
ATOM      5  C   LIG    1        0.663  -4.242  -1.224  0.00  0.00    +0.030 A 
ATOM      6  C   LIG    1        0.897  -2.879  -1.219  0.00  0.00    +0.040 A 
ENDROOT
BRANCH   1   7
ATOM      7  C   LIG    1        1.281  -0.719  -0.014  0.00  0.00    +0.310 C 
BRANCH   7  10
ATOM      8  N   LIG    1       -1.192   2.002   0.019  0.00  0.00    -0.710 NA
ATOM      9  C   LIG    1       -0.016   1.344   0.009  0.00  0.00    +0.650 C 
ATOM     10  N   LIG    1        0.002  -0.004   0.002  0.00  0.00    -0.740 N 
ATOM     11  H   LIG    1       -0.831  -0.500   0.007  0.00  0.00    +0.390 HD
ATOM     12  O   LIG    1        1.028   1.966   0.003  0.00  0.00    -0.620 OA
BRANCH   8  16
ATOM     13  C   LIG    1       -1.657   5.843   0.043  0.00  0.00    -0.110 A 
ATOM     14  C   LIG    1       -0.375   5.464   0.035  0.00  0.00    +0.200 A 
ATOM     15  N   LIG    1       -0.165   4.159   0.031  0.00  0.00    -0.540 NA
ATOM     16  C   LIG    1       -1.211   3.393   0.026  0.00  0.00    +0.380 A 
ATOM     17  S   LIG    1       -2.661   4.394   0.039  0.00  0.00    -0.050 S 
BRANCH  13  19
ATOM     18  C   LIG    1       -3.525   7.315   0.059  0.00  0.00    +0.220 C 
ATOM     19  O   LIG    1       -2.109   7.126   0.052  0.00  0.00    -0.290 OA
ENDBRANCH  13  19
ENDBRANCH   8  16
ENDBRANCH   7  10
ENDBRANCH   1   7
BRANCH   4  20
ATOM     20  C   LIG    1        0.304  -6.415  -0.035  0.00  0.00    +0.310 C 
BRANCH  20  21
ATOM     21  N   LIG    1        1.586  -7.131  -0.051  0.00  0.00    -0.380 N 
ATOM     22  C   LIG    1        2.285  -6.851  -1.311  0.00  0.00    +0.250 C 
ATOM     23  C   LIG    1        3.657  -7.529  -1.299  0.00  0.00    +0.060 C 
ATOM     24  C   LIG    1        3.471  -9.041  -1.141  0.00  0.00    +0.040 C 
ATOM     25  C   LIG    1        2.676  -9.317   0.138  0.00  0.00    -0.020 C 
ATOM     26  C   LIG    1        2.418 -10.820   0.265  0.00  0.00    +0.070 C 
ATOM     27  C   LIG    1        1.341  -8.573   0.073  0.00  0.00    +0.250 C 
ATOM     28  H   LIG    1        2.153  -6.820   0.723  0.00  0.00    +0.420 HD
ENDBRANCH  20  21
ENDBRANCH   4  20
TORSDOF 6
