REMARK  Name = ZINCqH0000007UwS.1
REMARK                            x       y       z     vdW  Elec       q    Type
REMARK                         _______ _______ _______ _____ _____    ______ ____
ROOT
ATOM      1  C   LIG    1       -3.265  -5.070   0.006  0.00  0.00    -0.050 A 
ATOM      2  C   LIG    1       -3.874  -5.381   1.207  0.00  0.00    +0.040 A 
ATOM      3  C   LIG    1       -5.122  -5.976   1.216  0.00  0.00    +0.030 A 
ATOM      4  C   LIG    1       -5.757  -6.268   0.023  0.00  0.00    -0.170 A 
ATOM      5  C   LIG    1       -5.146  -5.962  -1.178  0.00  0.00    +0.040 A 
ATOM      6  C   LIG    1       -3.900  -5.363  -1.187  0.00  0.00    +0.040 A 
ENDROOT
BRANCH   1   7
ATOM      7  C   LIG    1       -1.907  -4.418  -0.004  0.00  0.00    +0.310 C 
BRANCH   7  10
ATOM      8  N   LIG    1       -1.121  -0.826   0.008  0.00  0.00    -0.710 NA
ATOM      9  C   LIG    1       -0.976  -2.166  -0.000  0.00  0.00    +0.650 C 
ATOM     10  N   LIG    1       -2.064  -2.961   0.006  0.00  0.00    -0.740 N 
ATOM     11  H   LIG    1       -2.952  -2.570   0.016  0.00  0.00    +0.390 HD
ATOM     12  O   LIG    1        0.136  -2.657  -0.013  0.00  0.00    -0.620 OA
BRANCH   8  16
ATOM     13  C   LIG    1        1.740   1.778  -0.005  0.00  0.00    -0.110 A 
ATOM     14  C   LIG    1        2.174   0.514  -0.016  0.00  0.00    +0.200 A 
ATOM     15  N   LIG    1        1.232  -0.414  -0.012  0.00  0.00    -0.540 NA
ATOM     16  C   LIG    1        0.002  -0.004   0.002  0.00  0.00    +0.380 A 
ATOM     17  S   LIG    1       -0.022   1.757   0.012  0.00  0.00    -0.050 S 
BRANCH  13  19
ATOM     18  C   LIG    1        1.858   4.154   0.006  0.00  0.00    +0.220 C 
ATOM     19  O   LIG    1        2.524   2.890  -0.007  0.00  0.00    -0.290 OA
ENDBRANCH  13  19
ENDBRANCH   8  16
ENDBRANCH   7  10
ENDBRANCH   1   7
BRANCH   4  20
ATOM     20  C   LIG    1       -7.115  -6.921   0.033  0.00  0.00    +0.310 C 
BRANCH  20  21
ATOM     21  N   LIG    1       -6.957  -8.381   0.023  0.00  0.00    -0.380 N 
ATOM     22  C   LIG    1       -6.302  -8.809   1.265  0.00  0.00    +0.250 C 
ATOM     23  C   LIG    1       -6.061 -10.320   1.224  0.00  0.00    +0.050 C 
ATOM     24  C   LIG    1       -7.404 -11.042   1.078  0.00  0.00    +0.040 C 
ATOM     25  C   LIG    1       -8.111 -10.533  -0.181  0.00  0.00    +0.010 C 
ATOM     26  C   LIG    1       -7.275 -10.882  -1.414  0.00  0.00    +0.030 C 
ATOM     27  C   LIG    1       -8.276  -9.014  -0.089  0.00  0.00    +0.260 C 
ATOM     28  H   LIG    1       -6.387  -8.651  -0.765  0.00  0.00    +0.420 HD
ENDBRANCH  20  21
ENDBRANCH   4  20
TORSDOF 6
