REMARK  Name = ZINCpk00000xI9JO.0
REMARK                            x       y       z     vdW  Elec       q    Type
REMARK                         _______ _______ _______ _____ _____    ______ ____
ROOT
ATOM      1  N   LIG    1        1.107  -0.603   2.171  0.00  0.00    -0.540 N 
ATOM      2  C   LIG    1        2.399  -0.483   1.804  0.00  0.00    +0.650 A 
ATOM      3  O   LIG    1        2.883  -1.691   1.474  0.00  0.00    -0.220 OA
ATOM      4  C   LIG    1        1.906  -2.619   1.622  0.00  0.00    +0.100 A 
ATOM      5  C   LIG    1        1.866  -3.989   1.422  0.00  0.00    +0.100 A 
ATOM      6  C   LIG    1        0.702  -4.689   1.677  0.00  0.00    +0.140 A 
ATOM      7  C   LIG    1       -0.429  -4.026   2.118  0.00  0.00    -0.020 A 
ATOM      8  C   LIG    1       -0.400  -2.658   2.315  0.00  0.00    +0.120 A 
ATOM      9  O   LIG    1        3.028   0.557   1.778  0.00  0.00    -0.440 OA
ATOM     10  C   LIG    1        0.766  -1.951   2.070  0.00  0.00    +0.060 A 
ENDROOT
BRANCH   7  11
ATOM     11  N   LIG    1       -1.674  -4.783   2.380  0.00  0.00    +0.030 N 
ATOM     12  O   LIG    1       -1.701  -5.988   2.207  0.00  0.00    -0.140 OA
ATOM     13  O   LIG    1       -2.671  -4.201   2.769  0.00  0.00    -0.150 OA
ENDBRANCH   7  11
BRANCH   1  14
ATOM     14  C   LIG    1        0.225   0.484   2.602  0.00  0.00    +0.510 C 
BRANCH  14  20
ATOM     15  C   LIG    1       -1.652   1.799   1.839  0.00  0.00    +0.200 C 
ATOM     16  C   LIG    1       -2.093   2.729   0.704  0.00  0.00    +0.150 C 
ATOM     17  S   LIG    1       -2.528   1.713  -0.740  0.00  0.00    -0.230 S 
ATOM     18  C   LIG    1       -1.056   0.657  -0.913  0.00  0.00    +0.140 C 
ATOM     19  C   LIG    1       -0.758   0.012   0.444  0.00  0.00    +0.200 C 
ATOM     20  N   LIG    1       -0.461   1.051   1.433  0.00  0.00    -0.550 NA
BRANCH  15  21
ATOM     21  C   LIG    1       -1.335   2.618   3.063  0.00  0.00    +0.460 C 
ATOM     22  O   LIG    1       -0.186   2.880   3.334  0.00  0.00    -0.480 OA
BRANCH  21  23
ATOM     23  O   LIG    1       -2.327   3.056   3.854  0.00  0.00    -0.350 OA
BRANCH  23  25
ATOM     24  C   LIG    1       -3.204   4.246   5.789  0.00  0.00    +0.070 C 
ATOM     25  C   LIG    1       -1.948   3.839   5.016  0.00  0.00    +0.210 C 
ENDBRANCH  23  25
ENDBRANCH  21  23
ENDBRANCH  15  21
ENDBRANCH  14  20
ENDBRANCH   1  14
TORSDOF 6
