REMARK  Name = ZINCpk000004WuHx.2
REMARK                            x       y       z     vdW  Elec       q    Type
REMARK                         _______ _______ _______ _____ _____    ______ ____
ROOT
ATOM      1  C   LIG    1       -2.043   0.521   2.098  0.00  0.00    +0.230 C 
ATOM      2  C   LIG    1       -3.184  -0.269   2.741  0.00  0.00    +0.030 C 
ENDROOT
BRANCH   1   3
ATOM      3  N   LIG    1       -0.801  -0.251   2.191  0.00  0.00    -0.720 N 
ATOM      4  H   LIG    1       -0.522  -0.811   1.450  0.00  0.00    +0.390 HD
ATOM      5  C   LIG    1       -0.048  -0.184   3.306  0.00  0.00    +0.520 C 
ATOM      6  O   LIG    1       -0.397   0.516   4.233  0.00  0.00    -0.520 OA
BRANCH   5   7
ATOM      7  C   LIG    1        1.229  -0.979   3.402  0.00  0.00    +0.170 C 
BRANCH   7   8
ATOM      8  C   LIG    1        1.877  -0.730   4.739  0.00  0.00    +0.020 A 
ATOM      9  N   LIG    1        2.199   0.425   5.247  0.00  0.00    -0.330 NA
ATOM     10  O   LIG    1        2.704   0.306   6.339  0.00  0.00    +0.110 OA
ATOM     11  C   LIG    1        2.785  -0.980   6.707  0.00  0.00    +0.000 A 
ATOM     12  C   LIG    1        2.250  -1.703   5.694  0.00  0.00    -0.050 A 
BRANCH  11  13
ATOM     13  C   LIG    1        3.353  -1.516   7.996  0.00  0.00    +0.050 C 
ATOM     14  C   LIG    1        3.713  -0.502   9.085  0.00  0.00    +0.040 C 
ATOM     15  C   LIG    1        4.821  -1.210   8.302  0.00  0.00    +0.050 C 
ENDBRANCH  11  13
ENDBRANCH   7   8
ENDBRANCH   5   7
ENDBRANCH   1   3
BRANCH   1  16
ATOM     16  C   LIG    1       -2.370   0.786   0.627  0.00  0.00    +0.040 C 
BRANCH  16  17
ATOM     17  C   LIG    1       -1.290   1.681   0.017  0.00  0.00    +0.230 C 
ATOM     18  C   LIG    1       -1.680   2.047  -1.416  0.00  0.00    +0.030 C 
BRANCH  17  20
ATOM     19  C   LIG    1        1.147   1.655   0.000  0.00  0.00    +0.510 C 
ATOM     20  N   LIG    1       -0.011   0.966   0.007  0.00  0.00    -0.730 N 
ATOM     21  H   LIG    1        0.002  -0.004   0.002  0.00  0.00    +0.390 HD
ATOM     22  O   LIG    1        1.130   2.868   0.007  0.00  0.00    -0.510 OA
BRANCH  19  23
ATOM     23  C   LIG    1        2.462   0.920  -0.017  0.00  0.00    +0.190 C 
BRANCH  23  24
ATOM     24  N   LIG    1        3.565   1.890  -0.022  0.00  0.00    -0.520 NA
ATOM     25  C   LIG    1        3.605   2.649   1.235  0.00  0.00    +0.200 C 
BRANCH  24  27
ATOM     26  C   LIG    1        5.931   2.278  -0.521  0.00  0.00    +0.030 C 
ATOM     27  C   LIG    1        4.850   1.224  -0.276  0.00  0.00    +0.150 C 
ENDBRANCH  24  27
ENDBRANCH  23  24
ENDBRANCH  19  23
ENDBRANCH  17  20
ENDBRANCH  16  17
ENDBRANCH   1  16
TORSDOF 10
