REMARK  Name = ZINCpk00000FifBu.0
REMARK                            x       y       z     vdW  Elec       q    Type
REMARK                         _______ _______ _______ _____ _____    ______ ____
ROOT
ATOM      1  C   LIG    1       -6.913   3.458   0.055  0.00  0.00    +0.270 C 
ATOM      2  C   LIG    1       -7.394   2.714   1.303  0.00  0.00    +0.060 C 
ENDROOT
BRANCH   1   3
ATOM      3  C   LIG    1       -5.407   3.506   0.048  0.00  0.00    +0.530 C 
ATOM      4  N   LIG    1       -4.697   2.361   0.038  0.00  0.00    -0.620 N 
ATOM      5  H   LIG    1       -5.155   1.506   0.036  0.00  0.00    +0.440 HD
ATOM      6  O   LIG    1       -4.835   4.575   0.050  0.00  0.00    -0.510 OA
BRANCH   4   7
ATOM      7  C   LIG    1       -3.313   2.405   0.031  0.00  0.00    +0.500 A 
ATOM      8  N   LIG    1       -2.528   1.358   0.022  0.00  0.00    -0.510 NA
ATOM      9  C   LIG    1       -1.230   1.760   0.017  0.00  0.00    +0.070 A 
ATOM     10  C   LIG    1       -0.013   1.076   0.008  0.00  0.00    +0.060 A 
ATOM     11  C   LIG    1        1.169   1.783   0.001  0.00  0.00    +0.010 A 
ATOM     12  C   LIG    1        1.160   3.170   0.007  0.00  0.00    +0.030 A 
ATOM     13  C   LIG    1       -0.034   3.861   0.021  0.00  0.00    +0.010 A 
ATOM     14  C   LIG    1       -1.234   3.165   0.029  0.00  0.00    +0.050 A 
ATOM     15  N   LIG    1       -2.565   3.546   0.043  0.00  0.00    -0.590 N 
ATOM     16  H   LIG    1       -2.903   4.455   0.051  0.00  0.00    +0.430 HD
ENDBRANCH   4   7
ENDBRANCH   1   3
BRANCH   1  17
ATOM     17  N   LIG    1       -7.445   4.823   0.065  0.00  0.00    -1.100 NA
ATOM     18  H   LIG    1       -6.978   5.522   0.548  0.00  0.00    +0.430 HD
BRANCH  17  19
ATOM     19  S   LIG    1       -8.845   5.172  -0.749  0.00  0.00    +2.730 S 
ATOM     20  O   LIG    1       -8.704   4.613  -2.047  0.00  0.00    -0.940 OA
ATOM     21  O   LIG    1       -9.109   6.550  -0.520  0.00  0.00    -0.940 OA
BRANCH  19  28
ATOM     22  C   LIG    1      -10.087   2.054  -1.326  0.00  0.00    +0.180 C 
ATOM     23  C   LIG    1      -10.608   2.978  -0.255  0.00  0.00    +0.110 A 
ATOM     24  N   LIG    1      -11.575   2.734   0.582  0.00  0.00    -0.360 NA
ATOM     25  O   LIG    1      -11.770   3.671   1.322  0.00  0.00    +0.100 OA
ATOM     26  C   LIG    1      -10.930   4.684   1.065  0.00  0.00    +0.120 A 
ATOM     27  C   LIG    1      -10.874   6.011   1.777  0.00  0.00    +0.220 C 
ATOM     28  C   LIG    1      -10.143   4.279   0.040  0.00  0.00    -0.810 A 
ENDBRANCH  19  28
ENDBRANCH  17  19
ENDBRANCH   1  17
TORSDOF 5
