REMARK  Name = ZINCpe00000z4FVn.0
REMARK                            x       y       z     vdW  Elec       q    Type
REMARK                         _______ _______ _______ _____ _____    ______ ____
ROOT
ATOM      1  C   LIG    1       -1.866   1.826   1.052  0.00  0.00    +0.250 C 
ATOM      2  C   LIG    1       -0.370   2.046   1.409  0.00  0.00    +0.050 C 
ATOM      3  C   LIG    1        0.335   1.412   0.184  0.00  0.00    +0.260 C 
ATOM      4  N   LIG    1       -0.520   1.755  -0.966  0.00  0.00    -0.620 N 
ATOM      5  C   LIG    1       -0.117   1.831  -2.250  0.00  0.00    +0.590 C 
ATOM      6  O   LIG    1       -0.929   2.039  -3.131  0.00  0.00    -0.500 OA
ATOM      7  C   LIG    1       -1.886   2.002  -0.481  0.00  0.00    +0.250 C 
ENDROOT
BRANCH   5   8
ATOM      8  C   LIG    1        1.308   1.663  -2.586  0.00  0.00    -0.150 A 
ATOM      9  C   LIG    1        2.086   0.701  -1.932  0.00  0.00    +0.100 A 
ATOM     10  C   LIG    1        3.417   0.578  -2.288  0.00  0.00    -0.030 A 
ATOM     11  C   LIG    1        3.941   1.409  -3.262  0.00  0.00    +0.290 A 
ATOM     12  N   LIG    1        3.194   2.314  -3.863  0.00  0.00    -0.510 NA
ATOM     13  C   LIG    1        1.913   2.470  -3.565  0.00  0.00    +0.340 A 
BRANCH  13  14
ATOM     14  N   LIG    1        1.167   3.431  -4.221  0.00  0.00    -0.490 N 
ATOM     15  C   LIG    1        1.047   3.119  -5.652  0.00  0.00    +0.230 C 
ATOM     16  C   LIG    1        1.738   4.769  -4.020  0.00  0.00    +0.210 C 
ENDBRANCH  13  14
ENDBRANCH   5   8
BRANCH   1  18
ATOM     17  C   LIG    1       -4.026   2.609   1.864  0.00  0.00    +0.610 C 
ATOM     18  N   LIG    1       -2.708   2.835   1.700  0.00  0.00    -0.710 N 
ATOM     19  H   LIG    1       -2.315   3.666   2.012  0.00  0.00    +0.410 HD
ATOM     20  O   LIG    1       -4.518   1.568   1.473  0.00  0.00    -0.520 OA
BRANCH  17  27
ATOM     21  C   LIG    1       -7.181   2.394   2.393  0.00  0.00    +0.130 C 
ATOM     22  C   LIG    1       -6.267   3.537   2.753  0.00  0.00    -0.140 A 
ATOM     23  C   LIG    1       -6.604   4.692   3.373  0.00  0.00    +0.170 A 
ATOM     24  N   LIG    1       -5.477   5.427   3.489  0.00  0.00    -0.380 N 
ATOM     25  H   LIG    1       -5.428   6.308   3.894  0.00  0.00    +0.450 HD
ATOM     26  N   LIG    1       -4.479   4.793   2.986  0.00  0.00    -0.260 NA
ATOM     27  C   LIG    1       -4.874   3.627   2.517  0.00  0.00    -0.020 A 
ENDBRANCH  17  27
ENDBRANCH   1  18
TORSDOF 4
