REMARK  Name = ZINCrH000004tzPD.0
REMARK                            x       y       z     vdW  Elec       q    Type
REMARK                         _______ _______ _______ _____ _____    ______ ____
ROOT
ATOM      1  C   LIG    1        9.693   0.283  -0.087  0.00  0.00    -0.180 A 
ATOM      2  C   LIG    1       10.211   0.749  -1.288  0.00  0.00    +0.130 A 
ATOM      3  C   LIG    1       11.244   1.670  -1.248  0.00  0.00    -0.040 A 
ATOM      4  C   LIG    1       11.732   2.084  -0.015  0.00  0.00    +0.370 A 
ATOM      5  N   LIG    1       11.216   1.612   1.109  0.00  0.00    -0.500 NA
ATOM      6  C   LIG    1       10.227   0.739   1.102  0.00  0.00    +0.330 A 
ENDROOT
BRANCH   4   7
ATOM      7  N   LIG    1       12.779   3.008   0.040  0.00  0.00    -0.440 N 
ATOM      8  C   LIG    1       13.413   3.575  -1.026  0.00  0.00    +0.490 A 
ATOM      9  N   LIG    1       14.336   4.393  -0.612  0.00  0.00    -0.470 NA
ATOM     10  C   LIG    1       14.366   4.401   0.747  0.00  0.00    +0.040 A 
ATOM     11  C   LIG    1       15.146   5.077   1.688  0.00  0.00    +0.060 A 
ATOM     12  C   LIG    1       14.930   4.869   3.031  0.00  0.00    +0.010 A 
ATOM     13  C   LIG    1       13.943   3.991   3.458  0.00  0.00    +0.030 A 
ATOM     14  C   LIG    1       13.165   3.316   2.542  0.00  0.00    +0.050 A 
ATOM     15  C   LIG    1       13.368   3.513   1.185  0.00  0.00    +0.060 A 
ENDBRANCH   4   7
BRANCH   1  16
ATOM     16  C   LIG    1        8.564  -0.716  -0.082  0.00  0.00    +0.330 C 
BRANCH  16  19
ATOM     17  O   LIG    1        6.148  -1.914  -0.065  0.00  0.00    -0.540 OA
ATOM     18  C   LIG    1        6.128  -0.697  -0.059  0.00  0.00    +0.550 C 
ATOM     19  N   LIG    1        7.284  -0.004  -0.066  0.00  0.00    -0.730 N 
ATOM     20  H   LIG    1        7.267   0.966  -0.061  0.00  0.00    +0.400 HD
BRANCH  18  21
ATOM     21  C   LIG    1        4.848   0.013  -0.044  0.00  0.00    -0.090 C 
ATOM     22  C   LIG    1        3.692  -0.680  -0.036  0.00  0.00    +0.130 C 
BRANCH  22  23
ATOM     23  C   LIG    1        2.405   0.035  -0.021  0.00  0.00    -0.080 A 
ATOM     24  C   LIG    1        1.203  -0.681  -0.013  0.00  0.00    +0.040 A 
ATOM     25  C   LIG    1        0.002  -0.004   0.002  0.00  0.00    +0.010 A 
ATOM     26  C   LIG    1       -0.017   1.380   0.010  0.00  0.00    +0.020 A 
ATOM     27  C   LIG    1        1.168   2.095   0.002  0.00  0.00    +0.010 A 
ATOM     28  C   LIG    1        2.377   1.433  -0.013  0.00  0.00    +0.030 A 
ENDBRANCH  22  23
ENDBRANCH  18  21
ENDBRANCH  16  19
ENDBRANCH   1  16
TORSDOF 5
