REMARK  Name = ZINCkj000005l173.0
REMARK                            x       y       z     vdW  Elec       q    Type
REMARK                         _______ _______ _______ _____ _____    ______ ____
ROOT
ATOM      1  N   LIG    1       -1.372   3.969   0.057  0.00  0.00    -0.440 N 
ATOM      2  C   LIG    1       -0.500   3.491  -1.025  0.00  0.00    +0.220 C 
ATOM      3  C   LIG    1       -0.483   1.961  -1.025  0.00  0.00    +0.300 C 
ATOM      4  N   LIG    1        0.007   1.477   0.273  0.00  0.00    -0.390 N 
ATOM      5  C   LIG    1       -0.888   1.942   1.340  0.00  0.00    +0.290 C 
ATOM      6  H   LIG    1        0.937   1.834   0.435  0.00  0.00    +0.420 HD
ATOM      7  C   LIG    1       -0.908   3.471   1.360  0.00  0.00    +0.220 C 
ENDROOT
BRANCH   1  13
ATOM      8  C   LIG    1        0.997   5.902   0.377  0.00  0.00    +0.350 C 
ATOM      9  N   LIG    1       -0.416   6.243   0.195  0.00  0.00    -0.480 N 
ATOM     10  C   LIG    1       -0.944   7.497   0.131  0.00  0.00    +0.490 A 
ATOM     11  N   LIG    1       -2.234   7.400  -0.031  0.00  0.00    -0.430 NA
ATOM     12  C   LIG    1       -2.580   6.104  -0.082  0.00  0.00    +0.100 A 
ATOM     13  C   LIG    1       -1.456   5.362   0.054  0.00  0.00    +0.210 A 
BRANCH  12  14
ATOM     14  N   LIG    1       -3.953   5.577  -0.257  0.00  0.00    +0.060 N 
ATOM     15  O   LIG    1       -4.878   6.343  -0.463  0.00  0.00    -0.130 OA
ATOM     16  O   LIG    1       -4.158   4.378  -0.195  0.00  0.00    -0.130 OA
ENDBRANCH  12  14
ENDBRANCH   1  13
BRANCH   4  17
ATOM     17  C   LIG    1        0.041   0.008   0.266  0.00  0.00    +0.170 C 
ATOM     18  C   LIG    1        0.604  -0.513   1.604  0.00  0.00    +0.040 C 
ATOM     19  C   LIG    1        1.450  -1.748   1.204  0.00  0.00    +0.060 C 
ATOM     20  C   LIG    1        2.098  -1.301  -0.131  0.00  0.00    +0.040 C 
ATOM     21  C   LIG    1        0.990  -0.492  -0.837  0.00  0.00    +0.050 C 
ENDBRANCH   4  17
TORSDOF 3
