REMARK  Name = ZINCvU00000009n5.0
REMARK                            x       y       z     vdW  Elec       q    Type
REMARK                         _______ _______ _______ _____ _____    ______ ____
ROOT
ATOM      1  C   LIG    1       -0.015   1.765   0.144  0.00  0.00    +0.150 A 
ATOM      2  N   LIG    1       -1.085   2.528   0.136  0.00  0.00    -0.290 NA
ATOM      3  N   LIG    1       -0.750   3.758  -0.024  0.00  0.00    -0.260 NA
ATOM      4  C   LIG    1        0.554   3.857  -0.138  0.00  0.00    +0.240 A 
ATOM      5  N   LIG    1        1.066   2.583  -0.034  0.00  0.00    -0.410 N 
ENDROOT
BRANCH   5   6
ATOM      6  C   LIG    1        2.416   2.203  -0.098  0.00  0.00    +0.070 A 
ATOM      7  C   LIG    1        2.878   1.462  -1.177  0.00  0.00    +0.090 A 
ATOM      8  C   LIG    1        4.206   1.089  -1.240  0.00  0.00    -0.030 A 
ATOM      9  C   LIG    1        5.079   1.453  -0.225  0.00  0.00    +0.160 A 
ATOM     10  C   LIG    1        4.617   2.195   0.854  0.00  0.00    -0.060 A 
ATOM     11 CL   LIG    1        5.709   2.652   2.123  0.00  0.00    -0.030 Cl
ATOM     12  C   LIG    1        3.290   2.573   0.915  0.00  0.00    +0.100 A 
BRANCH   9  13
ATOM     13  O   LIG    1        6.386   1.085  -0.288  0.00  0.00    -0.300 OA
ATOM     14  C   LIG    1        6.792   0.323  -1.427  0.00  0.00    +0.250 C 
ENDBRANCH   9  13
ENDBRANCH   5   6
BRANCH   4  15
ATOM     15  C   LIG    1        1.326   5.101  -0.341  0.00  0.00    -0.030 A 
ATOM     16  C   LIG    1        0.744   6.340  -0.068  0.00  0.00    +0.070 A 
ATOM     17  C   LIG    1        1.473   7.497  -0.253  0.00  0.00    +0.010 A 
ATOM     18  C   LIG    1        2.774   7.431  -0.719  0.00  0.00    +0.030 A 
ATOM     19  C   LIG    1        3.355   6.207  -0.997  0.00  0.00    +0.010 A 
ATOM     20  C   LIG    1        2.640   5.042  -0.810  0.00  0.00    +0.020 A 
ENDBRANCH   4  15
BRANCH   1  21
ATOM     21  S   LIG    1        0.019   0.014   0.339  0.00  0.00    +0.090 S 
BRANCH  21  22
ATOM     22  C   LIG    1       -1.752  -0.317   0.517  0.00  0.00    +0.110 C 
BRANCH  22  24
ATOM     23  N   LIG    1       -3.219  -2.279   0.855  0.00  0.00    -0.600 N 
ATOM     24  C   LIG    1       -1.970  -1.797   0.702  0.00  0.00    +0.540 C 
ATOM     25  O   LIG    1       -1.022  -2.553   0.712  0.00  0.00    -0.520 OA
BRANCH  23  26
ATOM     26  C   LIG    1       -4.364  -1.366   0.842  0.00  0.00    +0.270 C 
ATOM     27  C   LIG    1       -4.876  -1.210  -0.591  0.00  0.00    +0.020 C 
ENDBRANCH  23  26
BRANCH  23  28
ATOM     28  C   LIG    1       -3.431  -3.718   1.035  0.00  0.00    +0.330 C 
BRANCH  28  30
ATOM     29  C   LIG    1       -4.507  -4.119   3.190  0.00  0.00    +0.020 C 
ATOM     30  C   LIG    1       -3.393  -4.052   2.504  0.00  0.00    -0.140 C 
ATOM     31  C   LIG    1       -2.072  -4.308   3.184  0.00  0.00    +0.080 C 
ENDBRANCH  28  30
ENDBRANCH  23  28
ENDBRANCH  22  24
ENDBRANCH  21  22
ENDBRANCH   1  21
TORSDOF 9
