REMARK  Name = ZINCkj000005ksSb.0
REMARK                            x       y       z     vdW  Elec       q    Type
REMARK                         _______ _______ _______ _____ _____    ______ ____
ROOT
ATOM      1  S   LIG    1       -0.045  -3.415   3.163  0.00  0.00    +2.680 S 
ATOM      2  O   LIG    1        0.062  -4.828   3.064  0.00  0.00    -0.930 OA
ATOM      3  O   LIG    1       -1.024  -2.763   3.961  0.00  0.00    -0.940 OA
ENDROOT
BRANCH   1   9
ATOM      4  C   LIG    1       -0.659   0.501  -0.286  0.00  0.00    +0.110 C 
ATOM      5  C   LIG    1       -0.543  -0.978  -0.021  0.00  0.00    -0.050 A 
ATOM      6  C   LIG    1       -0.613  -1.875  -1.066  0.00  0.00    +0.090 A 
ATOM      7  C   LIG    1       -0.500  -3.233  -0.825  0.00  0.00    +0.050 A 
ATOM      8  C   LIG    1       -0.329  -3.702   0.465  0.00  0.00    +0.130 A 
ATOM      9  C   LIG    1       -0.264  -2.816   1.521  0.00  0.00    -0.640 A 
ATOM     10  C   LIG    1       -0.370  -1.444   1.284  0.00  0.00    +0.060 A 
BRANCH  10  11
ATOM     11  C   LIG    1       -0.303  -0.519   2.375  0.00  0.00    +0.220 C 
ATOM     12  N   LIG    1       -0.249   0.215   3.240  0.00  0.00    -0.360 NA
ENDBRANCH  10  11
ENDBRANCH   1   9
BRANCH   1  13
ATOM     13  N   LIG    1        1.427  -2.870   3.692  0.00  0.00    -1.000 NA
ATOM     14  C   LIG    1        1.519  -1.700   4.575  0.00  0.00    +0.330 C 
ATOM     15  C   LIG    1        2.484  -0.686   3.952  0.00  0.00    +0.040 C 
ATOM     16  C   LIG    1        3.825  -1.369   3.672  0.00  0.00    +0.180 C 
ATOM     17  C   LIG    1        3.618  -2.514   2.677  0.00  0.00    +0.040 C 
ATOM     18  C   LIG    1        2.665  -3.552   3.291  0.00  0.00    +0.260 C 
ATOM     19  C   LIG    1        2.344  -4.631   2.255  0.00  0.00    +0.060 C 
BRANCH  16  20
ATOM     20  N   LIG    1        4.763  -0.392   3.105  0.00  0.00    -0.640 N 
ATOM     21  H   LIG    1        4.386  -0.024   2.244  0.00  0.00    +0.430 HD
ATOM     22  H   LIG    1        5.647  -0.842   2.920  0.00  0.00    +0.440 HD
ATOM     23  H   LIG    1        4.900   0.362   3.761  0.00  0.00    +0.440 HD
ENDBRANCH  16  20
ENDBRANCH   1  13
TORSDOF 4
