REMARK  Name = ZINCpe000000TMX5.0
REMARK                            x       y       z     vdW  Elec       q    Type
REMARK                         _______ _______ _______ _____ _____    ______ ____
ROOT
ATOM      1  S   LIG    1        3.500   0.430  -1.293  0.00  0.00    +2.710 S 
ATOM      2  O   LIG    1        4.136   0.715  -0.054  0.00  0.00    -0.920 OA
ATOM      3  O   LIG    1        4.097   0.701  -2.553  0.00  0.00    -0.920 OA
ENDROOT
BRANCH   1  10
ATOM      4  C   LIG    1        2.937  -2.111  -2.413  0.00  0.00    -0.200 A 
ATOM      5  C   LIG    1        2.670  -3.386  -1.956  0.00  0.00    +0.140 A 
ATOM      6  N   LIG    1        2.699  -3.346  -0.614  0.00  0.00    -0.440 N 
ATOM      7  H   LIG    1        2.546  -4.098  -0.021  0.00  0.00    +0.450 HD
ATOM      8  N   LIG    1        2.990  -2.037  -0.215  0.00  0.00    -0.170 NA
ATOM      9  C   LIG    1        2.398  -4.600  -2.806  0.00  0.00    +0.180 C 
ATOM     10  C   LIG    1        3.130  -1.292  -1.277  0.00  0.00    -0.440 A 
BRANCH   4  11
ATOM     11  C   LIG    1        3.009  -1.684  -3.821  0.00  0.00    +0.540 C 
ATOM     12  O   LIG    1        4.067  -1.729  -4.417  0.00  0.00    -0.470 OA
BRANCH  11  13
ATOM     13  O   LIG    1        1.901  -1.243  -4.449  0.00  0.00    -0.350 OA
BRANCH  13  15
ATOM     14  C   LIG    1        0.692  -0.372  -6.375  0.00  0.00    +0.070 C 
ATOM     15  C   LIG    1        2.045  -0.839  -5.836  0.00  0.00    +0.210 C 
ENDBRANCH  13  15
ENDBRANCH  11  13
ENDBRANCH   4  11
ENDBRANCH   1  10
BRANCH   1  16
ATOM     16  N   LIG    1        2.057   1.242  -1.275  0.00  0.00    -0.990 NA
ATOM     17  C   LIG    1        1.385   1.603  -2.531  0.00  0.00    +0.290 C 
ATOM     18  C   LIG    1       -0.051   1.072  -2.492  0.00  0.00    +0.040 C 
ATOM     19  C   LIG    1       -0.749   1.593  -1.234  0.00  0.00    +0.040 C 
ATOM     20  C   LIG    1       -0.013   1.086   0.008  0.00  0.00    +0.010 C 
ATOM     21  C   LIG    1        1.424   1.617  -0.003  0.00  0.00    +0.330 C 
BRANCH  20  22
ATOM     22  C   LIG    1       -0.719   1.573   1.247  0.00  0.00    +0.470 C 
ATOM     23  O   LIG    1       -0.135   2.271   2.041  0.00  0.00    -0.500 OA
BRANCH  22  24
ATOM     24  O   LIG    1       -1.998   1.230   1.468  0.00  0.00    -0.360 OA
BRANCH  24  25
ATOM     25  C   LIG    1       -2.615   1.735   2.682  0.00  0.00    +0.200 C 
ATOM     26  C   LIG    1       -4.062   1.244   2.761  0.00  0.00    +0.070 C 
ENDBRANCH  24  25
ENDBRANCH  22  24
ENDBRANCH  20  22
ENDBRANCH   1  16
TORSDOF 8
