REMARK  Name = ZINCrH000004omlP.0
REMARK                            x       y       z     vdW  Elec       q    Type
REMARK                         _______ _______ _______ _____ _____    ______ ____
ROOT
ATOM      1  C   LIG    1        6.646  -0.026   2.279  0.00  0.00    -0.150 A 
ATOM      2  C   LIG    1        6.499   1.335   2.551  0.00  0.00    +0.100 A 
ATOM      3  C   LIG    1        7.396   1.969   3.386  0.00  0.00    +0.000 A 
ATOM      4  C   LIG    1        8.445   1.261   3.945  0.00  0.00    +0.150 A 
ATOM      5  C   LIG    1        8.599  -0.087   3.675  0.00  0.00    -0.690 A 
ATOM      6  C   LIG    1        7.707  -0.735   2.847  0.00  0.00    +0.190 A 
ENDROOT
BRANCH   1   9
ATOM      7  N   LIG    1        4.663  -0.026   0.843  0.00  0.00    -0.720 N 
ATOM      8  H   LIG    1        4.556   0.919   1.034  0.00  0.00    +0.400 HD
ATOM      9  C   LIG    1        5.686  -0.713   1.390  0.00  0.00    +0.560 C 
ATOM     10  O   LIG    1        5.819  -1.897   1.151  0.00  0.00    -0.530 OA
BRANCH   7  12
ATOM     11  C   LIG    1        4.264  -0.731  -1.464  0.00  0.00    +0.040 C 
ATOM     12  C   LIG    1        3.711  -0.707  -0.038  0.00  0.00    +0.280 C 
BRANCH  12  13
ATOM     13  C   LIG    1        2.396   0.029  -0.022  0.00  0.00    -0.090 A 
ATOM     14  C   LIG    1        1.208  -0.679  -0.013  0.00  0.00    +0.020 A 
ATOM     15  C   LIG    1        0.002  -0.004   0.002  0.00  0.00    +0.020 A 
ATOM     16  C   LIG    1       -0.017   1.378   0.010  0.00  0.00    +0.000 A 
ATOM     17  C   LIG    1        1.171   2.086   0.002  0.00  0.00    +0.010 A 
ATOM     18  C   LIG    1        2.377   1.411  -0.015  0.00  0.00    +0.000 A 
ENDBRANCH  12  13
ENDBRANCH   7  12
ENDBRANCH   1   9
BRANCH   5  19
ATOM     19  S   LIG    1        9.938  -0.980   4.393  0.00  0.00    +2.680 S 
ATOM     20  O   LIG    1        9.546  -2.345   4.412  0.00  0.00    -0.940 OA
ATOM     21  O   LIG    1       10.319  -0.263   5.560  0.00  0.00    -0.950 OA
BRANCH  19  22
ATOM     22  N   LIG    1       11.215  -0.875   3.343  0.00  0.00    -0.990 NA
ATOM     23  C   LIG    1       11.360  -1.891   2.325  0.00  0.00    +0.280 C 
ATOM     24  C   LIG    1       12.205  -3.062   2.869  0.00  0.00    +0.010 C 
ATOM     25  C   LIG    1       13.612  -2.655   3.008  0.00  0.00    +0.000 C 
ATOM     26  C   LIG    1       13.843  -1.525   4.007  0.00  0.00    +0.010 C 
ATOM     27  C   LIG    1       13.624  -0.199   3.321  0.00  0.00    +0.020 C 
ATOM     28  C   LIG    1       12.161   0.249   3.489  0.00  0.00    +0.270 C 
ENDBRANCH  19  22
ENDBRANCH   5  19
TORSDOF 5
