REMARK  Name = ZINCnE000001TwPl.1
REMARK                            x       y       z     vdW  Elec       q    Type
REMARK                         _______ _______ _______ _____ _____    ______ ____
ROOT
ATOM      1  O   LIG    1        4.744   4.251  -5.723  0.00  0.00    -0.620 OA
ATOM      2  C   LIG    1        5.417   3.263  -5.944  0.00  0.00    +0.650 C 
ATOM      3  N   LIG    1        5.999   3.100  -7.149  0.00  0.00    -0.740 N 
ATOM      4  H   LIG    1        6.536   2.312  -7.326  0.00  0.00    +0.390 HD
ATOM      5  N   LIG    1        5.582   2.331  -4.985  0.00  0.00    -0.710 NA
ENDROOT
BRANCH   3   6
ATOM      6  C   LIG    1        5.820   4.113  -8.192  0.00  0.00    +0.250 C 
ATOM      7  C   LIG    1        6.007   3.465  -9.579  0.00  0.00    +0.000 C 
ATOM      8  C   LIG    1        5.454   4.293 -10.650  0.00  0.00    -0.010 C 
ATOM      9  C   LIG    1        6.144   5.668 -10.738  0.00  0.00    +0.200 C 
ATOM     10  O   LIG    1        5.612   6.504  -9.745  0.00  0.00    -0.390 OA
ATOM     11  C   LIG    1        6.337   6.571  -8.503  0.00  0.00    +0.210 C 
ATOM     12  C   LIG    1        6.845   5.203  -8.017  0.00  0.00    -0.020 C 
ENDBRANCH   3   6
BRANCH   5  13
ATOM     13  C   LIG    1        4.982   2.499  -3.743  0.00  0.00    +0.360 A 
ATOM     14  N   LIG    1        4.247   3.512  -3.404  0.00  0.00    -0.570 NA
ATOM     15  C   LIG    1        3.750   3.507  -2.181  0.00  0.00    +0.240 A 
ATOM     16  C   LIG    1        4.090   2.445  -1.448  0.00  0.00    -0.330 A 
ATOM     17  S   LIG    1        5.106   1.401  -2.438  0.00  0.00    +0.010 S 
BRANCH  16  18
ATOM     18  C   LIG    1        3.672   2.182  -0.024  0.00  0.00    +0.160 C 
BRANCH  18  19
ATOM     19  C   LIG    1        2.377   1.411  -0.015  0.00  0.00    -0.060 A 
ATOM     20  C   LIG    1        1.171   2.086   0.002  0.00  0.00    +0.000 A 
ATOM     21  C   LIG    1       -0.017   1.378   0.010  0.00  0.00    +0.000 A 
ATOM     22  C   LIG    1        0.002  -0.004   0.002  0.00  0.00    -0.020 A 
ATOM     23  C   LIG    1        1.208  -0.679  -0.013  0.00  0.00    +0.000 A 
ATOM     24  C   LIG    1        2.396   0.029  -0.021  0.00  0.00    +0.010 A 
ENDBRANCH  18  19
ENDBRANCH  16  18
ENDBRANCH   5  13
TORSDOF 4
