REMARK  Name = ZINCtj00001yywFX.1
REMARK                            x       y       z     vdW  Elec       q    Type
REMARK                         _______ _______ _______ _____ _____    ______ ____
ROOT
ATOM      1  N   LIG    1       -2.255   1.191   3.501  0.00  0.00    -0.400 N 
ATOM      2  N   LIG    1       -3.350   1.698   2.783  0.00  0.00    -0.260 N 
ATOM      3  C   LIG    1       -4.423   1.040   2.614  0.00  0.00    +0.280 C 
ATOM      4  C   LIG    1       -4.662  -0.343   3.156  0.00  0.00    +0.330 C 
ATOM      5  N   LIG    1       -3.615  -0.683   4.119  0.00  0.00    -0.440 N 
ATOM      6  C   LIG    1       -3.527  -1.716   5.010  0.00  0.00    -0.120 A 
ATOM      7  C   LIG    1       -4.377  -2.793   5.329  0.00  0.00    +0.600 A 
ATOM      8  N   LIG    1       -3.944  -3.642   6.292  0.00  0.00    -0.540 N 
ATOM      9  C   LIG    1       -2.769  -3.483   6.920  0.00  0.00    +0.700 A 
ATOM     10  N   LIG    1       -1.917  -2.467   6.652  0.00  0.00    -0.510 N 
ATOM     11  C   LIG    1       -0.643  -2.332   7.363  0.00  0.00    +0.360 C 
ATOM     12  O   LIG    1       -2.455  -4.292   7.773  0.00  0.00    -0.510 OA
ATOM     13  O   LIG    1       -5.448  -2.952   4.769  0.00  0.00    -0.490 OA
ATOM     14  C   LIG    1       -2.299  -1.559   5.675  0.00  0.00    +0.360 A 
ATOM     15  N   LIG    1       -1.709  -0.480   5.186  0.00  0.00    -0.470 NA
ATOM     16  C   LIG    1       -6.025  -0.389   3.849  0.00  0.00    +0.130 C 
ATOM     17  C   LIG    1       -5.532   1.689   1.826  0.00  0.00    +0.250 C 
ATOM     18  H   LIG    1       -3.282   2.585   2.396  0.00  0.00    +0.470 HD
ATOM     19  C   LIG    1       -2.470   0.060   4.264  0.00  0.00    +0.490 A 
ENDROOT
BRANCH   1  20
ATOM     20  C   LIG    1       -0.941   1.838   3.449  0.00  0.00    +0.410 C 
BRANCH  20  21
ATOM     21  C   LIG    1       -0.122   1.236   2.306  0.00  0.00    +0.190 C 
BRANCH  21  23
ATOM     22  C   LIG    1       -0.056   1.025  -0.081  0.00  0.00    +0.220 C 
ATOM     23  O   LIG    1       -0.746   1.545   1.058  0.00  0.00    -0.410 OA
ENDBRANCH  21  23
ENDBRANCH  20  21
ENDBRANCH   1  20
BRANCH   8  24
ATOM     24  C   LIG    1       -4.791  -4.779   6.662  0.00  0.00    +0.380 C 
BRANCH  24  25
ATOM     25  C   LIG    1       -5.718  -4.372   7.778  0.00  0.00    -0.130 A 
ATOM     26  C   LIG    1       -5.330  -4.538   9.094  0.00  0.00    +0.040 A 
ATOM     27  C   LIG    1       -6.178  -4.161  10.118  0.00  0.00    +0.010 A 
ATOM     28  C   LIG    1       -7.420  -3.627   9.826  0.00  0.00    +0.030 A 
ATOM     29  C   LIG    1       -7.810  -3.466   8.510  0.00  0.00    -0.010 A 
ATOM     30  C   LIG    1       -6.960  -3.839   7.486  0.00  0.00    +0.040 A 
ENDBRANCH  24  25
ENDBRANCH   8  24
TORSDOF 5
