REMARK  Name = ZINCb80000002EDy.0
REMARK                            x       y       z     vdW  Elec       q    Type
REMARK                         _______ _______ _______ _____ _____    ______ ____
ROOT
ATOM      1  C   LIG    1       -0.995   3.236  -0.620  0.00  0.00    +0.180 C 
ATOM      2  C   LIG    1       -0.290   3.223   0.774  0.00  0.00    +0.030 C 
ATOM      3  C   LIG    1        1.193   3.016   0.440  0.00  0.00    -0.050 C 
ATOM      4  C   LIG    1        1.352   1.785  -0.001  0.00  0.00    -0.010 C 
ATOM      5  C   LIG    1       -0.013   1.086   0.008  0.00  0.00    +0.070 C 
ATOM      6  C   LIG    1       -0.658   1.776   1.265  0.00  0.00    +0.050 C 
ATOM      7  C   LIG    1       -0.799   1.773  -1.153  0.00  0.00    -0.070 C 
ENDROOT
BRANCH   1   8
ATOM      8  N   LIG    1       -2.422   3.551  -0.473  0.00  0.00    -0.620 N 
ATOM      9  H   LIG    1       -2.862   2.855   0.110  0.00  0.00    +0.430 HD
ATOM     10  H   LIG    1       -2.861   3.555  -1.382  0.00  0.00    +0.440 HD
ATOM     11  H   LIG    1       -2.524   4.460  -0.047  0.00  0.00    +0.420 HD
ENDBRANCH   1   8
BRANCH   7  12
ATOM     12  C   LIG    1       -2.125   1.090  -1.372  0.00  0.00    +0.480 C 
ATOM     13  O   LIG    1       -2.892   1.507  -2.224  0.00  0.00    -0.690 OA
ATOM     14  O   LIG    1       -2.430   0.121  -0.698  0.00  0.00    -0.650 OA
ENDBRANCH   7  12
TORSDOF 2
