REMARK  Name = ZINCrH00000tj1hb.1
REMARK                            x       y       z     vdW  Elec       q    Type
REMARK                         _______ _______ _______ _____ _____    ______ ____
ROOT
ATOM      1  C   LIG    1        5.183  -3.140  -4.469  0.00  0.00    +0.510 C 
ATOM      2  N   LIG    1        4.597  -2.054  -3.927  0.00  0.00    -0.610 N 
ATOM      3  C   LIG    1        5.376  -1.094  -3.130  0.00  0.00    +0.300 C 
ATOM      4  C   LIG    1        4.655  -0.868  -1.797  0.00  0.00    +0.170 C 
ATOM      5  N   LIG    1        3.264  -0.474  -2.058  0.00  0.00    -0.530 NA
ATOM      6  C   LIG    1        2.527  -1.544  -2.744  0.00  0.00    +0.170 C 
ATOM      7  C   LIG    1        3.161  -1.797  -4.116  0.00  0.00    +0.280 C 
ATOM      8  O   LIG    1        6.383  -3.290  -4.379  0.00  0.00    -0.520 OA
ENDROOT
BRANCH   1  10
ATOM      9  C   LIG    1        3.712  -5.113  -4.163  0.00  0.00    +0.060 C 
ATOM     10  C   LIG    1        4.346  -4.168  -5.186  0.00  0.00    +0.140 C 
BRANCH  10  11
ATOM     11  N   LIG    1        5.198  -4.939  -6.102  0.00  0.00    -0.660 NA
ATOM     12  H   LIG    1        5.957  -4.373  -6.452  0.00  0.00    +0.350 HD
BRANCH  11  13
ATOM     13  C   LIG    1        4.409  -5.501  -7.206  0.00  0.00    +0.220 C 
ATOM     14  C   LIG    1        4.269  -4.458  -8.317  0.00  0.00    +0.010 C 
BRANCH  13  15
ATOM     15  C   LIG    1        5.104  -6.723  -7.748  0.00  0.00    -0.060 A 
ATOM     16  C   LIG    1        6.451  -6.915  -7.510  0.00  0.00    +0.060 A 
ATOM     17  C   LIG    1        7.089  -8.036  -8.007  0.00  0.00    +0.010 A 
ATOM     18  C   LIG    1        6.380  -8.966  -8.744  0.00  0.00    +0.020 A 
ATOM     19  C   LIG    1        5.032  -8.775  -8.984  0.00  0.00    +0.020 A 
ATOM     20  C   LIG    1        4.391  -7.657  -8.481  0.00  0.00    -0.030 A 
ATOM     21 CL   LIG    1        2.697  -7.421  -8.774  0.00  0.00    -0.070 Cl
ENDBRANCH  13  15
ENDBRANCH  11  13
ENDBRANCH  10  11
ENDBRANCH   1  10
BRANCH   5  22
ATOM     22  C   LIG    1        2.586  -0.083  -0.815  0.00  0.00    +0.220 C 
BRANCH  22  23
ATOM     23  C   LIG    1        1.255   0.543  -1.144  0.00  0.00    -0.080 A 
ATOM     24  C   LIG    1        0.125  -0.246  -1.239  0.00  0.00    +0.000 A 
ATOM     25  C   LIG    1       -1.096   0.328  -1.540  0.00  0.00    +0.000 A 
ATOM     26  C   LIG    1       -1.187   1.692  -1.745  0.00  0.00    +0.000 A 
ATOM     27  C   LIG    1       -0.056   2.482  -1.650  0.00  0.00    +0.000 A 
ATOM     28  C   LIG    1        1.165   1.907  -1.350  0.00  0.00    +0.020 A 
ENDBRANCH  22  23
ENDBRANCH   5  22
TORSDOF 6
