REMARK  Name = ZINCrD000000C9ti.0
REMARK                            x       y       z     vdW  Elec       q    Type
REMARK                         _______ _______ _______ _____ _____    ______ ____
ROOT
ATOM      1  O   LIG    1        5.663  -0.627   2.591  0.00  0.00    -0.490 OA
ATOM      2  C   LIG    1        5.800   0.271   1.783  0.00  0.00    +0.600 C 
ATOM      3  N   LIG    1        6.946   0.979   1.749  0.00  0.00    -0.640 N 
ATOM      4  H   LIG    1        7.088   1.638   1.052  0.00  0.00    +0.420 HD
ENDROOT
BRANCH   3   5
ATOM      5  C   LIG    1        7.924   0.766   2.715  0.00  0.00    +0.190 A 
ATOM      6  C   LIG    1        7.577   0.254   3.959  0.00  0.00    +0.020 A 
ATOM      7  C   LIG    1        8.551   0.038   4.913  0.00  0.00    +0.060 A 
ATOM      8  C   LIG    1        9.876   0.339   4.645  0.00  0.00    -0.010 A 
ATOM      9  C   LIG    1       10.238   0.853   3.418  0.00  0.00    +0.060 A 
ATOM     10  C   LIG    1        9.266   1.071   2.440  0.00  0.00    -0.160 A 
BRANCH  10  11
ATOM     11  C   LIG    1        9.647   1.621   1.125  0.00  0.00    +0.570 C 
ATOM     12  N   LIG    1       10.342   2.773   1.051  0.00  0.00    -0.610 N 
ATOM     13  C   LIG    1       10.686   3.640   2.188  0.00  0.00    +0.240 C 
ATOM     14  C   LIG    1       11.459   4.850   1.623  0.00  0.00    +0.040 C 
ATOM     15  C   LIG    1       11.008   4.886   0.139  0.00  0.00    +0.040 C 
ATOM     16  C   LIG    1       10.877   3.377  -0.183  0.00  0.00    +0.250 C 
ATOM     17  O   LIG    1        9.334   1.033   0.107  0.00  0.00    -0.530 OA
ENDBRANCH  10  11
ENDBRANCH   3   5
BRANCH   2  18
ATOM     18  C   LIG    1        4.710   0.585   0.839  0.00  0.00    +0.050 C 
ATOM     19  N   LIG    1        4.733   1.509  -0.061  0.00  0.00    -0.230 NA
ATOM     20  O   LIG    1        3.537   1.575  -0.812  0.00  0.00    -0.170 OA
ATOM     21  C   LIG    1        2.830   0.334  -0.617  0.00  0.00    +0.200 C 
ATOM     22  C   LIG    1        3.371  -0.124   0.759  0.00  0.00    +0.110 C 
BRANCH  21  23
ATOM     23  C   LIG    1        1.342   0.562  -0.562  0.00  0.00    -0.100 A 
ATOM     24  C   LIG    1        0.475  -0.420  -1.004  0.00  0.00    +0.030 A 
ATOM     25  C   LIG    1       -0.890  -0.208  -0.959  0.00  0.00    +0.010 A 
ATOM     26  C   LIG    1       -1.389   0.982  -0.462  0.00  0.00    +0.020 A 
ATOM     27  C   LIG    1       -0.522   1.964  -0.021  0.00  0.00    +0.010 A 
ATOM     28  C   LIG    1        0.843   1.754  -0.071  0.00  0.00    +0.030 A 
ENDBRANCH  21  23
ENDBRANCH   2  18
TORSDOF 4
