REMARK  Name = ZINCpe000000SRLf.0
REMARK                            x       y       z     vdW  Elec       q    Type
REMARK                         _______ _______ _______ _____ _____    ______ ____
ROOT
ATOM      1  C   LIG    1       -3.483  -4.518  -1.564  0.00  0.00    +0.520 C 
ATOM      2  N   LIG    1       -2.294  -3.908  -1.388  0.00  0.00    -0.620 N 
ATOM      3  C   LIG    1       -1.061  -4.696  -1.255  0.00  0.00    +0.270 C 
ATOM      4  C   LIG    1       -0.366  -4.302   0.054  0.00  0.00    +0.290 C 
ATOM      5  N   LIG    1       -0.280  -2.836   0.117  0.00  0.00    -0.590 N 
ATOM      6  C   LIG    1       -1.513  -2.048  -0.011  0.00  0.00    +0.290 C 
ATOM      7  C   LIG    1        0.909  -2.226   0.293  0.00  0.00    +0.600 C 
ATOM      8  O   LIG    1        0.976  -1.012   0.290  0.00  0.00    -0.520 OA
ATOM      9  C   LIG    1       -2.208  -2.442  -1.325  0.00  0.00    +0.270 C 
ATOM     10  O   LIG    1       -3.550  -5.729  -1.554  0.00  0.00    -0.530 OA
ENDROOT
BRANCH   7  11
ATOM     11  C   LIG    1        2.130  -3.032   0.491  0.00  0.00    +0.060 A 
ATOM     12  N   LIG    1        2.045  -4.286   0.864  0.00  0.00    -0.190 NA
ATOM     13  N   LIG    1        3.052  -5.050   1.056  0.00  0.00    -0.370 N 
ATOM     14  C   LIG    1        4.331  -4.652   0.896  0.00  0.00    +0.520 A 
ATOM     15  C   LIG    1        4.585  -3.267   0.478  0.00  0.00    -0.140 A 
ATOM     16  C   LIG    1        5.866  -2.759   0.285  0.00  0.00    +0.090 A 
ATOM     17  C   LIG    1        6.020  -1.446  -0.107  0.00  0.00    +0.030 A 
ATOM     18  C   LIG    1        4.914  -0.631  -0.310  0.00  0.00    +0.050 A 
ATOM     19  C   LIG    1        3.636  -1.116  -0.124  0.00  0.00    +0.070 A 
ATOM     20  O   LIG    1        5.252  -5.423   1.093  0.00  0.00    -0.490 OA
ATOM     21  C   LIG    1        2.803  -6.431   1.479  0.00  0.00    +0.360 C 
ATOM     22  C   LIG    1        3.459  -2.437   0.271  0.00  0.00    -0.040 A 
ENDBRANCH   7  11
BRANCH   1  24
ATOM     23  C   LIG    1       -5.706  -4.467  -2.662  0.00  0.00    +0.060 C 
ATOM     24  C   LIG    1       -4.728  -3.695  -1.773  0.00  0.00    -0.030 C 
ATOM     25  C   LIG    1       -5.385  -3.410  -0.421  0.00  0.00    +0.050 C 
ENDBRANCH   1  24
TORSDOF 2
