REMARK  Name = ZINCpk00000Few2N.0
REMARK                            x       y       z     vdW  Elec       q    Type
REMARK                         _______ _______ _______ _____ _____    ______ ____
ROOT
ATOM      1  O   LIG    1       -2.633  -0.718   3.009  0.00  0.00    -0.510 OA
ATOM      2  C   LIG    1       -2.223   0.164   2.280  0.00  0.00    +0.640 C 
ATOM      3  N   LIG    1       -0.932   0.514   2.213  0.00  0.00    -0.720 N 
ATOM      4  H   LIG    1       -0.212   0.112   2.724  0.00  0.00    +0.440 HD
ATOM      5  C   LIG    1       -0.781   1.606   1.241  0.00  0.00    +0.220 C 
ATOM      6  C   LIG    1       -0.013   1.086   0.008  0.00  0.00    +0.290 C 
ATOM      7  N   LIG    1       -0.772   1.598  -1.156  0.00  0.00    -0.640 N 
ATOM      8  C   LIG    1       -2.192   1.447  -0.761  0.00  0.00    +0.280 C 
ATOM      9  C   LIG    1       -0.283   2.089  -2.311  0.00  0.00    +0.730 C 
ATOM     10  N   LIG    1       -1.126   2.515  -3.273  0.00  0.00    -0.740 N 
ATOM     11  H   LIG    1       -2.085   2.469  -3.133  0.00  0.00    +0.400 HD
ATOM     12  O   LIG    1        0.918   2.148  -2.487  0.00  0.00    -0.580 OA
ATOM     13  C   LIG    1       -2.229   1.845   0.730  0.00  0.00    +0.200 C 
ATOM     14  O   LIG    1       -3.035   0.880   1.464  0.00  0.00    -0.320 OA
ENDROOT
BRANCH  10  15
ATOM     15  C   LIG    1       -0.594   3.049  -4.529  0.00  0.00    +0.280 C 
BRANCH  15  16
ATOM     16  C   LIG    1       -1.753   3.458  -5.441  0.00  0.00    +0.110 C 
BRANCH  16  17
ATOM     17  C   LIG    1       -1.206   4.008  -6.733  0.00  0.00    -0.170 A 
ATOM     18  C   LIG    1       -0.990   5.300  -7.023  0.00  0.00    +0.260 A 
ATOM     19  N   LIG    1       -0.486   5.416  -8.290  0.00  0.00    -0.590 N 
ATOM     20  H   LIG    1       -0.251   6.252  -8.722  0.00  0.00    +0.420 HD
ATOM     21  C   LIG    1       -0.364   4.168  -8.861  0.00  0.00    +0.110 A 
ATOM     22  C   LIG    1        0.084   3.724 -10.101  0.00  0.00    +0.010 A 
ATOM     23  C   LIG    1        0.088   2.375 -10.389  0.00  0.00    +0.090 A 
ATOM     24  C   LIG    1       -0.352   1.449  -9.449  0.00  0.00    +0.050 A 
ATOM     25  C   LIG    1       -0.799   1.869  -8.215  0.00  0.00    +0.070 A 
ATOM     26  F   LIG    1       -0.340   0.131  -9.747  0.00  0.00    -0.130 F 
ATOM     27  F   LIG    1        0.524   1.950 -11.595  0.00  0.00    -0.130 F 
ATOM     28  C   LIG    1       -0.804   3.231  -7.909  0.00  0.00    -0.080 A 
ENDBRANCH  16  17
ENDBRANCH  15  16
ENDBRANCH  10  15
TORSDOF 3
