REMARK  Name = ZINCvU000000045X.0
REMARK                            x       y       z     vdW  Elec       q    Type
REMARK                         _______ _______ _______ _____ _____    ______ ____
ROOT
ATOM      1  C   LIG    1        9.050   3.457   0.852  0.00  0.00    +0.080 C 
ATOM      2  C   LIG    1        8.984   1.988   0.521  0.00  0.00    -0.120 A 
ATOM      3  C   LIG    1       10.148   1.248   0.435  0.00  0.00    +0.050 A 
ATOM      4  C   LIG    1       10.092  -0.099   0.132  0.00  0.00    +0.010 A 
ATOM      5  C   LIG    1        8.865  -0.714  -0.086  0.00  0.00    +0.170 A 
ATOM      6  C   LIG    1        7.695   0.026   0.006  0.00  0.00    +0.000 A 
ATOM      7  C   LIG    1        7.754   1.379   0.304  0.00  0.00    +0.160 A 
ENDROOT
BRANCH   5   8
ATOM      8  N   LIG    1        8.810  -2.078  -0.392  0.00  0.00    -0.680 N 
ATOM      9  H   LIG    1        8.078  -2.620  -0.059  0.00  0.00    +0.410 HD
ATOM     10  C   LIG    1        9.774  -2.639  -1.148  0.00  0.00    +0.710 C 
ATOM     11  N   LIG    1        9.673  -3.930  -1.520  0.00  0.00    -0.680 N 
ATOM     12  H   LIG    1        8.876  -4.437  -1.300  0.00  0.00    +0.410 HD
ATOM     13  O   LIG    1       10.735  -1.980  -1.495  0.00  0.00    -0.550 OA
BRANCH  11  14
ATOM     14  C   LIG    1       10.718  -4.540  -2.224  0.00  0.00    +0.160 A 
ATOM     15  C   LIG    1       11.447  -3.812  -3.155  0.00  0.00    +0.020 A 
ATOM     16  C   LIG    1       12.481  -4.415  -3.845  0.00  0.00    +0.030 A 
ATOM     17  C   LIG    1       12.784  -5.745  -3.616  0.00  0.00    -0.010 A 
ATOM     18  C   LIG    1       12.056  -6.473  -2.693  0.00  0.00    +0.030 A 
ATOM     19  C   LIG    1       11.024  -5.875  -1.996  0.00  0.00    -0.020 A 
ENDBRANCH  11  14
ENDBRANCH   5   8
BRANCH   7  20
ATOM     20  N   LIG    1        6.577   2.129   0.392  0.00  0.00    -0.660 N 
ATOM     21  H   LIG    1        6.542   2.911   0.965  0.00  0.00    +0.410 HD
ATOM     22  C   LIG    1        5.491   1.765  -0.318  0.00  0.00    +0.570 C 
ATOM     23  O   LIG    1        5.510   0.741  -0.976  0.00  0.00    -0.510 OA
BRANCH  22  24
ATOM     24  C   LIG    1        4.282   2.605  -0.298  0.00  0.00    -0.150 A 
ATOM     25  C   LIG    1        4.202   3.714   0.538  0.00  0.00    +0.120 A 
ATOM     26  C   LIG    1        3.064   4.505   0.556  0.00  0.00    -0.020 A 
ATOM     27  C   LIG    1        1.978   4.230  -0.241  0.00  0.00    +0.170 A 
ATOM     28  C   LIG    1        1.995   3.122  -1.108  0.00  0.00    -0.150 A 
ATOM     29  C   LIG    1        0.908   2.806  -1.937  0.00  0.00    +0.330 A 
ATOM     30  N   LIG    1        0.971   1.761  -2.729  0.00  0.00    -0.480 NA
ATOM     31  C   LIG    1        2.032   0.969  -2.789  0.00  0.00    +0.260 A 
ATOM     32  C   LIG    1        3.139   1.192  -2.023  0.00  0.00    +0.020 A 
ATOM     33  F   LIG    1        0.888   5.027  -0.192  0.00  0.00    -0.120 F 
ATOM     34  C   LIG    1        3.143   2.290  -1.153  0.00  0.00    +0.040 A 
ENDBRANCH  22  24
ENDBRANCH   7  20
TORSDOF 4
