REMARK  Name = ZINCvU00000009B2.0
REMARK                            x       y       z     vdW  Elec       q    Type
REMARK                         _______ _______ _______ _____ _____    ______ ____
ROOT
ATOM      1  N   LIG    1        0.115  -0.029  -0.017  0.00  0.00    -0.520 NA
ENDROOT
BRANCH   1   2
ATOM      2  C   LIG    1       -1.267  -0.501  -0.181  0.00  0.00    +0.230 C 
BRANCH   2   6
ATOM      3  C   LIG    1       -2.362  -0.298  -4.309  0.00  0.00    -0.140 A 
ATOM      4  C   LIG    1       -1.671  -1.408  -3.821  0.00  0.00    +0.080 A 
ATOM      5  C   LIG    1       -1.320  -1.467  -2.488  0.00  0.00    +0.030 A 
ATOM      6  C   LIG    1       -1.653  -0.429  -1.636  0.00  0.00    -0.050 A 
ATOM      7  C   LIG    1       -2.343   0.671  -2.112  0.00  0.00    +0.010 A 
ATOM      8  C   LIG    1       -2.695   0.745  -3.444  0.00  0.00    +0.030 A 
BRANCH   3  10
ATOM      9  O   LIG    1       -2.451  -1.139  -6.487  0.00  0.00    -0.530 OA
ATOM     10  C   LIG    1       -2.742  -0.229  -5.736  0.00  0.00    +0.560 C 
ATOM     11  N   LIG    1       -3.409   0.844  -6.205  0.00  0.00    -0.700 N 
ATOM     12  H   LIG    1       -3.641   1.571  -5.605  0.00  0.00    +0.400 HD
BRANCH  11  13
ATOM     13  C   LIG    1       -3.785   0.913  -7.619  0.00  0.00    +0.220 C 
ATOM     14  C   LIG    1       -3.570   2.244  -8.343  0.00  0.00    +0.010 C 
ATOM     15  C   LIG    1       -4.986   1.786  -7.989  0.00  0.00    +0.020 C 
ENDBRANCH  11  13
ENDBRANCH   3  10
ENDBRANCH   2   6
ENDBRANCH   1   2
BRANCH   1  16
ATOM     16  C   LIG    1        0.688  -0.506   1.249  0.00  0.00    +0.300 C 
BRANCH  16  17
ATOM     17  C   LIG    1        0.961  -1.985   1.151  0.00  0.00    -0.010 A 
ATOM     18  C   LIG    1        2.106  -2.547   0.724  0.00  0.00    -0.050 A 
ATOM     19  C   LIG    1        1.926  -3.948   0.796  0.00  0.00    -0.060 A 
ATOM     20  C   LIG    1        0.682  -4.158   1.262  0.00  0.00    +0.160 A 
ATOM     21  O   LIG    1        0.104  -2.965   1.481  0.00  0.00    -0.180 OA
ENDBRANCH  16  17
ENDBRANCH   1  16
BRANCH   1  22
ATOM     22  C   LIG    1        0.186   1.435  -0.108  0.00  0.00    +0.290 C 
BRANCH  22  23
ATOM     23  C   LIG    1        1.629   1.865  -0.183  0.00  0.00    +0.070 A 
ATOM     24  C   LIG    1        2.243   2.088  -1.348  0.00  0.00    -0.040 A 
ATOM     25  S   LIG    1        3.904   2.570  -1.013  0.00  0.00    +0.100 S 
ATOM     26  C   LIG    1        3.598   2.409   0.715  0.00  0.00    +0.140 A 
ATOM     27  N   LIG    1        2.362   2.037   0.895  0.00  0.00    -0.460 NA
BRANCH  26  28
ATOM     28  C   LIG    1        4.584   2.657   1.788  0.00  0.00    -0.050 A 
ATOM     29  C   LIG    1        4.290   2.518   3.096  0.00  0.00    +0.020 A 
ATOM     30  S   LIG    1        5.711   2.898   4.061  0.00  0.00    +0.140 S 
ATOM     31  C   LIG    1        6.649   3.233   2.612  0.00  0.00    -0.040 A 
ATOM     32  C   LIG    1        5.898   3.050   1.531  0.00  0.00    +0.020 A 
ENDBRANCH  26  28
ENDBRANCH  22  23
ENDBRANCH   1  22
TORSDOF 9
