REMARK  Name = ZINCrH000004rrhR.0
REMARK                            x       y       z     vdW  Elec       q    Type
REMARK                         _______ _______ _______ _____ _____    ______ ____
ROOT
ATOM      1  C   LIG    1        0.028   0.002  -0.509  0.00  0.00    -0.690 A 
ATOM      2  C   LIG    1        0.212  -0.715   0.660  0.00  0.00    +0.170 A 
ATOM      3  C   LIG    1        0.206  -2.098   0.639  0.00  0.00    -0.010 A 
ATOM      4  C   LIG    1        0.015  -2.772  -0.549  0.00  0.00    +0.040 A 
ATOM      5  C   LIG    1       -0.172  -2.055  -1.732  0.00  0.00    -0.160 A 
ATOM      6  C   LIG    1        0.007  -4.279  -0.570  0.00  0.00    +0.130 C 
ATOM      7  C   LIG    1       -0.170  -0.660  -1.703  0.00  0.00    +0.160 A 
ENDROOT
BRANCH   5   8
ATOM      8  C   LIG    1       -0.377  -2.771  -3.009  0.00  0.00    +0.570 C 
ATOM      9  N   LIG    1       -0.571  -2.076  -4.148  0.00  0.00    -0.670 N 
ATOM     10  H   LIG    1       -0.504  -1.108  -4.142  0.00  0.00    +0.410 HD
ATOM     11  O   LIG    1       -0.372  -3.986  -3.033  0.00  0.00    -0.510 OA
BRANCH   9  12
ATOM     12  C   LIG    1       -0.867  -2.750  -5.337  0.00  0.00    +0.090 A 
ATOM     13  C   LIG    1       -0.288  -3.986  -5.611  0.00  0.00    +0.070 A 
ATOM     14  C   LIG    1       -0.617  -4.618  -6.800  0.00  0.00    -0.010 A 
ATOM     15  C   LIG    1       -1.492  -3.999  -7.673  0.00  0.00    +0.240 A 
ATOM     16  N   LIG    1       -2.019  -2.825  -7.386  0.00  0.00    -0.460 NA
ATOM     17  C   LIG    1       -1.738  -2.193  -6.265  0.00  0.00    +0.240 A 
ENDBRANCH   9  12
ENDBRANCH   5   8
BRANCH   1  18
ATOM     18  S   LIG    1        0.038   1.763  -0.471  0.00  0.00    +2.690 S 
ATOM     19  O   LIG    1       -0.396   2.139   0.829  0.00  0.00    -0.940 OA
ATOM     20  O   LIG    1       -0.609   2.194  -1.660  0.00  0.00    -0.950 OA
BRANCH  18  21
ATOM     21  N   LIG    1        1.617   2.247  -0.595  0.00  0.00    -1.050 N 
ATOM     22  H   LIG    1        1.903   2.780  -1.354  0.00  0.00    +0.430 HD
BRANCH  21  27
ATOM     23  C   LIG    1        5.354   0.790   3.414  0.00  0.00    +0.090 C 
ATOM     24  C   LIG    1        4.361   1.178   2.348  0.00  0.00    -0.090 A 
ATOM     25  C   LIG    1        4.689   1.031   1.013  0.00  0.00    +0.030 A 
ATOM     26  C   LIG    1        3.781   1.385   0.034  0.00  0.00    +0.010 A 
ATOM     27  C   LIG    1        2.537   1.888   0.392  0.00  0.00    +0.130 A 
ATOM     28  C   LIG    1        2.212   2.039   1.734  0.00  0.00    +0.010 A 
ATOM     29  C   LIG    1        3.123   1.679   2.708  0.00  0.00    +0.030 A 
ENDBRANCH  21  27
ENDBRANCH  18  21
ENDBRANCH   1  18
TORSDOF 5
