REMARK  Name = ZINCqH0000038MdV.0
REMARK                            x       y       z     vdW  Elec       q    Type
REMARK                         _______ _______ _______ _____ _____    ______ ____
ROOT
ATOM      1  C   LIG    1        2.460  -3.988  -3.022  0.00  0.00    +0.370 A 
ATOM      2  C   LIG    1        2.266  -3.082  -4.059  0.00  0.00    -0.070 A 
ATOM      3  C   LIG    1        2.498  -3.485  -5.364  0.00  0.00    +0.100 A 
ATOM      4  C   LIG    1        2.908  -4.789  -5.592  0.00  0.00    -0.050 A 
ATOM      5  C   LIG    1        3.078  -5.647  -4.508  0.00  0.00    +0.200 A 
ATOM      6  N   LIG    1        2.852  -5.226  -3.270  0.00  0.00    -0.470 NA
ENDROOT
BRANCH   5   7
ATOM      7  C   LIG    1        3.517  -7.045  -4.740  0.00  0.00    -0.060 A 
ATOM      8  C   LIG    1        3.592  -7.925  -3.677  0.00  0.00    +0.100 A 
ATOM      9  C   LIG    1        4.003  -9.248  -3.903  0.00  0.00    -0.060 A 
ATOM     10  C   LIG    1        4.088 -10.173  -2.849  0.00  0.00    +0.030 A 
ATOM     11  C   LIG    1        4.496 -11.447  -3.101  0.00  0.00    +0.000 A 
ATOM     12  C   LIG    1        4.832 -11.849  -4.392  0.00  0.00    +0.010 A 
ATOM     13  C   LIG    1        4.762 -10.980  -5.438  0.00  0.00    +0.020 A 
ATOM     14  C   LIG    1        4.345  -9.657  -5.217  0.00  0.00    -0.040 A 
ATOM     15  C   LIG    1        4.263  -8.735  -6.277  0.00  0.00    +0.020 A 
ATOM     16  C   LIG    1        3.858  -7.461  -6.038  0.00  0.00    +0.030 A 
ENDBRANCH   5   7
BRANCH   1  18
ATOM     17  C   LIG    1        2.516  -4.425  -0.688  0.00  0.00    +0.510 C 
ATOM     18  N   LIG    1        2.233  -3.588  -1.706  0.00  0.00    -0.660 N 
ATOM     19  H   LIG    1        1.870  -2.707  -1.522  0.00  0.00    +0.420 HD
ATOM     20  O   LIG    1        2.881  -5.558  -0.919  0.00  0.00    -0.460 OA
BRANCH  17  21
ATOM     21  C   LIG    1        2.380  -3.953   0.736  0.00  0.00    +0.240 C 
BRANCH  21  26
ATOM     22  C   LIG    1        2.184  -7.981   3.751  0.00  0.00    +0.240 C 
ATOM     23  C   LIG    1        2.670  -6.793   2.962  0.00  0.00    +0.170 A 
ATOM     24  N   LIG    1        3.894  -6.349   2.912  0.00  0.00    -0.290 NA
ATOM     25  N   LIG    1        3.944  -5.320   2.142  0.00  0.00    -0.270 NA
ATOM     26  C   LIG    1        2.754  -5.072   1.674  0.00  0.00    +0.170 A 
ATOM     27  O   LIG    1        1.921  -5.996   2.182  0.00  0.00    -0.220 OA
ENDBRANCH  21  26
ENDBRANCH  17  21
ENDBRANCH   1  18
TORSDOF 4
