REMARK  Name = ZINCqH0000002Qu6.0
REMARK                            x       y       z     vdW  Elec       q    Type
REMARK                         _______ _______ _______ _____ _____    ______ ____
ROOT
ATOM      1  C   LIG    1        4.363   5.409  -0.281  0.00  0.00    +0.180 C 
ATOM      2  C   LIG    1        4.228   6.942  -0.393  0.00  0.00    +0.050 C 
ATOM      3  C   LIG    1        2.906   7.231   0.366  0.00  0.00    +0.040 C 
ATOM      4  C   LIG    1        2.058   5.987  -0.007  0.00  0.00    +0.250 C 
ATOM      5  N   LIG    1        3.019   4.870  -0.026  0.00  0.00    -0.600 N 
ATOM      6  C   LIG    1        2.716   3.569   0.154  0.00  0.00    +0.570 C 
ATOM      7  O   LIG    1        3.604   2.743   0.231  0.00  0.00    -0.480 OA
ENDROOT
BRANCH   6   8
ATOM      8  C   LIG    1        1.302   3.147   0.257  0.00  0.00    +0.000 A 
ATOM      9  C   LIG    1        0.961   1.821   0.602  0.00  0.00    -0.190 A 
ATOM     10  C   LIG    1        1.710   0.665   0.909  0.00  0.00    +0.290 A 
ATOM     11  N   LIG    1        0.884  -0.310   1.159  0.00  0.00    -0.240 NA
ATOM     12  N   LIG    1       -0.434   0.141   1.033  0.00  0.00    -0.380 N 
ATOM     13  C   LIG    1       -0.401   1.467   0.686  0.00  0.00    +0.310 A 
ATOM     14  N   LIG    1       -1.341   2.371   0.449  0.00  0.00    -0.490 NA
ATOM     15  C   LIG    1       -1.048   3.610   0.122  0.00  0.00    +0.190 A 
ATOM     16  C   LIG    1       -2.168   4.585  -0.139  0.00  0.00    +0.130 C 
ATOM     17  C   LIG    1        0.264   4.045   0.016  0.00  0.00    -0.040 A 
BRANCH  12  18
ATOM     18  C   LIG    1       -1.641  -0.663   1.238  0.00  0.00    +0.270 C 
ATOM     19  C   LIG    1       -1.659  -1.201   2.670  0.00  0.00    +0.050 C 
ATOM     20  C   LIG    1       -1.647  -1.834   0.253  0.00  0.00    +0.050 C 
ENDBRANCH  12  18
ENDBRANCH   6   8
BRANCH   1  21
ATOM     21  C   LIG    1        5.296   5.049   0.878  0.00  0.00    +0.040 C 
BRANCH  21  23
ATOM     22  C   LIG    1        5.546   5.050   3.364  0.00  0.00    +0.000 C 
ATOM     23  C   LIG    1        4.682   5.528   2.195  0.00  0.00    +0.000 C 
ENDBRANCH  21  23
ENDBRANCH   1  21
BRANCH   1  24
ATOM     24  C   LIG    1        4.914   4.838  -1.589  0.00  0.00    +0.160 C 
BRANCH  24  25
ATOM     25  O   LIG    1        4.984   3.414  -1.494  0.00  0.00    -0.350 OA
ATOM     26  C   LIG    1        5.489   2.778  -2.671  0.00  0.00    +0.180 C 
ENDBRANCH  24  25
ENDBRANCH   1  24
TORSDOF 6
