REMARK  Name = ZINCpk00000y6usV.0
REMARK                            x       y       z     vdW  Elec       q    Type
REMARK                         _______ _______ _______ _____ _____    ______ ____
ROOT
ATOM      1  C   LIG    1       -2.247   5.601   3.554  0.00  0.00    +0.220 C 
ATOM      2  C   LIG    1       -3.650   4.990   3.538  0.00  0.00    +0.320 C 
ATOM      3  O   LIG    1       -3.562   3.562   3.522  0.00  0.00    -0.380 OA
ATOM      4  C   LIG    1       -2.878   3.051   2.380  0.00  0.00    +0.130 C 
ATOM      5  C   LIG    1       -2.855   1.522   2.389  0.00  0.00    +0.260 C 
ATOM      6  O   LIG    1       -2.067   1.079   1.278  0.00  0.00    -0.370 OA
ATOM      7  C   LIG    1       -0.729   1.579   1.267  0.00  0.00    +0.260 C 
ATOM      8  O   LIG    1       -0.742   3.011   1.275  0.00  0.00    -0.360 OA
ATOM      9  C   LIG    1        0.013   1.071   2.505  0.00  0.00    +0.010 C 
ATOM     10  C   LIG    1       -0.013   1.086   0.008  0.00  0.00    +0.100 C 
ATOM     11  C   LIG    1       -1.430   3.557   2.400  0.00  0.00    +0.140 C 
ATOM     12  C   LIG    1       -1.446   5.085   2.349  0.00  0.00    +0.200 C 
ENDROOT
BRANCH   1  15
ATOM     13  C   LIG    1       -1.048   5.553   7.189  0.00  0.00    +0.100 C 
ATOM     14  C   LIG    1       -1.751   5.944   5.915  0.00  0.00    +0.520 C 
ATOM     15  N   LIG    1       -1.564   5.221   4.793  0.00  0.00    -0.720 N 
ATOM     16  H   LIG    1       -0.977   4.449   4.806  0.00  0.00    +0.400 HD
ATOM     17  O   LIG    1       -2.485   6.909   5.898  0.00  0.00    -0.530 OA
ENDBRANCH   1  15
BRANCH  12  18
ATOM     18  O   LIG    1       -0.107   5.582   2.415  0.00  0.00    -0.540 OA
ATOM     19  H   LIG    1       -0.044   6.546   2.387  0.00  0.00    +0.390 HD
ENDBRANCH  12  18
BRANCH   2  20
ATOM     20  O   LIG    1       -4.362   5.409   4.704  0.00  0.00    -0.260 OA
BRANCH  20  21
ATOM     21  C   LIG    1       -5.670   5.049   4.791  0.00  0.00    +0.130 A 
ATOM     22  C   LIG    1       -6.257   4.314   3.771  0.00  0.00    -0.040 A 
ATOM     23  C   LIG    1       -7.585   3.945   3.863  0.00  0.00    +0.070 A 
ATOM     24  C   LIG    1       -8.332   4.317   4.966  0.00  0.00    -0.070 A 
ATOM     25  C   LIG    1       -7.750   5.055   5.982  0.00  0.00    +0.070 A 
ATOM     26 CL   LIG    1      -10.003   3.858   5.077  0.00  0.00    -0.070 Cl
ATOM     27  C   LIG    1       -6.421   5.421   5.896  0.00  0.00    +0.010 A 
ENDBRANCH  20  21
ENDBRANCH   2  20
TORSDOF 4
