REMARK  Name = ZINCpe000000WMrU.0
REMARK                            x       y       z     vdW  Elec       q    Type
REMARK                         _______ _______ _______ _____ _____    ______ ____
ROOT
ATOM      1  C   LIG    1       -1.185   2.143   0.020  0.00  0.00    +0.510 C 
ATOM      2  N   LIG    1       -0.116   1.507  -0.499  0.00  0.00    -0.610 N 
ATOM      3  C   LIG    1       -0.053   0.038  -0.531  0.00  0.00    +0.310 C 
ATOM      4  C   LIG    1        0.299  -0.404  -1.956  0.00  0.00    +0.190 C 
ATOM      5  N   LIG    1        1.525   0.280  -2.388  0.00  0.00    -0.480 N 
ATOM      6  C   LIG    1        1.331   1.735  -2.449  0.00  0.00    +0.220 C 
ATOM      7  C   LIG    1        1.022   2.264  -1.044  0.00  0.00    +0.280 C 
ATOM      8  O   LIG    1       -2.148   1.505   0.390  0.00  0.00    -0.520 OA
ENDROOT
BRANCH   5   9
ATOM      9  C   LIG    1        1.967  -0.214  -3.610  0.00  0.00    +0.310 A 
ATOM     10  C   LIG    1        2.209  -1.576  -3.756  0.00  0.00    -0.040 A 
ATOM     11  C   LIG    1        2.648  -2.054  -4.977  0.00  0.00    +0.090 A 
ATOM     12  C   LIG    1        2.830  -1.152  -6.016  0.00  0.00    -0.060 A 
ATOM     13  C   LIG    1        2.570   0.187  -5.801  0.00  0.00    +0.290 A 
ATOM     14  N   LIG    1        2.147   0.615  -4.627  0.00  0.00    -0.520 NA
ENDBRANCH   5   9
BRANCH   1  16
ATOM     15  C   LIG    1       -0.402   4.054   1.391  0.00  0.00    +0.110 C 
ATOM     16  C   LIG    1       -1.183   3.645   0.141  0.00  0.00    +0.260 C 
BRANCH  16  17
ATOM     17  N   LIG    1       -2.562   4.128   0.247  0.00  0.00    -0.280 N 
ATOM     18  C   LIG    1       -3.288   4.211   1.386  0.00  0.00    +0.170 A 
ATOM     19  C   LIG    1       -4.496   4.705   1.028  0.00  0.00    -0.050 A 
ATOM     20  N   LIG    1       -4.451   4.897  -0.295  0.00  0.00    -0.240 NA
ATOM     21  N   LIG    1       -3.290   4.551  -0.727  0.00  0.00    -0.080 NA
BRANCH  19  22
ATOM     22  C   LIG    1       -5.663   4.984   1.940  0.00  0.00    +0.210 C 
ATOM     23  C   LIG    1       -6.092   3.687   2.629  0.00  0.00    +0.030 C 
ATOM     24  C   LIG    1       -6.830   5.536   1.120  0.00  0.00    +0.080 C 
BRANCH  22  25
ATOM     25  O   LIG    1       -5.277   5.943   2.926  0.00  0.00    -0.550 OA
ATOM     26  H   LIG    1       -4.540   5.659   3.484  0.00  0.00    +0.370 HD
ENDBRANCH  22  25
ENDBRANCH  19  22
ENDBRANCH  16  17
ENDBRANCH   1  16
TORSDOF 5
