REMARK  Name = ZINCqH00000014GX.0
REMARK                            x       y       z     vdW  Elec       q    Type
REMARK                         _______ _______ _______ _____ _____    ______ ____
ROOT
ATOM      1  C   LIG    1       -6.334   9.032   4.058  0.00  0.00    +0.220 A 
ATOM      2  N   LIG    1       -6.760  10.262   4.212  0.00  0.00    -0.260 NA
ATOM      3  N   LIG    1       -6.396  10.986   3.212  0.00  0.00    -0.250 NA
ATOM      4  C   LIG    1       -5.710  10.241   2.360  0.00  0.00    +0.110 A 
ATOM      5  C   LIG    1       -5.084  10.498   1.125  0.00  0.00    +0.190 A 
ATOM      6  C   LIG    1       -4.443   9.485   0.484  0.00  0.00    -0.020 A 
ATOM      7  C   LIG    1       -4.410   8.198   1.055  0.00  0.00    +0.440 A 
ATOM      8  N   LIG    1       -4.997   7.956   2.203  0.00  0.00    -0.330 NA
ATOM      9  N   LIG    1       -5.660   8.975   2.889  0.00  0.00    -0.270 N 
ENDROOT
BRANCH   7  10
ATOM     10  N   LIG    1       -3.750   7.169   0.390  0.00  0.00    -0.590 N 
ATOM     11  C   LIG    1       -3.056   7.289  -0.900  0.00  0.00    +0.280 C 
ATOM     12  C   LIG    1       -2.457   5.905  -1.228  0.00  0.00    +0.040 C 
ATOM     13  C   LIG    1       -2.364   5.227   0.164  0.00  0.00    +0.170 C 
ATOM     14  C   LIG    1       -3.633   5.778   0.863  0.00  0.00    +0.310 C 
BRANCH  13  15
ATOM     15  O   LIG    1       -2.421   3.804   0.046  0.00  0.00    -0.290 OA
BRANCH  15  16
ATOM     16  C   LIG    1       -1.252   3.159  -0.203  0.00  0.00    +0.140 A 
ATOM     17  C   LIG    1       -0.094   3.885  -0.440  0.00  0.00    -0.060 A 
ATOM     18  C   LIG    1        1.094   3.226  -0.693  0.00  0.00    +0.060 A 
ATOM     19  C   LIG    1        1.130   1.844  -0.710  0.00  0.00    +0.000 A 
ATOM     20  C   LIG    1       -0.022   1.117  -0.474  0.00  0.00    +0.070 A 
ATOM     21  C   LIG    1       -1.214   1.771  -0.226  0.00  0.00    -0.070 A 
ATOM     22 CL   LIG    1       -2.663   0.858   0.062  0.00  0.00    -0.050 Cl
ENDBRANCH  15  16
ENDBRANCH  13  15
ENDBRANCH   7  10
BRANCH   1  24
ATOM     23  C   LIG    1       -7.367   8.377   6.214  0.00  0.00    +0.080 C 
ATOM     24  C   LIG    1       -6.556   7.888   5.012  0.00  0.00    +0.020 C 
ATOM     25  C   LIG    1       -5.205   7.354   5.492  0.00  0.00    +0.050 C 
ATOM     26  C   LIG    1       -7.322   6.771   4.301  0.00  0.00    +0.050 C 
ENDBRANCH   1  24
TORSDOF 4
