REMARK  Name = ZINCpk00000jimms.0
REMARK                            x       y       z     vdW  Elec       q    Type
REMARK                         _______ _______ _______ _____ _____    ______ ____
ROOT
ATOM      1  C   LIG    1       -1.062   5.718  -2.518  0.00  0.00    +0.250 C 
ENDROOT
BRANCH   1   2
ATOM      2  C   LIG    1       -1.260   6.868  -3.471  0.00  0.00    +0.510 C 
ATOM      3  N   LIG    1       -2.317   6.878  -4.306  0.00  0.00    -0.720 N 
ATOM      4  H   LIG    1       -2.993   6.184  -4.241  0.00  0.00    +0.400 HD
ATOM      5  O   LIG    1       -0.467   7.786  -3.487  0.00  0.00    -0.500 OA
BRANCH   3   6
ATOM      6  C   LIG    1       -2.447   7.934  -5.312  0.00  0.00    +0.350 C 
ATOM      7  C   LIG    1       -3.305   7.446  -6.502  0.00  0.00    +0.080 C 
ATOM      8  C   LIG    1       -4.713   7.933  -6.096  0.00  0.00    +0.290 C 
ATOM      9  N   LIG    1       -4.490   9.085  -5.210  0.00  0.00    -0.480 N 
ATOM     10  C   LIG    1       -5.137  10.169  -4.673  0.00  0.00    +0.140 A 
ATOM     11  C   LIG    1       -4.243  10.815  -3.903  0.00  0.00    +0.160 A 
ATOM     12  N   LIG    1       -3.083  10.147  -3.966  0.00  0.00    -0.450 NA
ATOM     13  C   LIG    1       -3.223   9.109  -4.751  0.00  0.00    +0.170 A 
ENDBRANCH   3   6
ENDBRANCH   1   2
BRANCH   1  15
ATOM     14  C   LIG    1        1.026   4.978  -3.674  0.00  0.00    +0.030 C 
ATOM     15  C   LIG    1       -0.383   4.559  -3.251  0.00  0.00    +0.000 C 
ATOM     16  C   LIG    1       -0.297   3.347  -2.321  0.00  0.00    +0.040 C 
ENDBRANCH   1  15
BRANCH   1  17
ATOM     17  N   LIG    1       -0.218   6.149  -1.400  0.00  0.00    -1.090 NA
ATOM     18  H   LIG    1        0.748   6.134  -1.488  0.00  0.00    +0.430 HD
BRANCH  17  19
ATOM     19  S   LIG    1       -0.914   6.662   0.012  0.00  0.00    +2.690 S 
ATOM     20  O   LIG    1        0.153   6.930   0.911  0.00  0.00    -0.950 OA
ATOM     21  O   LIG    1       -1.887   7.633  -0.350  0.00  0.00    -0.940 OA
BRANCH  19  22
ATOM     22  C   LIG    1       -1.800   5.296   0.684  0.00  0.00    -0.680 A 
ATOM     23  C   LIG    1       -1.144   4.362   1.464  0.00  0.00    +0.120 A 
ATOM     24  C   LIG    1       -1.839   3.290   1.991  0.00  0.00    -0.010 A 
ATOM     25  C   LIG    1       -3.191   3.152   1.738  0.00  0.00    +0.070 A 
ATOM     26  C   LIG    1       -3.847   4.082   0.954  0.00  0.00    -0.010 A 
ATOM     27  C   LIG    1       -3.152   5.157   0.430  0.00  0.00    +0.110 A 
ENDBRANCH  19  22
ENDBRANCH  17  19
ENDBRANCH   1  17
TORSDOF 6
