REMARK  Name = ZINCvU00000004Pp.1
REMARK                            x       y       z     vdW  Elec       q    Type
REMARK                         _______ _______ _______ _____ _____    ______ ____
ROOT
ATOM      1  C   LIG    1        1.248   1.716  -0.001  0.00  0.00    +0.340 C 
ENDROOT
BRANCH   1   2
ATOM      2  C   LIG    1        2.332   0.870  -0.616  0.00  0.00    -0.070 A 
ATOM      3  C   LIG    1        2.396  -0.486  -0.327  0.00  0.00    +0.010 A 
ATOM      4  C   LIG    1        3.372  -1.270  -0.875  0.00  0.00    +0.070 A 
ATOM      5  C   LIG    1        4.317  -0.706  -1.735  0.00  0.00    +0.050 A 
ATOM      6  N   LIG    1        5.378  -1.207  -2.419  0.00  0.00    -0.500 NA
ATOM      7  C   LIG    1        5.952  -0.254  -3.094  0.00  0.00    +0.490 A 
ATOM      8  N   LIG    1        5.300   0.922  -2.890  0.00  0.00    -0.600 N 
ATOM      9  H   LIG    1        5.529   1.781  -3.279  0.00  0.00    +0.430 HD
ATOM     10  C   LIG    1        4.253   0.667  -2.029  0.00  0.00    +0.050 A 
ATOM     11  C   LIG    1        3.251   1.447  -1.467  0.00  0.00    +0.040 A 
ENDBRANCH   1   2
BRANCH   1  12
ATOM     12  C   LIG    1        1.629   2.071   1.413  0.00  0.00    -0.090 A 
ATOM     13  C   LIG    1        1.438   1.157   2.432  0.00  0.00    +0.020 A 
ATOM     14  C   LIG    1        1.793   1.481   3.728  0.00  0.00    +0.000 A 
ATOM     15  C   LIG    1        2.329   2.724   4.007  0.00  0.00    +0.000 A 
ATOM     16  C   LIG    1        2.515   3.641   2.989  0.00  0.00    +0.000 A 
ATOM     17  C   LIG    1        2.165   3.315   1.692  0.00  0.00    +0.020 A 
ENDBRANCH   1  12
BRANCH   1  19
ATOM     18  C   LIG    1       -1.187   1.624   0.017  0.00  0.00    +0.520 C 
ATOM     19  N   LIG    1       -0.011   0.966   0.007  0.00  0.00    -0.720 N 
ATOM     20  H   LIG    1        0.002  -0.004   0.002  0.00  0.00    +0.400 HD
ATOM     21  O   LIG    1       -1.204   2.837   0.023  0.00  0.00    -0.520 OA
BRANCH  18  22
ATOM     22  C   LIG    1       -2.482   0.853   0.018  0.00  0.00    +0.170 C 
BRANCH  22  25
ATOM     23  C   LIG    1       -3.895   2.007   2.555  0.00  0.00    +0.190 C 
ATOM     24  C   LIG    1       -4.247   2.312   1.122  0.00  0.00    -0.020 A 
ATOM     25  C   LIG    1       -3.641   1.816   0.029  0.00  0.00    +0.010 A 
ATOM     26  N   LIG    1       -4.253   2.327  -1.050  0.00  0.00    -0.460 NA
ATOM     27  C   LIG    1       -5.216   3.127  -0.647  0.00  0.00    +0.260 A 
ATOM     28  O   LIG    1       -5.228   3.136   0.698  0.00  0.00    -0.190 OA
BRANCH  27  29
ATOM     29  C   LIG    1       -6.125   3.885  -1.519  0.00  0.00    -0.140 A 
ATOM     30  C   LIG    1       -7.120   4.711  -1.093  0.00  0.00    +0.050 A 
ATOM     31  C   LIG    1       -7.837   5.310  -2.104  0.00  0.00    +0.010 A 
ATOM     32  C   LIG    1       -7.449   4.990  -3.343  0.00  0.00    -0.040 A 
ATOM     33  S   LIG    1       -6.094   3.871  -3.278  0.00  0.00    +0.210 S 
ENDBRANCH  27  29
ENDBRANCH  22  25
ENDBRANCH  18  22
ENDBRANCH   1  19
TORSDOF 6
