REMARK  Name = ZINCvU00000004PP.0
REMARK                            x       y       z     vdW  Elec       q    Type
REMARK                         _______ _______ _______ _____ _____    ______ ____
ROOT
ATOM      1  N   LIG    1        5.142   5.301   0.073  0.00  0.00    -0.670 N 
ATOM      2  H   LIG    1        4.417   5.636   0.624  0.00  0.00    +0.410 HD
ATOM      3  C   LIG    1        4.944   4.235  -0.727  0.00  0.00    +0.560 C 
ATOM      4  O   LIG    1        5.832   3.854  -1.463  0.00  0.00    -0.500 OA
ENDROOT
BRANCH   3   5
ATOM      5  C   LIG    1        3.644   3.526  -0.707  0.00  0.00    -0.090 A 
ATOM      6  C   LIG    1        2.625   3.969   0.143  0.00  0.00    +0.030 A 
ATOM      7  C   LIG    1        1.418   3.328   0.174  0.00  0.00    +0.110 A 
ATOM      8  C   LIG    1        1.199   2.225  -0.647  0.00  0.00    -0.180 A 
ATOM      9  C   LIG    1       -0.085   1.503  -0.653  0.00  0.00    +0.550 A 
ATOM     10  N   LIG    1       -0.205   0.456  -1.494  0.00  0.00    -0.540 N 
ATOM     11  C   LIG    1       -1.458  -0.306  -1.563  0.00  0.00    +0.300 C 
ATOM     12  C   LIG    1       -2.190   0.051  -2.855  0.00  0.00    +0.020 C 
ATOM     13  C   LIG    1       -1.768  -0.863  -3.993  0.00  0.00    +0.010 C 
ATOM     14  C   LIG    1       -0.307  -0.677  -4.364  0.00  0.00    +0.040 C 
ATOM     15  C   LIG    1        0.611  -1.104  -3.222  0.00  0.00    +0.130 C 
ATOM     16  C   LIG    1        0.833   0.075  -2.299  0.00  0.00    +0.410 A 
ATOM     17  N   LIG    1        1.977   0.688  -2.301  0.00  0.00    -0.520 NA
ATOM     18  O   LIG    1       -1.004   1.842   0.070  0.00  0.00    -0.510 OA
ATOM     19  C   LIG    1        2.218   1.764  -1.511  0.00  0.00    +0.160 A 
ATOM     20  C   LIG    1        3.446   2.427  -1.534  0.00  0.00    +0.120 A 
ENDBRANCH   3   5
BRANCH   1  26
ATOM     21  C   LIG    1        7.536   5.181   0.364  0.00  0.00    -0.060 A 
ATOM     22  C   LIG    1        8.770   5.801   0.392  0.00  0.00    +0.020 A 
ATOM     23  C   LIG    1        8.867   7.163   0.177  0.00  0.00    +0.000 A 
ATOM     24  C   LIG    1        7.729   7.909  -0.072  0.00  0.00    +0.020 A 
ATOM     25  C   LIG    1        6.493   7.295  -0.108  0.00  0.00    -0.080 A 
ATOM     26  C   LIG    1        6.392   5.926   0.108  0.00  0.00    +0.140 A 
BRANCH  21  28
ATOM     27  C   LIG    1        8.399   2.960  -0.323  0.00  0.00    +0.030 C 
ATOM     28  C   LIG    1        7.431   3.697   0.605  0.00  0.00    +0.020 C 
ATOM     29  C   LIG    1        7.788   3.390   2.061  0.00  0.00    +0.030 C 
ENDBRANCH  21  28
BRANCH  25  30
ATOM     30  C   LIG    1        5.254   8.108  -0.379  0.00  0.00    +0.010 C 
ATOM     31  C   LIG    1        5.373   8.777  -1.751  0.00  0.00    +0.040 C 
ATOM     32  C   LIG    1        5.102   9.182   0.700  0.00  0.00    +0.030 C 
ENDBRANCH  25  30
ENDBRANCH   1  26
TORSDOF 4
