REMARK  Name = ZINCkj000005lsGl.0
REMARK                            x       y       z     vdW  Elec       q    Type
REMARK                         _______ _______ _______ _____ _____    ______ ____
ROOT
ATOM      1  C   LIG    1       -0.699   1.479   1.216  0.00  0.00    +0.220 C 
ATOM      2  C   LIG    1        0.045   0.969   2.450  0.00  0.00    +0.310 C 
ATOM      3  N   LIG    1       -0.478   1.690   3.623  0.00  0.00    -0.610 N 
ATOM      4  C   LIG    1       -0.254   3.138   3.677  0.00  0.00    +0.350 C 
ATOM      5  C   LIG    1       -0.549   3.748   2.330  0.00  0.00    -0.060 A 
ATOM      6  C   LIG    1       -0.620   5.132   2.248  0.00  0.00    +0.040 A 
ATOM      7  C   LIG    1       -0.878   5.750   1.041  0.00  0.00    +0.060 A 
ATOM      8  C   LIG    1       -1.067   4.984  -0.094  0.00  0.00    +0.040 A 
ATOM      9  C   LIG    1       -1.001   3.609  -0.013  0.00  0.00    -0.010 A 
ATOM     10  C   LIG    1       -1.135   1.044   4.606  0.00  0.00    +0.530 C 
ATOM     11  O   LIG    1       -1.307  -0.154   4.536  0.00  0.00    -0.520 OA
ATOM     12  C   LIG    1       -0.746   2.984   1.202  0.00  0.00    -0.140 A 
ENDROOT
BRANCH   1  13
ATOM     13  N   LIG    1       -0.012   1.005   0.008  0.00  0.00    -0.630 N 
ATOM     14  H   LIG    1       -0.500   1.339  -0.810  0.00  0.00    +0.440 HD
ATOM     15  H   LIG    1        0.935   1.354   0.000  0.00  0.00    +0.440 HD
ATOM     16  H   LIG    1        0.002  -0.004   0.002  0.00  0.00    +0.440 HD
ENDBRANCH   1  13
BRANCH  10  17
ATOM     17  C   LIG    1       -1.657   1.812   5.794  0.00  0.00    +0.090 C 
BRANCH  17  18
ATOM     18  C   LIG    1       -2.358   0.850   6.755  0.00  0.00    +0.170 C 
BRANCH  18  19
ATOM     19  C   LIG    1       -2.880   1.618   7.942  0.00  0.00    +0.200 A 
ATOM     20  N   LIG    1       -2.170   2.384   8.724  0.00  0.00    -0.490 NA
ATOM     21  C   LIG    1       -2.963   2.906   9.671  0.00  0.00    +0.140 A 
ATOM     22  C   LIG    1       -4.211   2.440   9.473  0.00  0.00    +0.130 A 
ATOM     23  N   LIG    1       -4.159   1.622   8.376  0.00  0.00    -0.570 N 
ATOM     24  H   LIG    1       -4.901   1.137   7.984  0.00  0.00    +0.420 HD
ENDBRANCH  18  19
ENDBRANCH  17  18
ENDBRANCH  10  17
TORSDOF 4
