REMARK  Name = ZINCkj000005jaeu.0
REMARK                            x       y       z     vdW  Elec       q    Type
REMARK                         _______ _______ _______ _____ _____    ______ ____
ROOT
ATOM      1  C   LIG    1       -2.148   1.789  -1.159  0.00  0.00    +0.210 C 
ENDROOT
BRANCH   1   2
ATOM      2  N   LIG    1       -3.351   2.633  -1.148  0.00  0.00    -0.670 NA
ATOM      3  H   LIG    1       -3.106   3.612  -1.162  0.00  0.00    +0.350 HD
BRANCH   2   5
ATOM      4  C   LIG    1       -3.795   3.060  -3.518  0.00  0.00    +0.010 C 
ATOM      5  C   LIG    1       -4.239   2.297  -2.269  0.00  0.00    +0.170 C 
BRANCH   5   6
ATOM      6  C   LIG    1       -5.676   2.688  -1.916  0.00  0.00    +0.180 C 
ATOM      7  C   LIG    1       -6.161   1.900  -0.681  0.00  0.00    +0.080 C 
ATOM      8  C   LIG    1       -7.645   1.589  -0.962  0.00  0.00    +0.060 C 
ATOM      9  C   LIG    1       -7.932   2.216  -2.343  0.00  0.00    +0.270 C 
ATOM     10  N   LIG    1       -6.604   2.291  -3.006  0.00  0.00    -0.520 N 
ATOM     11  H   LIG    1       -6.345   1.389  -3.378  0.00  0.00    +0.430 HD
ATOM     12  H   LIG    1       -6.610   2.987  -3.736  0.00  0.00    +0.430 HD
ENDBRANCH   5   6
ENDBRANCH   2   5
ENDBRANCH   1   2
BRANCH   1  13
ATOM     13  C   LIG    1       -1.249   2.168   0.020  0.00  0.00    +0.170 C 
BRANCH  13  14
ATOM     14  C   LIG    1       -0.016   1.302   0.009  0.00  0.00    +0.290 A 
ATOM     15  N   LIG    1        0.002  -0.004   0.002  0.00  0.00    -0.520 NA
ATOM     16  C   LIG    1        1.270  -0.441  -0.012  0.00  0.00    +0.310 A 
ATOM     17  N   LIG    1        2.074   0.603  -0.015  0.00  0.00    -0.280 NA
ATOM     18  N   LIG    1        1.255   1.743  -0.001  0.00  0.00    -0.470 N 
ATOM     19  H   LIG    1        1.548   2.668   0.001  0.00  0.00    +0.450 HD
BRANCH  16  20
ATOM     20  C   LIG    1        1.695  -1.856  -0.024  0.00  0.00    +0.040 A 
ATOM     21  C   LIG    1        2.978  -2.304  -0.038  0.00  0.00    +0.020 A 
ATOM     22  C   LIG    1        2.917  -3.712  -0.045  0.00  0.00    -0.060 A 
ATOM     23  C   LIG    1        1.613  -4.050  -0.034  0.00  0.00    +0.200 A 
ATOM     24  O   LIG    1        0.877  -2.927  -0.015  0.00  0.00    -0.160 OA
ENDBRANCH  16  20
ENDBRANCH  13  14
ENDBRANCH   1  13
TORSDOF 6
