REMARK  Name = ZINCpk00000yg2qP.0
REMARK                            x       y       z     vdW  Elec       q    Type
REMARK                         _______ _______ _______ _____ _____    ______ ____
ROOT
ATOM      1  N   LIG    1        1.921  -0.112  -2.114  0.00  0.00    -0.700 N 
ATOM      2  H   LIG    1        1.387  -0.721  -1.580  0.00  0.00    +0.410 HD
ATOM      3  C   LIG    1        1.774  -0.083  -3.453  0.00  0.00    +0.590 C 
ATOM      4  O   LIG    1        2.443   0.681  -4.122  0.00  0.00    -0.520 OA
ENDROOT
BRANCH   3   5
ATOM      5  C   LIG    1        0.800  -0.981  -4.110  0.00  0.00    +0.030 A 
ATOM      6  N   LIG    1        0.081  -1.810  -3.386  0.00  0.00    -0.180 NA
ATOM      7  N   LIG    1       -0.781  -2.604  -3.907  0.00  0.00    -0.340 N 
ATOM      8  C   LIG    1       -0.995  -2.646  -5.236  0.00  0.00    +0.480 A 
ATOM      9  C   LIG    1       -0.260  -1.791  -6.087  0.00  0.00    -0.010 A 
ATOM     10  O   LIG    1       -1.819  -3.416  -5.701  0.00  0.00    -0.510 OA
ATOM     11  C   LIG    1        0.648  -0.949  -5.517  0.00  0.00    +0.140 A 
BRANCH   7  12
ATOM     12  C   LIG    1       -1.549  -3.495  -3.034  0.00  0.00    +0.320 C 
BRANCH  12  13
ATOM     13  C   LIG    1       -0.796  -4.816  -2.863  0.00  0.00    +0.220 C 
ATOM     14  F   LIG    1       -1.529  -5.666  -2.028  0.00  0.00    -0.200 F 
ENDBRANCH  12  13
ENDBRANCH   7  12
ENDBRANCH   3   5
BRANCH   1  16
ATOM     15  C   LIG    1        4.271   0.128  -1.481  0.00  0.00    +0.020 C 
ATOM     16  C   LIG    1        2.886   0.778  -1.463  0.00  0.00    +0.240 C 
BRANCH  16  17
ATOM     17  C   LIG    1        2.457   1.025  -0.015  0.00  0.00    +0.090 C 
BRANCH  17  18
ATOM     18  C   LIG    1        1.150   1.775   0.001  0.00  0.00    -0.120 A 
ATOM     19  C   LIG    1       -0.013   1.076   0.008  0.00  0.00    +0.080 A 
ATOM     20  C   LIG    1       -1.241   1.770   0.018  0.00  0.00    -0.200 A 
ATOM     21  C   LIG    1       -2.572   1.395   0.022  0.00  0.00    +0.270 A 
ATOM     22  N   LIG    1       -3.314   2.510   0.032  0.00  0.00    -0.420 N 
ATOM     23  H   LIG    1       -4.284   2.534   0.036  0.00  0.00    +0.440 HD
ATOM     24  N   LIG    1       -2.483   3.637   0.043  0.00  0.00    -0.300 NA
ATOM     25  C   LIG    1       -1.224   3.241   0.030  0.00  0.00    +0.100 A 
ATOM     26  C   LIG    1        0.024   3.901   0.022  0.00  0.00    +0.030 A 
ATOM     27  C   LIG    1        1.167   3.171   0.008  0.00  0.00    +0.060 A 
ENDBRANCH  17  18
ENDBRANCH  16  17
ENDBRANCH   1  16
TORSDOF 6
