REMARK  Name = ZINCpk00000Fg2QP.0
REMARK                            x       y       z     vdW  Elec       q    Type
REMARK                         _______ _______ _______ _____ _____    ______ ____
ROOT
ATOM      1  C   LIG    1       -1.196  -0.918   0.008  0.00  0.00    +0.190 C 
ENDROOT
BRANCH   1   5
ATOM      2  C   LIG    1        1.969   0.776  -0.013  0.00  0.00    +0.170 A 
ATOM      3  N   LIG    1        1.119   1.759   0.001  0.00  0.00    -0.350 NA
ATOM      4  O   LIG    1       -0.016   1.332   0.009  0.00  0.00    +0.090 OA
ATOM      5  C   LIG    1        0.002  -0.004   0.002  0.00  0.00    +0.180 A 
ATOM      6  N   LIG    1        1.262  -0.368  -0.012  0.00  0.00    -0.460 NA
BRANCH   2   7
ATOM      7  C   LIG    1        3.471   0.895  -0.026  0.00  0.00    +0.270 C 
ATOM      8  C   LIG    1        3.963   1.301   1.365  0.00  0.00    +0.040 C 
BRANCH   7   9
ATOM      9  O   LIG    1        3.861   1.888  -0.977  0.00  0.00    -0.370 OA
BRANCH   9  10
ATOM     10  C   LIG    1        5.138   1.652  -1.573  0.00  0.00    +0.170 C 
BRANCH  10  12
ATOM     11  C   LIG    1        5.594   4.096  -1.819  0.00  0.00    +0.020 C 
ATOM     12  C   LIG    1        5.451   2.770  -2.569  0.00  0.00    -0.010 C 
ATOM     13  C   LIG    1        6.759   2.454  -3.298  0.00  0.00    +0.030 C 
ENDBRANCH  10  12
ENDBRANCH   9  10
ENDBRANCH   7   9
ENDBRANCH   2   7
ENDBRANCH   1   5
BRANCH   1  14
ATOM     14  C   LIG    1       -1.588  -1.235   1.453  0.00  0.00    +0.320 C 
BRANCH  14  15
ATOM     15  N   LIG    1       -2.753  -2.124   1.458  0.00  0.00    -0.550 N 
ATOM     16  C   LIG    1       -4.004  -1.598   1.479  0.00  0.00    +0.640 A 
ATOM     17  N   LIG    1       -5.080  -2.328   1.480  0.00  0.00    -0.530 NA
ATOM     18  C   LIG    1       -5.027  -3.669   1.471  0.00  0.00    +0.330 A 
ATOM     19  C   LIG    1       -3.776  -4.305   1.456  0.00  0.00    -0.340 A 
ATOM     20  C   LIG    1       -4.011  -5.692   1.449  0.00  0.00    +0.330 A 
ATOM     21  N   LIG    1       -5.301  -5.889   1.460  0.00  0.00    -0.270 NA
ATOM     22  N   LIG    1       -5.962  -4.654   1.474  0.00  0.00    -0.350 N 
ATOM     23  C   LIG    1       -7.414  -4.459   1.488  0.00  0.00    +0.380 C 
ATOM     24  C   LIG    1       -2.577  -3.466   1.449  0.00  0.00    +0.570 A 
ATOM     25  O   LIG    1       -1.462  -3.957   1.435  0.00  0.00    -0.510 OA
ENDBRANCH  14  15
ENDBRANCH   1  14
TORSDOF 7
