REMARK  Name = ZINCah000000014z.0
REMARK                            x       y       z     vdW  Elec       q    Type
REMARK                         _______ _______ _______ _____ _____    ______ ____
ROOT
ATOM      1  C   LIG    1        1.248   2.079   0.001  0.00  0.00    +0.560 C 
ATOM      2  N   LIG    1        1.230   3.426   0.009  0.00  0.00    -0.610 N 
ATOM      3  C   LIG    1        0.020   4.269   0.018  0.00  0.00    +0.250 C 
ATOM      4  C   LIG    1        0.482   5.614   0.638  0.00  0.00    +0.040 C 
ATOM      5  C   LIG    1        1.907   5.757   0.041  0.00  0.00    +0.040 C 
ATOM      6  C   LIG    1        2.413   4.299   0.002  0.00  0.00    +0.210 C 
ATOM      7  C   LIG    1        3.278   4.012   1.231  0.00  0.00    +0.040 C 
ATOM      8  O   LIG    1        2.309   1.485  -0.012  0.00  0.00    -0.540 OA
ENDROOT
BRANCH   1  10
ATOM      9  C   LIG    1        0.002  -0.004   0.002  0.00  0.00    +0.140 C 
ATOM     10  C   LIG    1       -0.016   1.326   0.009  0.00  0.00    -0.090 C 
ENDBRANCH   1  10
TORSDOF 1
