REMARK  Name = ZINCrH00000No55X.0
REMARK                            x       y       z     vdW  Elec       q    Type
REMARK                         _______ _______ _______ _____ _____    ______ ____
ROOT
ATOM      1  C   LIG    1       -1.024   8.648  -0.257  0.00  0.00    +0.150 C 
ATOM      2  C   LIG    1       -0.001   7.771  -0.169  0.00  0.00    -0.100 C 
ENDROOT
BRANCH   1  12
ATOM      3  C   LIG    1       -1.815  11.000  -0.454  0.00  0.00    +0.140 A 
ATOM      4  C   LIG    1       -1.543  12.356  -0.546  0.00  0.00    -0.020 A 
ATOM      5  C   LIG    1       -0.239  12.802  -0.550  0.00  0.00    -0.120 A 
ATOM      6  C   LIG    1        0.827  11.911  -0.469  0.00  0.00    +0.070 A 
ATOM      7  O   LIG    1        2.020  12.567  -0.512  0.00  0.00    -0.300 OA
ATOM      8  C   LIG    1        1.813  13.948  -0.172  0.00  0.00    +0.170 C 
ATOM      9  C   LIG    1        2.782  14.848  -0.943  0.00  0.00    +0.070 C 
ATOM     10  C   LIG    1        0.566  10.552  -0.366  0.00  0.00    +0.060 A 
ATOM     11  C   LIG    1        0.354  14.197  -0.620  0.00  0.00    +0.090 C 
ATOM     12  C   LIG    1       -0.751  10.088  -0.362  0.00  0.00    -0.080 A 
BRANCH   3  13
ATOM     13  O   LIG    1       -3.098  10.557  -0.451  0.00  0.00    -0.300 OA
BRANCH  13  15
ATOM     14  C   LIG    1       -5.494  10.863  -0.528  0.00  0.00    +0.070 C 
ATOM     15  C   LIG    1       -4.125  11.546  -0.547  0.00  0.00    +0.170 C 
ENDBRANCH  13  15
ENDBRANCH   3  13
ENDBRANCH   1  12
BRANCH   2  16
ATOM     16  C   LIG    1       -0.272   6.338  -0.064  0.00  0.00    +0.550 C 
ATOM     17  N   LIG    1        0.749   5.464   0.024  0.00  0.00    -0.670 N 
ATOM     18  H   LIG    1        1.661   5.788   0.094  0.00  0.00    +0.420 HD
ATOM     19  O   LIG    1       -1.421   5.936  -0.056  0.00  0.00    -0.520 OA
BRANCH  17  20
ATOM     20  C   LIG    1        0.495   4.087   0.013  0.00  0.00    +0.160 A 
ATOM     21  C   LIG    1        1.301   3.226   0.746  0.00  0.00    +0.000 A 
ATOM     22  C   LIG    1        1.048   1.867   0.739  0.00  0.00    +0.060 A 
ATOM     23  C   LIG    1       -0.003   1.359  -0.006  0.00  0.00    +0.010 A 
ATOM     24  O   LIG    1       -0.454   0.082  -0.180  0.00  0.00    -0.310 OA
ATOM     25  C   LIG    1       -1.291   0.126  -1.351  0.00  0.00    +0.430 C 
ATOM     26  O   LIG    1       -1.771   1.483  -1.377  0.00  0.00    -0.310 OA
ATOM     27  C   LIG    1       -0.814   2.221  -0.742  0.00  0.00    +0.050 A 
ATOM     28  C   LIG    1       -0.563   3.582  -0.732  0.00  0.00    +0.040 A 
ENDBRANCH  17  20
ENDBRANCH   2  16
TORSDOF 5
