REMARK  Name = ZINCvU00000006du.0
REMARK                            x       y       z     vdW  Elec       q    Type
REMARK                         _______ _______ _______ _____ _____    ______ ____
ROOT
ATOM      1  C   LIG    1        1.264   5.296  -2.254  0.00  0.00    +0.570 C 
ATOM      2  N   LIG    1        0.914   5.379  -0.955  0.00  0.00    -0.710 N 
ATOM      3  H   LIG    1        0.304   6.072  -0.660  0.00  0.00    +0.410 HD
ATOM      4  O   LIG    1        2.029   4.426  -2.624  0.00  0.00    -0.530 OA
ENDROOT
BRANCH   1   8
ATOM      5  C   LIG    1       -0.310   8.072  -5.058  0.00  0.00    -0.050 A 
ATOM      6  C   LIG    1        0.562   7.084  -5.481  0.00  0.00    +0.040 A 
ATOM      7  C   LIG    1        1.076   6.179  -4.576  0.00  0.00    +0.080 A 
ATOM      8  C   LIG    1        0.716   6.262  -3.230  0.00  0.00    -0.120 A 
ATOM      9  C   LIG    1       -0.167   7.258  -2.810  0.00  0.00    +0.050 A 
ATOM     10  C   LIG    1       -0.670   8.160  -3.725  0.00  0.00    +0.040 A 
BRANCH   5  11
ATOM     11  C   LIG    1       -0.868   9.057  -6.053  0.00  0.00    +0.120 C 
BRANCH  11  12
ATOM     12  S   LIG    1       -2.412   8.410  -6.740  0.00  0.00    +0.030 S 
BRANCH  12  17
ATOM     13  C   LIG    1       -5.218  10.988 -10.286  0.00  0.00    +0.160 C 
ATOM     14  C   LIG    1       -4.043  10.818  -9.358  0.00  0.00    +0.080 A 
ATOM     15  C   LIG    1       -3.080  11.732  -9.241  0.00  0.00    -0.080 A 
ATOM     16  S   LIG    1       -1.913  11.148  -8.056  0.00  0.00    +0.130 S 
ATOM     17  C   LIG    1       -2.832   9.723  -7.838  0.00  0.00    +0.010 A 
ATOM     18  N   LIG    1       -3.885   9.751  -8.595  0.00  0.00    -0.450 NA
ENDBRANCH  12  17
ENDBRANCH  11  12
ENDBRANCH   5  11
ENDBRANCH   1   8
BRANCH   2  19
ATOM     19  C   LIG    1        1.456   4.421   0.012  0.00  0.00    +0.390 C 
BRANCH  19  20
ATOM     20  C   LIG    1        1.447   5.036   1.387  0.00  0.00    -0.110 A 
ATOM     21  C   LIG    1        0.376   5.812   1.790  0.00  0.00    +0.080 A 
ATOM     22  C   LIG    1        0.363   6.372   3.053  0.00  0.00    -0.010 A 
ATOM     23  C   LIG    1        1.429   6.164   3.912  0.00  0.00    +0.110 A 
ATOM     24  C   LIG    1        2.504   5.392   3.506  0.00  0.00    -0.010 A 
ATOM     25  F   LIG    1        1.420   6.716   5.146  0.00  0.00    -0.140 F 
ATOM     26  C   LIG    1        2.512   4.829   2.244  0.00  0.00    +0.060 A 
ENDBRANCH  19  20
BRANCH  19  27
ATOM     27  C   LIG    1        0.610   3.174   0.013  0.00  0.00    +0.190 A 
ATOM     28  N   LIG    1       -0.695   3.141   0.025  0.00  0.00    -0.470 NA
ATOM     29  C   LIG    1       -1.105   1.864   0.017  0.00  0.00    +0.140 A 
ATOM     30  C   LIG    1       -0.013   1.076   0.008  0.00  0.00    +0.130 A 
ATOM     31  N   LIG    1        1.075   1.907   0.002  0.00  0.00    -0.450 N 
ATOM     32  C   LIG    1        2.482   1.497  -0.013  0.00  0.00    +0.320 C 
ENDBRANCH  19  27
ENDBRANCH   2  19
TORSDOF 7
