REMARK  Name = ZINCpk00000KfKqN.0
REMARK                            x       y       z     vdW  Elec       q    Type
REMARK                         _______ _______ _______ _____ _____    ______ ____
ROOT
ATOM      1  N   LIG    1       -1.134  -0.017  -1.161  0.00  0.00    -0.500 N 
ATOM      2  C   LIG    1       -1.806  -0.812  -0.123  0.00  0.00    +0.200 C 
ATOM      3  C   LIG    1       -3.263  -1.047  -0.528  0.00  0.00    +0.200 C 
ATOM      4  N   LIG    1       -3.303  -1.737  -1.825  0.00  0.00    -0.520 NA
ATOM      5  C   LIG    1       -2.631  -0.943  -2.862  0.00  0.00    +0.200 C 
ATOM      6  C   LIG    1       -1.174  -0.708  -2.457  0.00  0.00    +0.210 C 
ENDROOT
BRANCH   1   9
ATOM      7  C   LIG    1       -0.438   2.709  -0.770  0.00  0.00    +0.150 C 
ATOM      8  C   LIG    1        0.565   1.599  -0.588  0.00  0.00    +0.030 A 
ATOM      9  C   LIG    1        0.181   0.279  -0.792  0.00  0.00    +0.090 A 
ATOM     10  C   LIG    1        1.103  -0.744  -0.630  0.00  0.00    +0.100 A 
ATOM     11  C   LIG    1        2.414  -0.443  -0.262  0.00  0.00    -0.010 A 
ATOM     12  C   LIG    1        2.790   0.887  -0.059  0.00  0.00    +0.150 A 
ATOM     13  C   LIG    1        1.865   1.897  -0.223  0.00  0.00    -0.040 A 
BRANCH  13  14
ATOM     14  N   LIG    1        2.265   3.306  -0.007  0.00  0.00    +0.020 N 
ATOM     15  O   LIG    1        1.492   4.085   0.522  0.00  0.00    -0.130 OA
ATOM     16  O   LIG    1        3.367   3.686  -0.359  0.00  0.00    -0.150 OA
ENDBRANCH  13  14
BRANCH  11  17
ATOM     17  C   LIG    1        3.372  -1.494  -0.092  0.00  0.00    +0.240 C 
ATOM     18  N   LIG    1        4.132  -2.328   0.042  0.00  0.00    -0.380 NA
ENDBRANCH  11  17
ENDBRANCH   1   9
BRANCH   4  19
ATOM     19  C   LIG    1       -4.685  -2.049  -2.212  0.00  0.00    +0.220 C 
BRANCH  19  20
ATOM     20  C   LIG    1       -4.677  -2.959  -3.413  0.00  0.00    +0.510 C 
ATOM     21  N   LIG    1       -5.835  -3.278  -4.025  0.00  0.00    -0.730 N 
ATOM     22  H   LIG    1       -6.674  -2.921  -3.692  0.00  0.00    +0.400 HD
ATOM     23  O   LIG    1       -3.629  -3.404  -3.830  0.00  0.00    -0.520 OA
BRANCH  21  24
ATOM     24  C   LIG    1       -5.827  -4.162  -5.193  0.00  0.00    +0.230 C 
ATOM     25  C   LIG    1       -5.557  -3.340  -6.454  0.00  0.00    +0.030 C 
ATOM     26  C   LIG    1       -7.186  -4.856  -5.317  0.00  0.00    +0.030 C 
ENDBRANCH  21  24
ENDBRANCH  19  20
ENDBRANCH   4  19
TORSDOF 6
