REMARK  Name = ZINCrD00000F5Lwf.0
REMARK                            x       y       z     vdW  Elec       q    Type
REMARK                         _______ _______ _______ _____ _____    ______ ____
ROOT
ATOM      1  C   LIG    1       -8.339   2.241   6.669  0.00  0.00    +0.170 C 
ATOM      2  C   LIG    1       -9.618   2.933   7.149  0.00  0.00    +0.160 C 
ATOM      3  N   LIG    1      -10.258   2.106   8.182  0.00  0.00    -0.530 NA
ATOM      4  C   LIG    1       -9.346   1.888   9.315  0.00  0.00    +0.140 C 
ATOM      5  C   LIG    1       -8.071   1.206   8.812  0.00  0.00    +0.230 C 
ATOM      6  O   LIG    1       -7.479   2.009   7.788  0.00  0.00    -0.360 OA
ENDROOT
BRANCH   1   7
ATOM      7  C   LIG    1       -7.626   3.135   5.652  0.00  0.00    +0.160 C 
BRANCH   7  10
ATOM      8  N   LIG    1       -5.002   1.486   3.753  0.00  0.00    -0.290 N 
ATOM      9  C   LIG    1       -6.168   2.171   3.784  0.00  0.00    +0.140 A 
ATOM     10  C   LIG    1       -6.434   2.404   5.091  0.00  0.00    -0.020 A 
ATOM     11  N   LIG    1       -5.430   1.856   5.786  0.00  0.00    -0.240 NA
ATOM     12  N   LIG    1       -4.601   1.316   4.964  0.00  0.00    -0.090 NA
BRANCH   8  13
ATOM     13  C   LIG    1       -4.316   1.014   2.547  0.00  0.00    +0.310 C 
BRANCH  13  14
ATOM     14  C   LIG    1       -2.880   1.543   2.537  0.00  0.00    +0.020 C 
BRANCH  14  15
ATOM     15  C   LIG    1       -2.164   1.050   1.278  0.00  0.00    +0.020 C 
BRANCH  15  17
ATOM     16  C   LIG    1       -0.013   1.086   0.008  0.00  0.00    +0.010 C 
ATOM     17  C   LIG    1       -0.729   1.579   1.267  0.00  0.00    +0.000 C 
ENDBRANCH  15  17
ENDBRANCH  14  15
ENDBRANCH  13  14
ENDBRANCH   8  13
ENDBRANCH   7  10
ENDBRANCH   1   7
BRANCH   3  18
ATOM     18  C   LIG    1      -11.520   2.708   8.631  0.00  0.00    +0.260 C 
BRANCH  18  19
ATOM     19  C   LIG    1      -12.261   1.729   9.505  0.00  0.00    -0.160 A 
ATOM     20  C   LIG    1      -13.161   0.841   8.940  0.00  0.00    +0.180 A 
ATOM     21  C   LIG    1      -13.838  -0.062   9.742  0.00  0.00    -0.040 A 
ATOM     22  C   LIG    1      -13.624  -0.070  11.109  0.00  0.00    +0.170 A 
ATOM     23  C   LIG    1      -12.728   0.822  11.675  0.00  0.00    -0.040 A 
ATOM     24  F   LIG    1      -14.288  -0.948  11.892  0.00  0.00    -0.120 F 
ATOM     25  F   LIG    1      -13.374   0.852   7.606  0.00  0.00    -0.110 F 
ATOM     26  C   LIG    1      -12.047   1.721  10.872  0.00  0.00    +0.170 A 
ATOM     27  F   LIG    1      -11.173   2.591  11.424  0.00  0.00    -0.120 F 
ENDBRANCH  18  19
ENDBRANCH   3  18
TORSDOF 8
