REMARK  Name = ZINCpk00000y6ukG.0
REMARK                            x       y       z     vdW  Elec       q    Type
REMARK                         _______ _______ _______ _____ _____    ______ ____
ROOT
ATOM      1  N   LIG    1       -1.895   3.461   1.071  0.00  0.00    -0.530 NA
ATOM      2  C   LIG    1       -0.689   3.636   1.891  0.00  0.00    +0.180 C 
ATOM      3  C   LIG    1       -1.035   3.405   3.364  0.00  0.00    +0.030 C 
ATOM      4  C   LIG    1       -2.115   4.402   3.792  0.00  0.00    -0.040 C 
ATOM      5  C   LIG    1       -3.341   4.232   2.892  0.00  0.00    +0.060 C 
ATOM      6  C   LIG    1       -2.929   4.439   1.432  0.00  0.00    +0.170 C 
ENDROOT
BRANCH   1   7
ATOM      7  C   LIG    1       -1.574   3.538  -0.360  0.00  0.00    +0.300 C 
BRANCH   7  17
ATOM      8  C   LIG    1       -1.556   0.544  -1.134  0.00  0.00    +0.330 C 
ATOM      9  N   LIG    1       -0.368   1.389  -0.988  0.00  0.00    -0.480 N 
ATOM     10  C   LIG    1        0.943   0.995  -1.171  0.00  0.00    +0.050 A 
ATOM     11  C   LIG    1        1.553  -0.201  -1.520  0.00  0.00    +0.010 A 
ATOM     12  C   LIG    1        2.927  -0.263  -1.621  0.00  0.00    +0.030 A 
ATOM     13  C   LIG    1        3.701   0.861  -1.376  0.00  0.00    +0.000 A 
ATOM     14  C   LIG    1        3.118   2.048  -1.031  0.00  0.00    +0.070 A 
ATOM     15  C   LIG    1        1.728   2.134  -0.923  0.00  0.00    +0.050 A 
ATOM     16  N   LIG    1        0.874   3.142  -0.609  0.00  0.00    -0.490 NA
ATOM     17  C   LIG    1       -0.351   2.705  -0.646  0.00  0.00    +0.290 A 
ENDBRANCH   7  17
ENDBRANCH   1   7
BRANCH   4  18
ATOM     18  C   LIG    1       -2.508   4.137   5.247  0.00  0.00    +0.220 C 
BRANCH  18  19
ATOM     19  C   LIG    1       -1.332   4.422   6.145  0.00  0.00    +0.490 C 
ATOM     20  N   LIG    1       -0.294   3.563   6.190  0.00  0.00    -0.700 N 
ATOM     21  H   LIG    1       -0.273   2.797   5.596  0.00  0.00    +0.400 HD
ATOM     22  O   LIG    1       -1.319   5.425   6.828  0.00  0.00    -0.530 OA
BRANCH  20  23
ATOM     23  C   LIG    1        0.801   3.787   7.137  0.00  0.00    +0.210 C 
ATOM     24  C   LIG    1        2.230   3.599   6.621  0.00  0.00    +0.010 C 
ATOM     25  C   LIG    1        1.617   2.569   7.574  0.00  0.00    +0.020 C 
ENDBRANCH  20  23
ENDBRANCH  18  19
BRANCH  18  26
ATOM     26  O   LIG    1       -3.600   4.986   5.608  0.00  0.00    -0.530 OA
ATOM     27  H   LIG    1       -3.405   5.930   5.532  0.00  0.00    +0.390 HD
ENDBRANCH  18  26
ENDBRANCH   4  18
TORSDOF 6
