REMARK  Name = ZINCrH000004jNyI.0
REMARK                            x       y       z     vdW  Elec       q    Type
REMARK                         _______ _______ _______ _____ _____    ______ ____
ROOT
ATOM      1  C   LIG    1        1.147   1.655   0.000  0.00  0.00    +0.520 C 
ATOM      2  N   LIG    1       -0.011   0.966   0.007  0.00  0.00    -0.620 N 
ATOM      3  H   LIG    1        0.002  -0.004   0.002  0.00  0.00    +0.430 HD
ATOM      4  O   LIG    1        1.130   2.868   0.007  0.00  0.00    -0.480 OA
ENDROOT
BRANCH   2   5
ATOM      5  C   LIG    1       -1.224   1.644   0.017  0.00  0.00    +0.280 A 
ATOM      6  N   LIG    1       -2.394   1.087   0.019  0.00  0.00    -0.500 NA
ATOM      7  C   LIG    1       -3.446   1.894   0.029  0.00  0.00    +0.120 A 
ATOM      8  C   LIG    1       -3.163   3.209   0.036  0.00  0.00    -0.110 A 
ATOM      9  S   LIG    1       -1.410   3.395   0.035  0.00  0.00    +0.230 S 
BRANCH   7  10
ATOM     10  C   LIG    1       -4.838   1.383   0.034  0.00  0.00    -0.010 A 
ATOM     11  C   LIG    1       -5.909   2.269  -0.060  0.00  0.00    +0.100 A 
ATOM     12  C   LIG    1       -7.202   1.788  -0.056  0.00  0.00    +0.040 A 
ATOM     13  C   LIG    1       -7.437   0.428   0.041  0.00  0.00    +0.110 A 
ATOM     14  C   LIG    1       -6.377  -0.457   0.134  0.00  0.00    -0.040 A 
ATOM     15  C   LIG    1       -5.080   0.013   0.126  0.00  0.00    +0.130 A 
BRANCH  14  16
ATOM     16  N   LIG    1       -6.636  -1.911   0.236  0.00  0.00    +0.030 N 
ATOM     17  O   LIG    1       -5.704  -2.691   0.318  0.00  0.00    -0.160 OA
ATOM     18  O   LIG    1       -7.780  -2.327   0.238  0.00  0.00    -0.160 OA
ENDBRANCH  14  16
ENDBRANCH   7  10
ENDBRANCH   2   5
BRANCH   1  19
ATOM     19  C   LIG    1        2.462   0.920  -0.017  0.00  0.00    +0.240 C 
BRANCH  19  21
ATOM     20  C   LIG    1        3.605   2.649   1.235  0.00  0.00    +0.210 C 
ATOM     21  N   LIG    1        3.565   1.890  -0.022  0.00  0.00    -0.520 NA
BRANCH  21  22
ATOM     22  C   LIG    1        4.850   1.224  -0.276  0.00  0.00    +0.230 C 
BRANCH  22  23
ATOM     23  C   LIG    1        5.915   2.263  -0.518  0.00  0.00    -0.080 A 
ATOM     24  C   LIG    1        6.163   2.712  -1.801  0.00  0.00    +0.020 A 
ATOM     25  C   LIG    1        7.137   3.668  -2.023  0.00  0.00    +0.000 A 
ATOM     26  C   LIG    1        7.869   4.167  -0.962  0.00  0.00    +0.000 A 
ATOM     27  C   LIG    1        7.624   3.714   0.321  0.00  0.00    +0.000 A 
ATOM     28  C   LIG    1        6.647   2.762   0.543  0.00  0.00    +0.010 A 
ENDBRANCH  22  23
ENDBRANCH  21  22
ENDBRANCH  19  21
ENDBRANCH   1  19
TORSDOF 7
