REMARK  Name = ZINCrH000004pIV2.0
REMARK                            x       y       z     vdW  Elec       q    Type
REMARK                         _______ _______ _______ _____ _____    ______ ____
ROOT
ATOM      1  C   LIG    1        0.878   8.254   5.492  0.00  0.00    -0.040 A 
ATOM      2  C   LIG    1        0.176   7.925   6.637  0.00  0.00    +0.020 A 
ATOM      3  C   LIG    1        0.812   7.938   7.865  0.00  0.00    +0.120 A 
ATOM      4  C   LIG    1        2.147   8.288   7.949  0.00  0.00    -0.670 A 
ATOM      5  C   LIG    1        2.846   8.623   6.804  0.00  0.00    +0.120 A 
ATOM      6  C   LIG    1        2.212   8.606   5.576  0.00  0.00    +0.020 A 
ENDROOT
BRANCH   4   7
ATOM      7  S   LIG    1        2.956   8.309   9.514  0.00  0.00    +2.690 S 
ATOM      8  O   LIG    1        4.343   8.149   9.250  0.00  0.00    -0.950 OA
ATOM      9  O   LIG    1        2.219   7.434  10.358  0.00  0.00    -0.950 OA
BRANCH   7  10
ATOM     10  N   LIG    1        2.771   9.830  10.141  0.00  0.00    -1.000 NA
ATOM     11  C   LIG    1        3.765  10.877   9.870  0.00  0.00    +0.290 C 
ATOM     12  C   LIG    1        3.038  12.105   9.299  0.00  0.00    +0.010 C 
ATOM     13  C   LIG    1        1.927  12.527  10.264  0.00  0.00    +0.020 C 
ATOM     14  C   LIG    1        0.913  11.390  10.406  0.00  0.00    +0.010 C 
ATOM     15  C   LIG    1        1.613  10.156  10.985  0.00  0.00    +0.290 C 
ENDBRANCH   7  10
ENDBRANCH   4   7
BRANCH   1  16
ATOM     16  C   LIG    1        0.186   8.236   4.154  0.00  0.00    +0.260 C 
BRANCH  16  20
ATOM     17  C   LIG    1        0.026   4.856   2.953  0.00  0.00    +0.180 A 
ATOM     18  N   LIG    1        1.123   5.299   2.415  0.00  0.00    -0.380 NA
ATOM     19  O   LIG    1        1.310   6.455   2.733  0.00  0.00    +0.080 OA
ATOM     20  C   LIG    1        0.325   6.869   3.535  0.00  0.00    +0.180 A 
ATOM     21  N   LIG    1       -0.498   5.858   3.681  0.00  0.00    -0.470 NA
BRANCH  17  26
ATOM     22  C   LIG    1       -0.013   1.086   0.008  0.00  0.00    +0.030 C 
ATOM     23  C   LIG    1       -0.729   1.579   1.267  0.00  0.00    -0.020 C 
ATOM     24  C   LIG    1        0.035   1.120   2.522  0.00  0.00    +0.020 C 
ATOM     25  C   LIG    1        0.460   2.400   3.271  0.00  0.00    +0.030 C 
ATOM     26  C   LIG    1       -0.550   3.473   2.794  0.00  0.00    +0.100 C 
ATOM     27  C   LIG    1       -0.742   3.122   1.297  0.00  0.00    +0.030 C 
ENDBRANCH  17  26
ENDBRANCH  16  20
ENDBRANCH   1  16
TORSDOF 5
