REMARK  Name = ZINCpk00000xIlnt.0
REMARK                            x       y       z     vdW  Elec       q    Type
REMARK                         _______ _______ _______ _____ _____    ______ ____
ROOT
ATOM      1  O   LIG    1        1.028   1.966   0.003  0.00  0.00    -0.580 OA
ATOM      2  C   LIG    1       -0.016   1.344   0.009  0.00  0.00    +0.710 C 
ATOM      3  N   LIG    1        0.002  -0.004   0.002  0.00  0.00    -0.740 N 
ATOM      4  H   LIG    1       -0.831  -0.500   0.007  0.00  0.00    +0.400 HD
ATOM      5  N   LIG    1       -1.192   2.002   0.019  0.00  0.00    -0.740 N 
ATOM      6  H   LIG    1       -2.026   1.505   0.020  0.00  0.00    +0.400 HD
ENDROOT
BRANCH   3   7
ATOM      7  C   LIG    1        1.281  -0.719  -0.014  0.00  0.00    +0.260 C 
ATOM      8  C   LIG    1        1.093  -2.114   0.591  0.00  0.00    +0.040 C 
ATOM      9  C   LIG    1        2.466  -2.770   0.784  0.00  0.00    +0.180 C 
ATOM     10  C   LIG    1        3.245  -2.621  -0.500  0.00  0.00    +0.270 A 
ATOM     11  N   LIG    1        4.317  -3.265  -0.866  0.00  0.00    -0.540 NA
ATOM     12  C   LIG    1        4.704  -2.848  -2.074  0.00  0.00    +0.420 A 
ATOM     13  N   LIG    1        3.873  -1.926  -2.492  0.00  0.00    -0.310 NA
ATOM     14  N   LIG    1        2.918  -1.762  -1.485  0.00  0.00    -0.370 N 
ATOM     15  C   LIG    1        1.774  -0.851  -1.459  0.00  0.00    +0.310 C 
ENDBRANCH   3   7
BRANCH   5  16
ATOM     16  C   LIG    1       -1.212   3.466   0.027  0.00  0.00    +0.280 C 
BRANCH  16  17
ATOM     17  C   LIG    1       -2.662   3.957   0.036  0.00  0.00    +0.040 C 
BRANCH  17  18
ATOM     18  C   LIG    1       -2.682   5.487   0.045  0.00  0.00    +0.150 C 
BRANCH  18  19
ATOM     19  C   LIG    1       -4.110   5.970   0.054  0.00  0.00    +0.290 A 
ATOM     20  N   LIG    1       -5.014   5.638  -0.820  0.00  0.00    -0.490 NA
ATOM     21  C   LIG    1       -6.189   6.247  -0.515  0.00  0.00    +0.050 A 
ATOM     22  C   LIG    1       -7.458   6.242  -1.101  0.00  0.00    +0.070 A 
ATOM     23  C   LIG    1       -8.465   6.982  -0.549  0.00  0.00    +0.000 A 
ATOM     24  C   LIG    1       -8.242   7.742   0.590  0.00  0.00    +0.030 A 
ATOM     25  C   LIG    1       -6.999   7.762   1.185  0.00  0.00    +0.010 A 
ATOM     26  C   LIG    1       -5.963   7.017   0.639  0.00  0.00    +0.050 A 
ATOM     27  N   LIG    1       -4.639   6.820   0.975  0.00  0.00    -0.600 N 
ATOM     28  H   LIG    1       -4.172   7.215   1.728  0.00  0.00    +0.420 HD
ENDBRANCH  18  19
ENDBRANCH  17  18
ENDBRANCH  16  17
ENDBRANCH   5  16
TORSDOF 5
