REMARK  Name = ZINCtV00000L6k8C.0
REMARK                            x       y       z     vdW  Elec       q    Type
REMARK                         _______ _______ _______ _____ _____    ______ ____
ROOT
ATOM      1  P   LIG    1       -1.442   1.766   0.030  0.00  0.00    +2.660 P 
ATOM      2  C   LIG    1       -1.586   2.753   1.562  0.00  0.00    -0.720 C 
ATOM      3  C   LIG    1       -2.739   2.624   2.233  0.00  0.00    +0.220 C 
ATOM      4  O   LIG    1       -3.760   1.856   1.845  0.00  0.00    -0.270 OA
ATOM      5  C   LIG    1       -3.772   0.820   1.003  0.00  0.00    +0.230 C 
ATOM      6  O   LIG    1       -1.562   2.641  -1.157  0.00  0.00    -1.020 OA
ATOM      7  C   LIG    1       -2.831   0.579   0.084  0.00  0.00    -0.730 C 
ENDROOT
BRANCH   5   8
ATOM      8  C   LIG    1       -4.906  -0.128   1.093  0.00  0.00    -0.080 A 
ATOM      9  C   LIG    1       -4.972  -1.224   0.234  0.00  0.00    +0.050 A 
ATOM     10  C   LIG    1       -6.029  -2.107   0.327  0.00  0.00    +0.010 A 
ATOM     11  C   LIG    1       -7.027  -1.900   1.262  0.00  0.00    +0.030 A 
ATOM     12  C   LIG    1       -6.970  -0.810   2.113  0.00  0.00    +0.010 A 
ATOM     13  C   LIG    1       -5.916   0.076   2.034  0.00  0.00    +0.050 A 
ENDBRANCH   5   8
BRANCH   3  14
ATOM     14  C   LIG    1       -2.892   3.390   3.491  0.00  0.00    -0.070 A 
ATOM     15  C   LIG    1       -1.855   4.204   3.946  0.00  0.00    +0.050 A 
ATOM     16  C   LIG    1       -2.006   4.920   5.115  0.00  0.00    +0.010 A 
ATOM     17  C   LIG    1       -3.179   4.822   5.843  0.00  0.00    +0.030 A 
ATOM     18  C   LIG    1       -4.209   4.012   5.400  0.00  0.00    +0.010 A 
ATOM     19  C   LIG    1       -4.072   3.296   4.229  0.00  0.00    +0.040 A 
ENDBRANCH   3  14
BRANCH   1  20
ATOM     20  N   LIG    1       -0.011   0.966   0.003  0.00  0.00    -1.110 N 
ATOM     21  H   LIG    1        0.002  -0.004  -0.013  0.00  0.00    +0.410 HD
BRANCH  20  25
ATOM     22  C   LIG    1        3.571   3.099  -0.018  0.00  0.00    +0.180 A 
ATOM     23  C   LIG    1        3.590   1.711  -0.040  0.00  0.00    -0.030 A 
ATOM     24  C   LIG    1        2.404   1.004  -0.033  0.00  0.00    +0.020 A 
ATOM     25  C   LIG    1        1.192   1.682  -0.004  0.00  0.00    +0.130 A 
ATOM     26  C   LIG    1        1.173   3.070   0.013  0.00  0.00    -0.010 A 
ATOM     27  C   LIG    1        2.359   3.777   0.011  0.00  0.00    -0.020 A 
BRANCH  22  29
ATOM     28  C   LIG    1        6.051   3.104   0.072  0.00  0.00    +0.280 C 
ATOM     29  N   LIG    1        4.774   3.816  -0.024  0.00  0.00    -0.640 N 
ATOM     30  C   LIG    1        4.755   5.277  -0.127  0.00  0.00    +0.270 C 
ENDBRANCH  22  29
ENDBRANCH  20  25
ENDBRANCH   1  20
TORSDOF 5
