REMARK  Name = ZINCrD00000F5LA5.0
REMARK                            x       y       z     vdW  Elec       q    Type
REMARK                         _______ _______ _______ _____ _____    ______ ____
ROOT
ATOM      1  C   LIG    1       -1.136  -2.165   0.001  0.00  0.00    -0.040 A 
ATOM      2  C   LIG    1       -2.232  -3.011   0.013  0.00  0.00    +0.040 A 
ATOM      3  C   LIG    1       -1.702  -4.303  -0.004  0.00  0.00    +0.050 A 
ATOM      4  N   LIG    1       -0.397  -4.201  -0.016  0.00  0.00    -0.250 NA
ATOM      5  N   LIG    1       -0.032  -2.970  -0.013  0.00  0.00    -0.380 N 
ATOM      6  H   LIG    1        0.886  -2.659  -0.020  0.00  0.00    +0.440 HD
ENDROOT
BRANCH   3   7
ATOM      7  C   LIG    1       -2.492  -5.586  -0.003  0.00  0.00    +0.030 C 
ATOM      8  C   LIG    1       -3.063  -5.832   1.395  0.00  0.00    +0.030 C 
ATOM      9  C   LIG    1       -3.865  -7.135   1.397  0.00  0.00    -0.020 C 
ATOM     10  C   LIG    1       -5.011  -7.029   0.388  0.00  0.00    +0.010 C 
ATOM     11  C   LIG    1       -4.440  -6.783  -1.009  0.00  0.00    -0.010 C 
ATOM     12  C   LIG    1       -3.524  -7.946  -1.398  0.00  0.00    +0.010 C 
ATOM     13  C   LIG    1       -2.378  -8.052  -0.390  0.00  0.00    -0.020 C 
ATOM     14  C   LIG    1       -2.950  -8.297   1.008  0.00  0.00    +0.010 C 
ATOM     15  C   LIG    1       -3.638  -5.480  -1.011  0.00  0.00    +0.030 C 
ATOM     16  C   LIG    1       -1.576  -6.749  -0.391  0.00  0.00    +0.040 C 
ENDBRANCH   3   7
BRANCH   1  18
ATOM     17  O   LIG    1       -2.218  -0.100   0.023  0.00  0.00    -0.480 OA
ATOM     18  C   LIG    1       -1.156  -0.694   0.009  0.00  0.00    +0.610 C 
ATOM     19  N   LIG    1        0.002  -0.004   0.002  0.00  0.00    -0.590 N 
ATOM     20  H   LIG    1        0.849  -0.478  -0.009  0.00  0.00    +0.380 HD
BRANCH  19  21
ATOM     21  N   LIG    1       -0.017   1.397   0.010  0.00  0.00    -0.200 NA
ATOM     22  C   LIG    1        1.099   2.061   0.003  0.00  0.00    +0.230 C 
BRANCH  22  23
ATOM     23  C   LIG    1        1.079   3.535   0.011  0.00  0.00    -0.090 A 
ATOM     24  C   LIG    1        2.276   4.253   0.003  0.00  0.00    +0.060 A 
ATOM     25  C   LIG    1        2.250   5.632   0.011  0.00  0.00    -0.010 A 
ATOM     26  C   LIG    1        1.042   6.308   0.026  0.00  0.00    +0.050 A 
ATOM     27  C   LIG    1       -0.150   5.608   0.035  0.00  0.00    -0.020 A 
ATOM     28  C   LIG    1       -0.143   4.223   0.020  0.00  0.00    +0.150 A 
BRANCH  28  29
ATOM     29  O   LIG    1       -1.314   3.535   0.022  0.00  0.00    -0.470 OA
ATOM     30  H   LIG    1       -1.649   3.331   0.906  0.00  0.00    +0.390 HD
ENDBRANCH  28  29
ENDBRANCH  22  23
ENDBRANCH  19  21
ENDBRANCH   1  18
TORSDOF 5
