REMARK  Name = ZINCpe000000XKxz.0
REMARK                            x       y       z     vdW  Elec       q    Type
REMARK                         _______ _______ _______ _____ _____    ______ ____
ROOT
ATOM      1  C   LIG    1       -0.019   1.046   0.020  0.00  0.00    +0.170 C 
ATOM      2  C   LIG    1       -0.722   1.545   1.256  0.00  0.00    +0.110 A 
ATOM      3  N   LIG    1       -0.147   1.821   2.402  0.00  0.00    -0.310 NA
ATOM      4  N   LIG    1       -1.126   2.256   3.305  0.00  0.00    -0.350 N 
ATOM      5  C   LIG    1       -2.331   2.233   2.659  0.00  0.00    +0.310 A 
ATOM      6  N   LIG    1       -3.474   2.600   3.269  0.00  0.00    -0.550 NA
ATOM      7  C   LIG    1       -3.498   3.001   4.521  0.00  0.00    +0.520 A 
ATOM      8  C   LIG    1       -2.239   3.051   5.277  0.00  0.00    -0.150 A 
ATOM      9  C   LIG    1       -2.198   3.467   6.608  0.00  0.00    +0.070 A 
ATOM     10  C   LIG    1       -0.991   3.495   7.273  0.00  0.00    +0.000 A 
ATOM     11  C   LIG    1        0.177   3.114   6.629  0.00  0.00    +0.080 A 
ATOM     12  C   LIG    1        0.151   2.700   5.313  0.00  0.00    +0.020 A 
ATOM     13  C   LIG    1       -1.053   2.665   4.625  0.00  0.00    +0.210 A 
ATOM     14  C   LIG    1       -2.085   1.792   1.366  0.00  0.00    -0.110 A 
ENDROOT
BRANCH   7  15
ATOM     15  N   LIG    1       -4.688   3.370   5.116  0.00  0.00    -0.610 N 
ATOM     16  C   LIG    1       -5.122   3.747   6.471  0.00  0.00    +0.330 C 
ATOM     17  C   LIG    1       -6.514   3.239   6.107  0.00  0.00    -0.120 C 
ATOM     18  C   LIG    1       -7.653   4.118   6.619  0.00  0.00    +0.090 C 
ATOM     19  C   LIG    1       -8.010   3.654   8.039  0.00  0.00    +0.160 C 
ATOM     20  C   LIG    1       -8.557   2.229   7.972  0.00  0.00    +0.240 C 
ATOM     21  N   LIG    1       -7.646   1.348   7.254  0.00  0.00    -0.720 N 
ATOM     22  H   LIG    1       -7.709   0.394   7.416  0.00  0.00    +0.410 HD
ATOM     23  C   LIG    1       -6.726   1.781   6.383  0.00  0.00    +0.540 C 
ATOM     24  O   LIG    1       -6.042   0.967   5.799  0.00  0.00    -0.520 OA
ATOM     25  C   LIG    1       -6.080   3.554   4.675  0.00  0.00    +0.350 C 
BRANCH  19  26
ATOM     26  O   LIG    1       -9.002   4.522   8.590  0.00  0.00    -0.550 OA
ATOM     27  H   LIG    1       -9.275   4.287   9.488  0.00  0.00    +0.390 HD
ENDBRANCH  19  26
ENDBRANCH   7  15
TORSDOF 2
