REMARK  Name = ZINCqH0000031DxD.0
REMARK                            x       y       z     vdW  Elec       q    Type
REMARK                         _______ _______ _______ _____ _____    ______ ____
ROOT
ATOM      1  C   LIG    1       -0.040  -0.044   0.031  0.00  0.00    +0.200 C 
ATOM      2  C   LIG    1       -0.126   1.482   0.107  0.00  0.00    +0.050 C 
ATOM      3  C   LIG    1        1.237   0.794   0.070  0.00  0.00    -0.120 C 
ATOM      4  C   LIG    1        2.064   0.777   1.360  0.00  0.00    +0.070 C 
ATOM      5  C   LIG    1        3.024   1.972   1.341  0.00  0.00    +0.170 C 
ATOM      6  N   LIG    1        3.840   1.925   0.121  0.00  0.00    -0.530 NA
ATOM      7  C   LIG    1        3.019   2.093  -1.085  0.00  0.00    +0.180 C 
ATOM      8  C   LIG    1        2.059   0.905  -1.218  0.00  0.00    +0.080 C 
ENDROOT
BRANCH   1  11
ATOM      9  C   LIG    1       -1.142  -0.563  -3.595  0.00  0.00    +0.090 C 
ATOM     10  C   LIG    1       -0.650   0.080  -2.325  0.00  0.00    +0.520 C 
ATOM     11  N   LIG    1       -0.394  -0.679  -1.240  0.00  0.00    -0.570 N 
ATOM     12  O   LIG    1       -0.484   1.281  -2.277  0.00  0.00    -0.530 OA
BRANCH  11  13
ATOM     13  C   LIG    1       -0.471  -2.139  -1.334  0.00  0.00    +0.360 C 
BRANCH  13  14
ATOM     14  C   LIG    1       -1.893  -2.583  -1.102  0.00  0.00    -0.130 A 
ATOM     15  C   LIG    1       -2.774  -2.713  -2.095  0.00  0.00    -0.040 A 
ATOM     16  S   LIG    1       -4.319  -3.247  -1.446  0.00  0.00    +0.110 S 
ATOM     17  C   LIG    1       -3.662  -3.263   0.186  0.00  0.00    -0.040 A 
ATOM     18  C   LIG    1       -2.381  -2.892   0.155  0.00  0.00    +0.010 A 
ENDBRANCH  13  14
ENDBRANCH  11  13
ENDBRANCH   1  11
BRANCH   6  19
ATOM     19  C   LIG    1        4.916   2.924   0.168  0.00  0.00    +0.330 C 
BRANCH  19  20
ATOM     20  C   LIG    1        5.580   2.883   1.521  0.00  0.00    +0.190 A 
ATOM     21  N   LIG    1        6.600   2.140   1.843  0.00  0.00    -0.460 NA
ATOM     22  C   LIG    1        6.914   2.372   3.129  0.00  0.00    -0.020 A 
ATOM     23  C   LIG    1        6.052   3.288   3.600  0.00  0.00    -0.050 A 
ATOM     24  C   LIG    1        6.022   3.855   4.996  0.00  0.00    +0.180 C 
ATOM     25  C   LIG    1        8.031   1.722   3.904  0.00  0.00    +0.150 C 
ATOM     26  O   LIG    1        5.222   3.609   2.588  0.00  0.00    -0.200 OA
ENDBRANCH  19  20
ENDBRANCH   6  19
TORSDOF 5
