REMARK  Name = ZINCpk00000y6yN9.0
REMARK                            x       y       z     vdW  Elec       q    Type
REMARK                         _______ _______ _______ _____ _____    ______ ____
ROOT
ATOM      1  O   LIG    1        5.639   8.390   1.527  0.00  0.00    -0.530 OA
ATOM      2  C   LIG    1        4.675   8.469   0.795  0.00  0.00    +0.510 C 
ATOM      3  N   LIG    1        3.693   7.550   0.873  0.00  0.00    -0.610 N 
ATOM      4  C   LIG    1        2.429   7.581   0.123  0.00  0.00    +0.250 C 
ATOM      5  C   LIG    1        1.611   6.345   0.553  0.00  0.00    +0.030 C 
ATOM      6  C   LIG    1        2.216   5.992   1.938  0.00  0.00    +0.250 C 
ATOM      7  C   LIG    1        3.709   6.346   1.724  0.00  0.00    +0.270 C 
ENDROOT
BRANCH   6   8
ATOM      8  N   LIG    1        2.051   4.567   2.235  0.00  0.00    -0.690 N 
ATOM      9  H   LIG    1        2.717   3.929   1.933  0.00  0.00    +0.420 HD
BRANCH   8  10
ATOM     10  C   LIG    1        0.941   4.129   2.950  0.00  0.00    +0.420 A 
ATOM     11  N   LIG    1        0.045   4.998   3.355  0.00  0.00    -0.350 NA
ATOM     12  N   LIG    1       -1.078   4.580   4.075  0.00  0.00    -0.250 N 
ATOM     13  C   LIG    1       -2.140   5.248   4.605  0.00  0.00    +0.170 A 
ATOM     14  C   LIG    1       -2.943   4.327   5.189  0.00  0.00    +0.200 A 
ATOM     15  N   LIG    1       -2.389   3.124   5.036  0.00  0.00    -0.460 NA
ATOM     16  C   LIG    1       -1.256   3.252   4.359  0.00  0.00    +0.140 A 
ATOM     17  C   LIG    1       -0.291   2.320   3.929  0.00  0.00    +0.180 A 
ATOM     18  C   LIG    1        0.791   2.757   3.231  0.00  0.00    -0.050 A 
ENDBRANCH   8  10
ENDBRANCH   6   8
BRANCH   2  19
ATOM     19  C   LIG    1        4.575   9.595  -0.202  0.00  0.00    +0.270 C 
BRANCH  19  20
ATOM     20  C   LIG    1        3.502  10.559   0.235  0.00  0.00    -0.120 A 
ATOM     21  C   LIG    1        3.733  11.419   1.292  0.00  0.00    +0.020 A 
ATOM     22  C   LIG    1        2.750  12.306   1.688  0.00  0.00    +0.020 A 
ATOM     23  C   LIG    1        1.532  12.325   1.035  0.00  0.00    +0.020 A 
ATOM     24  C   LIG    1        1.298  11.461  -0.018  0.00  0.00    +0.010 A 
ATOM     25  C   LIG    1        2.283  10.578  -0.418  0.00  0.00    +0.020 A 
ENDBRANCH  19  20
BRANCH  19  26
ATOM     26  O   LIG    1        5.828  10.280  -0.274  0.00  0.00    -0.530 OA
ATOM     27  H   LIG    1        6.115  10.665   0.565  0.00  0.00    +0.390 HD
ENDBRANCH  19  26
ENDBRANCH   2  19
TORSDOF 5
