REMARK  Name = ZINCrH00000No4TL.0
REMARK                            x       y       z     vdW  Elec       q    Type
REMARK                         _______ _______ _______ _____ _____    ______ ____
ROOT
ATOM      1  C   LIG    1        1.456   4.421   0.012  0.00  0.00    +0.390 C 
ENDROOT
BRANCH   1   2
ATOM      2  C   LIG    1        1.594   5.083  -1.335  0.00  0.00    -0.130 A 
ATOM      3  C   LIG    1        0.967   6.290  -1.579  0.00  0.00    +0.060 A 
ATOM      4  C   LIG    1        1.098   6.901  -2.812  0.00  0.00    +0.020 A 
ATOM      5  C   LIG    1        1.846   6.299  -3.807  0.00  0.00    +0.060 A 
ATOM      6  C   LIG    1        2.470   5.089  -3.567  0.00  0.00    -0.010 A 
ATOM      7  C   LIG    1        2.344   4.480  -2.330  0.00  0.00    +0.110 A 
ATOM      8  F   LIG    1        2.953   3.297  -2.095  0.00  0.00    -0.140 F 
ENDBRANCH   1   2
BRANCH   1  14
ATOM      9  C   LIG    1        1.627   1.330  -0.124  0.00  0.00    +0.330 C 
ATOM     10  N   LIG    1        0.391   2.114  -0.076  0.00  0.00    -0.450 N 
ATOM     11  C   LIG    1       -0.886   1.619  -0.084  0.00  0.00    +0.130 A 
ATOM     12  C   LIG    1       -1.715   2.678  -0.034  0.00  0.00    +0.140 A 
ATOM     13  N   LIG    1       -0.966   3.790   0.011  0.00  0.00    -0.470 NA
ATOM     14  C   LIG    1        0.296   3.460  -0.017  0.00  0.00    +0.190 A 
ENDBRANCH   1  14
BRANCH   1  15
ATOM     15  N   LIG    1        1.220   5.441   1.036  0.00  0.00    -0.700 N 
ATOM     16  H   LIG    1        0.793   6.279   0.796  0.00  0.00    +0.410 HD
ATOM     17  C   LIG    1        1.594   5.216   2.311  0.00  0.00    +0.560 C 
ATOM     18  O   LIG    1        2.129   4.165   2.611  0.00  0.00    -0.540 OA
BRANCH  17  19
ATOM     19  C   LIG    1        1.358   6.235   3.333  0.00  0.00    -0.050 C 
ATOM     20  C   LIG    1        1.733   6.009   4.610  0.00  0.00    +0.130 C 
BRANCH  20  21
ATOM     21  C   LIG    1        1.495   7.033   5.637  0.00  0.00    -0.140 A 
ATOM     22  C   LIG    1        1.895   8.358   5.418  0.00  0.00    +0.140 A 
ATOM     23  C   LIG    1        1.662   9.314   6.387  0.00  0.00    -0.010 A 
ATOM     24  C   LIG    1        1.047   8.965   7.577  0.00  0.00    +0.100 A 
ATOM     25  C   LIG    1        0.654   7.658   7.804  0.00  0.00    -0.010 A 
ATOM     26  F   LIG    1        2.501   8.700   4.260  0.00  0.00    -0.120 F 
ATOM     27  C   LIG    1        0.873   6.689   6.845  0.00  0.00    +0.150 A 
ATOM     28  F   LIG    1        0.488   5.414   7.069  0.00  0.00    -0.120 F 
ENDBRANCH  20  21
ENDBRANCH  17  19
ENDBRANCH   1  15
TORSDOF 5
