REMARK  Name = ZINCrH000004tZUf.0
REMARK                            x       y       z     vdW  Elec       q    Type
REMARK                         _______ _______ _______ _____ _____    ______ ____
ROOT
ATOM      1  O   LIG    1       -5.290   2.932   2.285  0.00  0.00    -0.500 OA
ATOM      2  C   LIG    1       -5.766   2.242   1.409  0.00  0.00    +0.500 C 
ATOM      3  N   LIG    1       -6.726   1.344   1.706  0.00  0.00    -0.650 N 
ATOM      4  H   LIG    1       -7.164   0.849   0.995  0.00  0.00    +0.420 HD
ENDROOT
BRANCH   3   5
ATOM      5  C   LIG    1       -7.093   1.126   3.041  0.00  0.00    +0.190 A 
ATOM      6  C   LIG    1       -6.195   1.396   4.061  0.00  0.00    +0.040 A 
ATOM      7  C   LIG    1       -6.561   1.185   5.379  0.00  0.00    -0.010 A 
ATOM      8  C   LIG    1       -7.819   0.694   5.681  0.00  0.00    +0.020 A 
ATOM      9  C   LIG    1       -8.718   0.416   4.668  0.00  0.00    +0.020 A 
ATOM     10 CL   LIG    1       -5.437   1.531   6.656  0.00  0.00    -0.060 Cl
ATOM     11  C   LIG    1       -8.361   0.630   3.345  0.00  0.00    +0.060 A 
BRANCH  11  12
ATOM     12  N   LIG    1       -9.270   0.350   2.319  0.00  0.00    -0.500 N 
ATOM     13  C   LIG    1      -10.448   1.222   2.406  0.00  0.00    +0.180 C 
ATOM     14  C   LIG    1      -11.348   0.989   1.190  0.00  0.00    +0.020 C 
ATOM     15  C   LIG    1      -11.779  -0.480   1.155  0.00  0.00    +0.010 C 
ATOM     16  C   LIG    1      -10.533  -1.369   1.113  0.00  0.00    +0.020 C 
ATOM     17  C   LIG    1       -9.656  -1.067   2.331  0.00  0.00    +0.180 C 
ENDBRANCH  11  12
ENDBRANCH   3   5
BRANCH   2  18
ATOM     18  C   LIG    1       -5.284   2.387  -0.011  0.00  0.00    +0.360 C 
BRANCH  18  19
ATOM     19  N   LIG    1       -4.246   3.420  -0.071  0.00  0.00    -0.520 N 
ATOM     20  C   LIG    1       -4.593   4.713  -0.295  0.00  0.00    +0.600 A 
ATOM     21  N   LIG    1       -3.706   5.663  -0.344  0.00  0.00    -0.500 NA
ATOM     22  C   LIG    1       -2.388   5.412  -0.194  0.00  0.00    +0.070 A 
ATOM     23  C   LIG    1       -1.960   4.107   0.034  0.00  0.00    -0.230 A 
ATOM     24  C   LIG    1       -0.520   4.021   0.176  0.00  0.00    +0.080 A 
ATOM     25  C   LIG    1        0.118   5.171   0.057  0.00  0.00    -0.050 A 
ATOM     26  S   LIG    1       -1.000   6.490  -0.238  0.00  0.00    +0.200 S 
ATOM     27  C   LIG    1       -2.953   3.080   0.096  0.00  0.00    +0.570 A 
ATOM     28  O   LIG    1       -2.635   1.921   0.297  0.00  0.00    -0.520 OA
ENDBRANCH  18  19
ENDBRANCH   2  18
TORSDOF 4
