REMARK  Name = ZINCrD00000l2uPM.0
REMARK                            x       y       z     vdW  Elec       q    Type
REMARK                         _______ _______ _______ _____ _____    ______ ____
ROOT
ATOM      1  C   LIG    1       -0.578   1.254   0.609  0.00  0.00    +0.150 C 
ATOM      2  C   LIG    1       -0.109   0.849  -0.790  0.00  0.00    +0.070 C 
ENDROOT
BRANCH   1   3
ATOM      3  C   LIG    1       -2.007   0.818   0.806  0.00  0.00    +0.420 C 
ATOM      4  O   LIG    1       -2.258  -0.144   1.503  0.00  0.00    -0.420 OA
BRANCH   3   9
ATOM      5  C   LIG    1       -5.082   2.202  -0.507  0.00  0.00    -0.260 A 
ATOM      6  C   LIG    1       -4.121   3.043  -1.050  0.00  0.00    +0.120 A 
ATOM      7  N   LIG    1       -2.914   2.640  -0.631  0.00  0.00    -0.520 N 
ATOM      8  H   LIG    1       -2.071   3.060  -0.863  0.00  0.00    +0.420 HD
ATOM      9  C   LIG    1       -3.057   1.531   0.178  0.00  0.00    -0.100 A 
ATOM     10  C   LIG    1       -4.391   4.219  -1.953  0.00  0.00    +0.160 C 
ATOM     11  C   LIG    1       -4.400   1.241   0.273  0.00  0.00    -0.010 A 
ATOM     12  C   LIG    1       -5.023   0.115   1.058  0.00  0.00    +0.140 C 
BRANCH   5  14
ATOM     13  C   LIG    1       -7.371   3.127   0.227  0.00  0.00    +0.080 C 
ATOM     14  C   LIG    1       -6.532   2.293  -0.707  0.00  0.00    +0.440 C 
ATOM     15  O   LIG    1       -7.056   1.697  -1.625  0.00  0.00    -0.450 OA
ENDBRANCH   5  14
ENDBRANCH   3   9
ENDBRANCH   1   3
BRANCH   1  16
ATOM     16  O   LIG    1        0.264   0.617   1.606  0.00  0.00    -0.330 OA
BRANCH  16  17
ATOM     17  C   LIG    1        1.357   1.289   2.000  0.00  0.00    +0.460 C 
ATOM     18  O   LIG    1        1.603   2.373   1.527  0.00  0.00    -0.500 OA
BRANCH  17  19
ATOM     19  C   LIG    1        2.287   0.685   3.040  0.00  0.00    +0.050 C 
ATOM     20  C   LIG    1        1.465   0.379   4.282  0.00  0.00    +0.070 C 
ATOM     21  C   LIG    1        2.320   0.028   5.496  0.00  0.00    -0.020 C 
ATOM     22  C   LIG    1        3.065  -1.287   5.283  0.00  0.00    +0.040 C 
ATOM     23  C   LIG    1        4.128  -1.213   4.205  0.00  0.00    +0.010 C 
ATOM     24  C   LIG    1        5.030   0.004   4.274  0.00  0.00    +0.040 C 
ATOM     25  C   LIG    1        4.276   1.312   4.494  0.00  0.00    -0.030 C 
ATOM     26  C   LIG    1        3.349   1.128   5.682  0.00  0.00    +0.370 C 
ATOM     27  O   LIG    1        3.423   1.795   6.683  0.00  0.00    -0.440 OA
ATOM     28  C   LIG    1        3.423   1.666   3.279  0.00  0.00    +0.070 C 
ENDBRANCH  17  19
ENDBRANCH  16  17
ENDBRANCH   1  16
TORSDOF 6
