REMARK  Name = ZINCrH000004uRcm.0
REMARK                            x       y       z     vdW  Elec       q    Type
REMARK                         _______ _______ _______ _____ _____    ______ ____
ROOT
ATOM      1  C   LIG    1        5.262   7.580   0.259  0.00  0.00    -0.150 A 
ATOM      2  C   LIG    1        5.858   6.321   0.151  0.00  0.00    +0.100 A 
ATOM      3  C   LIG    1        5.071   5.194   0.065  0.00  0.00    +0.020 A 
ATOM      4  C   LIG    1        3.684   5.309   0.085  0.00  0.00    +0.170 A 
ATOM      5  C   LIG    1        3.088   6.562   0.186  0.00  0.00    -0.010 A 
ATOM      6  C   LIG    1        3.869   7.692   0.280  0.00  0.00    +0.070 A 
ENDROOT
BRANCH   1   8
ATOM      7  O   LIG    1        7.314   8.691   0.335  0.00  0.00    -0.530 OA
ATOM      8  C   LIG    1        6.103   8.790   0.352  0.00  0.00    +0.560 C 
ATOM      9  N   LIG    1        5.527  10.004   0.457  0.00  0.00    -0.720 N 
ATOM     10  H   LIG    1        4.560  10.083   0.471  0.00  0.00    +0.400 HD
BRANCH   9  11
ATOM     11  C   LIG    1        6.361  11.205   0.549  0.00  0.00    +0.290 C 
ATOM     12  C   LIG    1        5.582  12.312   1.264  0.00  0.00    +0.010 C 
ATOM     13  C   LIG    1        6.349  13.630   1.089  0.00  0.00    +0.260 C 
ATOM     14  O   LIG    1        6.355  13.966  -0.299  0.00  0.00    -0.320 OA
ATOM     15  C   LIG    1        6.720  13.002  -1.184  0.00  0.00    +0.140 A 
ATOM     16  C   LIG    1        7.080  13.385  -2.472  0.00  0.00    -0.020 A 
ATOM     17  C   LIG    1        7.449  12.434  -3.402  0.00  0.00    +0.050 A 
ATOM     18  C   LIG    1        7.463  11.096  -3.053  0.00  0.00    -0.040 A 
ATOM     19  C   LIG    1        7.108  10.712  -1.774  0.00  0.00    +0.060 A 
ATOM     20  C   LIG    1        6.738  11.662  -0.837  0.00  0.00    -0.180 A 
ENDBRANCH   9  11
ENDBRANCH   1   8
BRANCH   4  21
ATOM     21  N   LIG    1        2.891   4.167  -0.004  0.00  0.00    -0.660 N 
ATOM     22  H   LIG    1        2.046   4.199  -0.480  0.00  0.00    +0.420 HD
ATOM     23  C   LIG    1        3.297   3.019   0.573  0.00  0.00    +0.610 C 
ATOM     24  O   LIG    1        4.392   2.956   1.099  0.00  0.00    -0.490 OA
BRANCH  23  25
ATOM     25  C   LIG    1        2.418   1.845   0.568  0.00  0.00    -0.090 A 
ATOM     26  C   LIG    1        2.703   0.626   1.113  0.00  0.00    +0.060 A 
ATOM     27  C   LIG    1        1.585  -0.191   0.883  0.00  0.00    -0.070 A 
ATOM     28  C   LIG    1        0.681   0.553   0.208  0.00  0.00    +0.220 A 
ATOM     29  O   LIG    1        1.185   1.780   0.023  0.00  0.00    -0.170 OA
ENDBRANCH  23  25
ENDBRANCH   4  21
TORSDOF 4
