REMARK  Name = ZINCbu0000000GD4.0
REMARK                            x       y       z     vdW  Elec       q    Type
REMARK                         _______ _______ _______ _____ _____    ______ ____
ROOT
ATOM      1  C   LIG    1       -2.080   2.502  -3.455  0.00  0.00    -0.060 A 
ATOM      2  C   LIG    1       -2.274   1.199  -3.012  0.00  0.00    +0.050 A 
ATOM      3  C   LIG    1       -1.605   0.745  -1.893  0.00  0.00    +0.080 A 
ATOM      4  C   LIG    1       -0.742   1.585  -1.213  0.00  0.00    -0.160 A 
ATOM      5  C   LIG    1       -0.550   2.884  -1.648  0.00  0.00    +0.020 A 
ATOM      6  C   LIG    1       -1.212   3.343  -2.769  0.00  0.00    +0.010 A 
ENDROOT
BRANCH   1   8
ATOM      7  C   LIG    1       -2.349   4.796  -5.035  0.00  0.00    +0.150 C 
ATOM      8  S   LIG    1       -2.932   3.085  -4.883  0.00  0.00    -0.080 S 
ENDBRANCH   1   8
BRANCH   4   9
ATOM      9  C   LIG    1       -0.013   1.086   0.008  0.00  0.00    +0.240 C 
ATOM     10  C   LIG    1       -0.729   1.579   1.267  0.00  0.00    +0.100 C 
BRANCH   9  11
ATOM     11  N   LIG    1        1.365   1.594  -0.002  0.00  0.00    -0.640 N 
ATOM     12  H   LIG    1        1.352   2.603   0.003  0.00  0.00    +0.430 HD
ATOM     13  H   LIG    1        1.838   1.269  -0.833  0.00  0.00    +0.440 HD
ATOM     14  H   LIG    1        1.853   1.260   0.815  0.00  0.00    +0.440 HD
ENDBRANCH   9  11
ENDBRANCH   4   9
TORSDOF 3
