REMARK  Name = ZINCpk00000KfKj1.0
REMARK                            x       y       z     vdW  Elec       q    Type
REMARK                         _______ _______ _______ _____ _____    ______ ____
ROOT
ATOM      1  N   LIG    1        3.710   1.712  -2.235  0.00  0.00    -0.510 NA
ATOM      2  C   LIG    1        3.995   1.274  -3.608  0.00  0.00    +0.170 C 
ATOM      3  C   LIG    1        5.494   1.003  -3.757  0.00  0.00    +0.040 C 
ATOM      4  C   LIG    1        5.914  -0.080  -2.759  0.00  0.00    +0.010 C 
ATOM      5  C   LIG    1        5.562   0.380  -1.341  0.00  0.00    +0.040 C 
ATOM      6  C   LIG    1        4.061   0.669  -1.262  0.00  0.00    +0.120 C 
ENDROOT
BRANCH   1   7
ATOM      7  C   LIG    1        2.304   2.113  -2.092  0.00  0.00    +0.220 C 
BRANCH   7  10
ATOM      8  N   LIG    1        0.701   3.571  -3.285  0.00  0.00    -0.650 N 
ATOM      9  H   LIG    1       -0.004   3.188  -2.740  0.00  0.00    +0.410 HD
ATOM     10  C   LIG    1        1.975   3.164  -3.121  0.00  0.00    +0.520 C 
ATOM     11  O   LIG    1        2.857   3.643  -3.802  0.00  0.00    -0.480 OA
BRANCH   8  16
ATOM     12  C   LIG    1        1.148   6.963  -6.918  0.00  0.00    +0.160 C 
ATOM     13  C   LIG    1        0.565   6.064  -5.859  0.00  0.00    +0.090 A 
ATOM     14  N   LIG    1       -0.698   5.993  -5.525  0.00  0.00    -0.290 NA
ATOM     15  N   LIG    1       -0.833   5.038  -4.509  0.00  0.00    -0.390 N 
ATOM     16  C   LIG    1        0.396   4.543  -4.237  0.00  0.00    +0.310 A 
ATOM     17  C   LIG    1       -2.084   4.647  -3.854  0.00  0.00    +0.360 C 
ATOM     18  C   LIG    1        1.280   5.163  -5.066  0.00  0.00    -0.110 A 
ENDBRANCH   8  16
ENDBRANCH   7  10
ENDBRANCH   1   7
BRANCH   6  19
ATOM     19  C   LIG    1        3.708   1.149   0.147  0.00  0.00    +0.350 C 
BRANCH  19  20
ATOM     20  N   LIG    1        2.272   0.974   0.377  0.00  0.00    -0.380 N 
ATOM     21  N   LIG    1        1.290   1.978   0.372  0.00  0.00    -0.330 NA
ATOM     22  C   LIG    1        0.149   1.392   0.619  0.00  0.00    +0.230 A 
ATOM     23  N   LIG    1        0.359   0.085   0.778  0.00  0.00    -0.540 NA
ATOM     24  C   LIG    1       -1.189   2.080   0.705  0.00  0.00    +0.200 C 
ATOM     25  C   LIG    1        1.632  -0.180   0.635  0.00  0.00    +0.290 A 
ATOM     26  C   LIG    1        2.270  -1.541   0.741  0.00  0.00    +0.190 C 
ENDBRANCH  19  20
ENDBRANCH   6  19
TORSDOF 5
