REMARK  Name = ZINCtV000002pXuD.0
REMARK                            x       y       z     vdW  Elec       q    Type
REMARK                         _______ _______ _______ _____ _____    ______ ____
ROOT
ATOM      1  N   LIG    1       -1.231  -3.379  -2.731  0.00  0.00    -0.510 N 
ATOM      2  C   LIG    1       -0.747  -2.368  -1.984  0.00  0.00    +0.560 A 
ATOM      3  C   LIG    1       -1.552  -1.842  -0.931  0.00  0.00    -0.230 A 
ATOM      4  C   LIG    1       -2.808  -2.403  -0.725  0.00  0.00    +0.090 A 
ATOM      5  S   LIG    1       -3.609  -1.598   0.618  0.00  0.00    +0.210 S 
ATOM      6  C   LIG    1       -2.247  -0.527   0.883  0.00  0.00    -0.050 A 
ATOM      7  N   LIG    1       -3.224  -3.415  -1.514  0.00  0.00    -0.510 NA
ATOM      8  C   LIG    1       -1.270  -0.765   0.011  0.00  0.00    +0.010 A 
ATOM      9  O   LIG    1        0.361  -1.909  -2.205  0.00  0.00    -0.500 OA
ATOM     10  C   LIG    1       -2.472  -3.888  -2.478  0.00  0.00    +0.380 A 
ENDROOT
BRANCH   8  11
ATOM     11  C   LIG    1        0.002  -0.004   0.002  0.00  0.00    -0.050 A 
ATOM     12  C   LIG    1       -0.017   1.390   0.010  0.00  0.00    +0.020 A 
ATOM     13  C   LIG    1        1.170   2.094   0.002  0.00  0.00    -0.010 A 
ATOM     14  C   LIG    1        2.378   1.418  -0.013  0.00  0.00    -0.080 A 
ATOM     15  C   LIG    1        2.403   0.035  -0.021  0.00  0.00    +0.000 A 
ATOM     16  C   LIG    1        3.671   2.192  -0.020  0.00  0.00    +0.090 C 
ATOM     17  C   LIG    1        1.222  -0.679  -0.013  0.00  0.00    +0.060 A 
ENDBRANCH   8  11
BRANCH   1  18
ATOM     18  C   LIG    1       -0.421  -3.936  -3.818  0.00  0.00    +0.340 C 
BRANCH  18  20
ATOM     19  C   LIG    1        0.364  -6.247  -3.848  0.00  0.00    +0.060 C 
ATOM     20  C   LIG    1        0.424  -5.065  -3.287  0.00  0.00    -0.060 C 
ENDBRANCH  18  20
ENDBRANCH   1  18
BRANCH  10  21
ATOM     21  S   LIG    1       -3.078  -5.211  -3.472  0.00  0.00    +0.020 S 
BRANCH  21  22
ATOM     22  C   LIG    1       -4.700  -5.459  -2.709  0.00  0.00    +0.160 C 
BRANCH  22  23
ATOM     23  C   LIG    1       -5.422  -6.577  -3.416  0.00  0.00    -0.100 A 
ATOM     24  C   LIG    1       -6.236  -6.299  -4.498  0.00  0.00    +0.040 A 
ATOM     25  C   LIG    1       -6.895  -7.325  -5.149  0.00  0.00    +0.010 A 
ATOM     26  C   LIG    1       -6.747  -8.628  -4.713  0.00  0.00    -0.070 A 
ATOM     27  C   LIG    1       -5.937  -8.906  -3.628  0.00  0.00    +0.010 A 
ATOM     28  C   LIG    1       -7.469  -9.746  -5.420  0.00  0.00    +0.090 C 
ATOM     29  C   LIG    1       -5.275  -7.880  -2.979  0.00  0.00    +0.040 A 
ENDBRANCH  22  23
ENDBRANCH  21  22
ENDBRANCH  10  21
TORSDOF 6
