REMARK  Name = ZINCvU000000087M.0
REMARK                            x       y       z     vdW  Elec       q    Type
REMARK                         _______ _______ _______ _____ _____    ______ ____
ROOT
ATOM      1  C   LIG    1        4.418   5.301  -1.961  0.00  0.00    -0.260 A 
ATOM      2  C   LIG    1        5.381   4.602  -1.342  0.00  0.00    +0.180 A 
ATOM      3  C   LIG    1        4.982   3.366  -0.818  0.00  0.00    -0.210 A 
ATOM      4  C   LIG    1        3.642   3.091  -1.040  0.00  0.00    +0.020 A 
ATOM      5  N   LIG    1        3.378   1.866  -0.486  0.00  0.00    -0.300 N 
ATOM      6  N   LIG    1        4.559   1.386   0.087  0.00  0.00    -0.250 NA
ATOM      7  C   LIG    1        5.513   2.248  -0.102  0.00  0.00    +0.150 A 
ATOM      8  C   LIG    1        6.939   2.098   0.362  0.00  0.00    +0.180 C 
ATOM      9  S   LIG    1        2.900   4.420  -1.922  0.00  0.00    +0.210 S 
ENDROOT
BRANCH   5  10
ATOM     10  C   LIG    1        2.139   1.212  -0.487  0.00  0.00    +0.170 A 
ATOM     11  C   LIG    1        2.083  -0.172  -0.591  0.00  0.00    +0.040 A 
ATOM     12  C   LIG    1        0.861  -0.814  -0.592  0.00  0.00    +0.070 A 
ATOM     13  C   LIG    1       -0.307  -0.082  -0.489  0.00  0.00    +0.030 A 
ATOM     14  C   LIG    1       -0.255   1.298  -0.384  0.00  0.00    -0.010 A 
ATOM     15 CL   LIG    1       -1.725   2.214  -0.261  0.00  0.00    -0.050 Cl
ATOM     16  C   LIG    1        0.965   1.946  -0.384  0.00  0.00    +0.010 A 
ENDBRANCH   5  10
BRANCH   1  21
ATOM     17  C   LIG    1        3.333   8.542  -3.807  0.00  0.00    +0.250 C 
ATOM     18  C   LIG    1        2.253   7.875  -4.669  0.00  0.00    +0.050 C 
ATOM     19  C   LIG    1        2.172   6.893  -3.496  0.00  0.00    +0.260 C 
ATOM     20  N   LIG    1        3.568   7.233  -3.179  0.00  0.00    -0.650 N 
ATOM     21  C   LIG    1        4.606   6.615  -2.582  0.00  0.00    +0.630 C 
ATOM     22  O   LIG    1        5.699   7.149  -2.558  0.00  0.00    -0.520 OA
BRANCH  17  23
ATOM     23  C   LIG    1        4.528   9.054  -4.614  0.00  0.00    +0.090 C 
BRANCH  23  27
ATOM     24  C   LIG    1        3.699  12.995  -6.044  0.00  0.00    +0.120 A 
ATOM     25  C   LIG    1        4.401  12.819  -4.860  0.00  0.00    -0.020 A 
ATOM     26  C   LIG    1        4.668  11.544  -4.400  0.00  0.00    +0.060 A 
ATOM     27  C   LIG    1        4.236  10.444  -5.118  0.00  0.00    -0.120 A 
ATOM     28  C   LIG    1        3.541  10.617  -6.301  0.00  0.00    +0.050 A 
ATOM     29  C   LIG    1        3.267  11.890  -6.762  0.00  0.00    -0.080 A 
BRANCH  24  31
ATOM     30  C   LIG    1        2.708  14.354  -7.724  0.00  0.00    +0.250 C 
ATOM     31  O   LIG    1        3.436  14.248  -6.498  0.00  0.00    -0.320 OA
ENDBRANCH  24  31
ENDBRANCH  23  27
ENDBRANCH  17  23
ENDBRANCH   1  21
TORSDOF 5
