REMARK  Name = ZINCrD0000071ctT.0
REMARK                            x       y       z     vdW  Elec       q    Type
REMARK                         _______ _______ _______ _____ _____    ______ ____
ROOT
ATOM      1  N   LIG    1        1.459   3.170   0.130  0.00  0.00    -0.640 N 
ATOM      2  H   LIG    1        0.741   3.816   0.216  0.00  0.00    +0.410 HD
ATOM      3  C   LIG    1        2.739   3.587   0.077  0.00  0.00    +0.510 C 
ATOM      4  O   LIG    1        3.636   2.779  -0.031  0.00  0.00    -0.460 OA
ENDROOT
BRANCH   1  13
ATOM      5  N   LIG    1       -0.088   1.287   0.005  0.00  0.00    -0.490 N 
ATOM      6  C   LIG    1        0.049  -0.089  -0.053  0.00  0.00    +0.060 A 
ATOM      7  C   LIG    1       -0.850  -1.143  -0.124  0.00  0.00    +0.010 A 
ATOM      8  C   LIG    1       -0.383  -2.441  -0.171  0.00  0.00    +0.020 A 
ATOM      9  C   LIG    1        0.979  -2.699  -0.148  0.00  0.00    +0.000 A 
ATOM     10  C   LIG    1        1.886  -1.665  -0.078  0.00  0.00    +0.060 A 
ATOM     11  C   LIG    1        1.430  -0.345  -0.030  0.00  0.00    +0.060 A 
ATOM     12  N   LIG    1        2.058   0.858   0.041  0.00  0.00    -0.470 NA
ATOM     13  C   LIG    1        1.168   1.817   0.061  0.00  0.00    +0.500 A 
BRANCH   5  15
ATOM     14  C   LIG    1       -2.521   1.059  -0.095  0.00  0.00    +0.080 C 
ATOM     15  C   LIG    1       -1.348   2.036   0.002  0.00  0.00    +0.160 C 
ATOM     16  C   LIG    1       -1.374   2.985  -1.198  0.00  0.00    +0.060 C 
ATOM     17  C   LIG    1       -1.463   2.846   1.295  0.00  0.00    +0.060 C 
ENDBRANCH   5  15
ENDBRANCH   1  13
BRANCH   3  18
ATOM     18  C   LIG    1        3.055   5.059   0.151  0.00  0.00    +0.010 C 
ATOM     19  C   LIG    1        2.379   5.785  -1.014  0.00  0.00    +0.030 C 
ATOM     20  C   LIG    1        2.674   7.285  -0.915  0.00  0.00    +0.290 C 
ATOM     21  N   LIG    1        4.129   7.478  -0.847  0.00  0.00    -0.610 N 
ATOM     22  C   LIG    1        4.890   6.754   0.181  0.00  0.00    +0.280 C 
ATOM     23  C   LIG    1        4.753   8.303  -1.710  0.00  0.00    +0.550 C 
ATOM     24  O   LIG    1        5.955   8.453  -1.644  0.00  0.00    -0.540 OA
ATOM     25  C   LIG    1        4.570   5.260   0.070  0.00  0.00    +0.050 C 
BRANCH  23  26
ATOM     26  C   LIG    1        3.959   9.038  -2.759  0.00  0.00    -0.070 C 
ATOM     27  C   LIG    1        4.164   8.627  -4.218  0.00  0.00    +0.060 C 
ATOM     28  C   LIG    1        4.726   9.958  -3.710  0.00  0.00    +0.060 C 
ENDBRANCH  23  26
ENDBRANCH   3  18
TORSDOF 4
