REMARK  Name = ZINCqH0000051bH5.0
REMARK                            x       y       z     vdW  Elec       q    Type
REMARK                         _______ _______ _______ _____ _____    ______ ____
ROOT
ATOM      1  C   LIG    1        2.410   1.421   0.321  0.00  0.00    +0.190 A 
ATOM      2  C   LIG    1        1.202   2.102   0.329  0.00  0.00    -0.080 A 
ATOM      3  C   LIG    1        0.017   1.412   0.160  0.00  0.00    +0.080 A 
ATOM      4  C   LIG    1        0.026   0.038  -0.018  0.00  0.00    -0.030 A 
ATOM      5  C   LIG    1        1.217  -0.654  -0.029  0.00  0.00    +0.080 A 
ATOM      6  C   LIG    1        2.422   0.031   0.141  0.00  0.00    -0.170 A 
ENDROOT
BRANCH   6   7
ATOM      7  C   LIG    1        3.701  -0.704   0.130  0.00  0.00    +0.550 C 
ATOM      8  N   LIG    1        3.709  -2.041  -0.044  0.00  0.00    -0.680 N 
ATOM      9  H   LIG    1        2.872  -2.529  -0.085  0.00  0.00    +0.410 HD
ATOM     10  O   LIG    1        4.749  -0.104   0.278  0.00  0.00    -0.480 OA
BRANCH   8  11
ATOM     11  C   LIG    1        4.924  -2.723  -0.165  0.00  0.00    +0.150 A 
ATOM     12  C   LIG    1        6.007  -2.112  -0.783  0.00  0.00    +0.010 A 
ATOM     13  C   LIG    1        7.206  -2.787  -0.897  0.00  0.00    +0.030 A 
ATOM     14  C   LIG    1        7.327  -4.074  -0.405  0.00  0.00    -0.020 A 
ATOM     15  C   LIG    1        6.248  -4.687   0.207  0.00  0.00    +0.030 A 
ATOM     16  C   LIG    1        5.048  -4.016   0.328  0.00  0.00    -0.030 A 
ENDBRANCH   8  11
ENDBRANCH   6   7
BRANCH   1  17
ATOM     17  O   LIG    1        3.574   2.097   0.486  0.00  0.00    -0.250 OA
BRANCH  17  18
ATOM     18  C   LIG    1        3.483   3.512   0.664  0.00  0.00    +0.210 C 
BRANCH  18  20
ATOM     19  O   LIG    1        5.834   3.358   0.800  0.00  0.00    -0.500 OA
ATOM     20  C   LIG    1        4.866   4.088   0.830  0.00  0.00    +0.510 C 
ATOM     21  N   LIG    1        5.027   5.413   1.013  0.00  0.00    -0.730 N 
ATOM     22  H   LIG    1        4.252   5.997   1.038  0.00  0.00    +0.400 HD
BRANCH  21  23
ATOM     23  C   LIG    1        6.371   5.973   1.175  0.00  0.00    +0.240 C 
ATOM     24  C   LIG    1        6.794   5.867   2.642  0.00  0.00    +0.000 C 
ATOM     25  C   LIG    1        8.198   6.452   2.811  0.00  0.00    +0.020 C 
ATOM     26  C   LIG    1        8.193   7.921   2.386  0.00  0.00    +0.000 C 
ATOM     27  C   LIG    1        7.770   8.027   0.919  0.00  0.00    +0.020 C 
ATOM     28  C   LIG    1        6.366   7.442   0.750  0.00  0.00    +0.010 C 
ENDBRANCH  21  23
ENDBRANCH  18  20
ENDBRANCH  17  18
ENDBRANCH   1  17
TORSDOF 6
