REMARK  Name = ZINCnE000001MCnm.0
REMARK                            x       y       z     vdW  Elec       q    Type
REMARK                         _______ _______ _______ _____ _____    ______ ____
ROOT
ATOM      1  C   LIG    1        3.195   3.140  -0.014  0.00  0.00    +0.170 C 
ENDROOT
BRANCH   1   2
ATOM      2  C   LIG    1        3.343   4.628   0.175  0.00  0.00    -0.110 A 
ATOM      3  C   LIG    1        2.298   5.366   0.698  0.00  0.00    +0.080 A 
ATOM      4  C   LIG    1        2.436   6.730   0.877  0.00  0.00    -0.020 A 
ATOM      5  C   LIG    1        3.615   7.359   0.524  0.00  0.00    +0.010 A 
ATOM      6  C   LIG    1        4.659   6.624  -0.004  0.00  0.00    -0.030 A 
ATOM      7  C   LIG    1        4.525   5.257  -0.179  0.00  0.00    +0.080 A 
ATOM      8  F   LIG    1        5.545   4.538  -0.696  0.00  0.00    -0.140 F 
ENDBRANCH   1   2
BRANCH   1  10
ATOM      9  C   LIG    1        3.510   0.910   1.068  0.00  0.00    +0.060 C 
ATOM     10  C   LIG    1        3.776   2.411   1.199  0.00  0.00    +0.180 C 
BRANCH  10  11
ATOM     11  O   LIG    1        5.185   2.641   1.263  0.00  0.00    -0.570 OA
ATOM     12  H   LIG    1        5.428   3.573   1.347  0.00  0.00    +0.360 HD
ENDBRANCH  10  11
ENDBRANCH   1  10
BRANCH   1  13
ATOM     13  N   LIG    1        1.776   2.805  -0.152  0.00  0.00    -0.650 NA
BRANCH  13  14
ATOM     14  C   LIG    1        1.217   2.684  -1.402  0.00  0.00    +0.410 A 
ATOM     15  N   LIG    1       -0.012   2.289  -1.678  0.00  0.00    -0.590 NA
ATOM     16  C   LIG    1       -0.109   2.329  -3.025  0.00  0.00    +0.200 A 
ATOM     17  N   LIG    1        1.045   2.737  -3.486  0.00  0.00    -0.450 NA
ATOM     18  O   LIG    1        1.815   2.945  -2.573  0.00  0.00    -0.060 OA
BRANCH  16  19
ATOM     19  C   LIG    1       -1.302   1.973  -3.832  0.00  0.00    +0.020 A 
ATOM     20  C   LIG    1       -2.469   1.544  -3.203  0.00  0.00    +0.050 A 
ATOM     21  C   LIG    1       -3.578   1.220  -3.958  0.00  0.00    -0.010 A 
ATOM     22  C   LIG    1       -3.529   1.309  -5.337  0.00  0.00    +0.000 A 
ATOM     23  C   LIG    1       -2.372   1.729  -5.967  0.00  0.00    -0.010 A 
ATOM     24  C   LIG    1       -1.259   2.061  -5.222  0.00  0.00    +0.030 A 
ENDBRANCH  16  19
ENDBRANCH  13  14
ENDBRANCH   1  13
TORSDOF 6
