REMARK  Name = ZINCkj000005jJfD.0
REMARK                            x       y       z     vdW  Elec       q    Type
REMARK                         _______ _______ _______ _____ _____    ______ ____
ROOT
ATOM      1  N   LIG    1       -2.103   1.072   1.277  0.00  0.00    -0.700 N 
ATOM      2  H   LIG    1       -2.825   1.620   0.932  0.00  0.00    +0.420 HD
ATOM      3  C   LIG    1       -2.365  -0.156   1.766  0.00  0.00    +0.510 C 
ATOM      4  O   LIG    1       -1.462  -0.842   2.198  0.00  0.00    -0.520 OA
ENDROOT
BRANCH   3   5
ATOM      5  C   LIG    1       -3.779  -0.678   1.777  0.00  0.00    +0.180 C 
ATOM      6  C   LIG    1       -4.141  -1.282   0.398  0.00  0.00    +0.120 C 
ATOM      7  C   LIG    1       -5.276  -2.269   0.776  0.00  0.00    +0.210 C 
ATOM      8  C   LIG    1       -4.830  -2.799   2.156  0.00  0.00    +0.230 C 
ATOM      9  N   LIG    1       -3.905  -1.804   2.727  0.00  0.00    -0.500 N 
ATOM     10  H   LIG    1       -4.271  -1.467   3.605  0.00  0.00    +0.440 HD
ATOM     11  H   LIG    1       -3.000  -2.226   2.875  0.00  0.00    +0.440 HD
BRANCH   7  12
ATOM     12  O   LIG    1       -5.356  -3.335  -0.172  0.00  0.00    -0.540 OA
ATOM     13  H   LIG    1       -5.998  -4.020   0.059  0.00  0.00    +0.400 HD
ENDBRANCH   7  12
ENDBRANCH   3   5
BRANCH   1  15
ATOM     14  C   LIG    1       -0.013   1.086   0.008  0.00  0.00    +0.070 C 
ATOM     15  C   LIG    1       -0.729   1.579   1.267  0.00  0.00    +0.360 C 
BRANCH  15  16
ATOM     16  C   LIG    1       -0.749   3.086   1.275  0.00  0.00    -0.010 A 
ATOM     17  C   LIG    1        0.089   3.861   1.978  0.00  0.00    -0.010 A 
ATOM     18  C   LIG    1       -0.294   5.247   1.686  0.00  0.00    -0.140 A 
ATOM     19  C   LIG    1        0.176   6.494   2.093  0.00  0.00    +0.060 A 
ATOM     20  C   LIG    1       -0.426   7.638   1.617  0.00  0.00    +0.010 A 
ATOM     21  C   LIG    1       -1.495   7.551   0.736  0.00  0.00    +0.060 A 
ATOM     22  C   LIG    1       -1.969   6.323   0.325  0.00  0.00    +0.020 A 
ATOM     23  C   LIG    1       -1.376   5.158   0.794  0.00  0.00    +0.060 A 
ATOM     24  O   LIG    1       -1.607   3.848   0.574  0.00  0.00    -0.200 OA
ENDBRANCH  15  16
ENDBRANCH   1  15
TORSDOF 4
