REMARK  Name = ZINCvU0000000J0G.0
REMARK                            x       y       z     vdW  Elec       q    Type
REMARK                         _______ _______ _______ _____ _____    ______ ____
ROOT
ATOM      1  O   LIG    1        4.705   1.542   0.727  0.00  0.00    -0.520 OA
ATOM      2  C   LIG    1        4.121   2.606   0.781  0.00  0.00    +0.700 C 
ATOM      3  N   LIG    1        2.790   2.634   0.995  0.00  0.00    -0.640 N 
ATOM      4  H   LIG    1        2.324   3.484   1.038  0.00  0.00    +0.420 HD
ATOM      5  N   LIG    1        4.803   3.759   0.628  0.00  0.00    -0.740 N 
ATOM      6  H   LIG    1        4.336   4.608   0.671  0.00  0.00    +0.400 HD
ENDROOT
BRANCH   3   7
ATOM      7  C   LIG    1        2.087   1.446   1.153  0.00  0.00    +0.290 A 
ATOM      8  N   LIG    1        2.611   0.261   1.113  0.00  0.00    -0.470 NA
ATOM      9  C   LIG    1        1.793  -0.761   1.283  0.00  0.00    +0.260 A 
ATOM     10  C   LIG    1        0.517  -0.423   1.476  0.00  0.00    -0.240 A 
ATOM     11  S   LIG    1        0.403   1.334   1.429  0.00  0.00    +0.130 S 
BRANCH  10  12
ATOM     12  C   LIG    1       -0.627  -1.379   1.696  0.00  0.00    +0.190 C 
BRANCH  12  13
ATOM     13  C   LIG    1       -0.783  -1.646   3.171  0.00  0.00    -0.070 A 
ATOM     14  C   LIG    1       -1.609  -0.843   3.935  0.00  0.00    +0.020 A 
ATOM     15  C   LIG    1       -1.752  -1.088   5.289  0.00  0.00    +0.030 A 
ATOM     16  C   LIG    1       -1.069  -2.135   5.878  0.00  0.00    +0.020 A 
ATOM     17  C   LIG    1       -0.242  -2.939   5.113  0.00  0.00    -0.030 A 
ATOM     18 CL   LIG    1        0.616  -4.254   5.853  0.00  0.00    -0.070 Cl
ATOM     19  C   LIG    1       -0.103  -2.696   3.759  0.00  0.00    +0.030 A 
ENDBRANCH  12  13
ENDBRANCH  10  12
ENDBRANCH   3   7
BRANCH   5  20
ATOM     20  C   LIG    1        6.249   3.728   0.395  0.00  0.00    +0.290 C 
BRANCH  20  21
ATOM     21  C   LIG    1        6.774   5.159   0.257  0.00  0.00    +0.260 C 
BRANCH  21  22
ATOM     22  N   LIG    1        8.220   5.128   0.024  0.00  0.00    -1.110 NA
ATOM     23  H   LIG    1        8.722   4.318   0.202  0.00  0.00    +0.430 HD
BRANCH  22  24
ATOM     24  S   LIG    1        8.996   6.478  -0.541  0.00  0.00    +2.690 S 
ATOM     25  O   LIG    1        8.243   6.936  -1.656  0.00  0.00    -0.940 OA
ATOM     26  O   LIG    1       10.375   6.144  -0.618  0.00  0.00    -0.930 OA
BRANCH  24  27
ATOM     27  C   LIG    1        8.853   7.720   0.700  0.00  0.00    -0.660 A 
ATOM     28  C   LIG    1        8.149   8.880   0.438  0.00  0.00    +0.170 A 
ATOM     29  C   LIG    1        8.033   9.854   1.414  0.00  0.00    -0.100 A 
ATOM     30  C   LIG    1        8.630   9.671   2.648  0.00  0.00    +0.120 A 
ATOM     31  C   LIG    1        9.339   8.513   2.908  0.00  0.00    +0.050 A 
ATOM     32 BR   LIG    1        7.063  11.438   1.058  0.00  0.00    -0.020 Br
ATOM     33  C   LIG    1        9.450   7.537   1.934  0.00  0.00    +0.010 A 
ATOM     34 BR   LIG    1       10.419   5.953   2.290  0.00  0.00    -0.000 Br
ENDBRANCH  24  27
ENDBRANCH  22  24
ENDBRANCH  21  22
ENDBRANCH  20  21
ENDBRANCH   5  20
TORSDOF 8
