REMARK  Name = ZINCpk000000mQOQ.0
REMARK                            x       y       z     vdW  Elec       q    Type
REMARK                         _______ _______ _______ _____ _____    ______ ____
ROOT
ATOM      1  C   LIG    1       -4.228   0.819  -4.623  0.00  0.00    +0.100 C 
ATOM      2  C   LIG    1       -4.423   1.674  -3.398  0.00  0.00    +0.510 C 
ATOM      3  N   LIG    1       -3.606   1.527  -2.336  0.00  0.00    -0.610 N 
ATOM      4  C   LIG    1       -3.697   2.440  -1.189  0.00  0.00    +0.280 C 
ATOM      5  C   LIG    1       -3.870   1.612   0.088  0.00  0.00    +0.040 C 
ATOM      6  C   LIG    1       -2.734   0.591   0.186  0.00  0.00    -0.020 C 
ATOM      7  C   LIG    1       -2.792  -0.356  -1.015  0.00  0.00    +0.060 C 
ATOM      8  C   LIG    1       -2.607   0.450  -2.304  0.00  0.00    +0.280 C 
ATOM      9  O   LIG    1       -5.315   2.495  -3.367  0.00  0.00    -0.550 OA
ENDROOT
BRANCH   6  10
ATOM     10  C   LIG    1       -2.882  -0.203   1.459  0.00  0.00    -0.090 A 
ATOM     11  C   LIG    1       -3.989  -0.017   2.265  0.00  0.00    +0.020 A 
ATOM     12  C   LIG    1       -4.127  -0.748   3.430  0.00  0.00    +0.010 A 
ATOM     13  C   LIG    1       -3.152  -1.659   3.793  0.00  0.00    +0.010 A 
ATOM     14  C   LIG    1       -2.043  -1.841   2.990  0.00  0.00    +0.010 A 
ATOM     15  C   LIG    1       -1.907  -1.113   1.823  0.00  0.00    +0.010 A 
ENDBRANCH   6  10
BRANCH   6  16
ATOM     16  C   LIG    1       -1.410   1.311   0.195  0.00  0.00    +0.530 C 
ATOM     17  N   LIG    1       -1.195   2.315   1.067  0.00  0.00    -0.500 N 
ATOM     18  H   LIG    1       -1.917   2.628   1.634  0.00  0.00    +0.430 HD
ATOM     19  O   LIG    1       -0.539   0.987  -0.584  0.00  0.00    -0.530 OA
BRANCH  17  20
ATOM     20  N   LIG    1        0.074   2.903   1.160  0.00  0.00    -0.490 N 
ATOM     21  H   LIG    1        0.796   2.589   0.594  0.00  0.00    +0.450 HD
BRANCH  20  22
ATOM     22  C   LIG    1        0.296   3.930   2.061  0.00  0.00    +0.570 A 
ATOM     23  N   LIG    1       -0.703   4.349   2.823  0.00  0.00    -0.580 NA
ATOM     24  C   LIG    1       -0.522   5.326   3.697  0.00  0.00    +0.370 A 
ATOM     25  C   LIG    1        0.727   5.918   3.801  0.00  0.00    -0.140 A 
ATOM     26  C   LIG    1        1.748   5.458   2.985  0.00  0.00    +0.370 A 
ATOM     27  N   LIG    1        1.502   4.474   2.135  0.00  0.00    -0.560 NA
ENDBRANCH  20  22
ENDBRANCH  17  20
ENDBRANCH   6  16
TORSDOF 4
