REMARK  Name = ZINCrH000004ndKm.0
REMARK                            x       y       z     vdW  Elec       q    Type
REMARK                         _______ _______ _______ _____ _____    ______ ____
ROOT
ATOM      1  C   LIG    1        0.678  -4.162  -1.475  0.00  0.00    +0.600 C 
ATOM      2  N   LIG    1        0.822  -2.833  -1.308  0.00  0.00    -0.620 N 
ATOM      3  C   LIG    1        0.652  -1.810  -2.358  0.00  0.00    +0.280 C 
ATOM      4  C   LIG    1        1.489  -0.599  -1.874  0.00  0.00    +0.040 C 
ATOM      5  C   LIG    1        1.261  -0.655  -0.348  0.00  0.00    +0.110 C 
ATOM      6  C   LIG    1        2.443  -0.028   0.385  0.00  0.00    +0.030 C 
ATOM      7  C   LIG    1        2.571   1.432  -0.060  0.00  0.00    +0.090 C 
ATOM      8  C   LIG    1        1.220   2.099  -0.016  0.00  0.00    -0.160 A 
ATOM      9  C   LIG    1        1.163   3.483  -0.002  0.00  0.00    +0.050 A 
ATOM     10  C   LIG    1       -0.056   4.131   0.031  0.00  0.00    -0.020 A 
ATOM     11  C   LIG    1       -1.228   3.398   0.052  0.00  0.00    +0.040 A 
ATOM     12  C   LIG    1       -1.178   2.019   0.044  0.00  0.00    -0.020 A 
ATOM     13  C   LIG    1        0.048   1.364   0.008  0.00  0.00    +0.130 A 
ATOM     14  O   LIG    1        0.055   0.004   0.003  0.00  0.00    -0.300 OA
ATOM     15  C   LIG    1        1.176  -2.159  -0.048  0.00  0.00    +0.280 C 
ATOM     16  O   LIG    1        0.300  -4.603  -2.544  0.00  0.00    -0.510 OA
ENDROOT
BRANCH   1  22
ATOM     17  C   LIG    1        2.008  -7.320   3.490  0.00  0.00    +0.160 A 
ATOM     18  C   LIG    1        1.807  -8.416   2.653  0.00  0.00    -0.090 A 
ATOM     19  C   LIG    1        1.466  -8.237   1.345  0.00  0.00    +0.110 A 
ATOM     20  C   LIG    1        1.315  -6.941   0.834  0.00  0.00    -0.150 A 
ATOM     21  C   LIG    1        0.972  -6.436  -0.443  0.00  0.00    +0.080 A 
ATOM     22  C   LIG    1        0.978  -5.079  -0.367  0.00  0.00    +0.000 A 
ATOM     23  N   LIG    1        1.306  -4.698   0.922  0.00  0.00    -0.580 N 
ATOM     24  H   LIG    1        1.377  -3.785   1.241  0.00  0.00    +0.420 HD
ATOM     25  C   LIG    1        1.518  -5.829   1.676  0.00  0.00    +0.150 A 
ATOM     26  C   LIG    1        1.865  -6.032   3.007  0.00  0.00    -0.050 A 
BRANCH  17  28
ATOM     27  C   LIG    1        2.480  -8.872   5.227  0.00  0.00    +0.250 C 
ATOM     28  O   LIG    1        2.347  -7.518   4.790  0.00  0.00    -0.320 OA
ENDBRANCH  17  28
ENDBRANCH   1  22
TORSDOF 2
