REMARK  Name = ZINCrD000000fQcd.0
REMARK                            x       y       z     vdW  Elec       q    Type
REMARK                         _______ _______ _______ _____ _____    ______ ____
ROOT
ATOM      1  C   LIG    1       -1.303   3.703   2.463  0.00  0.00    +0.180 C 
ATOM      2  C   LIG    1       -2.582   2.869   2.553  0.00  0.00    +0.030 C 
ENDROOT
BRANCH   1   3
ATOM      3  N   LIG    1       -0.586   3.369   1.225  0.00  0.00    -0.520 NA
ATOM      4  C   LIG    1       -0.351   1.922   1.127  0.00  0.00    +0.200 C 
ATOM      5  C   LIG    1        0.465   1.625  -0.134  0.00  0.00    +0.210 C 
ATOM      6  N   LIG    1       -0.260   2.120  -1.312  0.00  0.00    -0.490 N 
ATOM      7  C   LIG    1       -0.494   3.567  -1.213  0.00  0.00    +0.200 C 
ATOM      8  C   LIG    1       -1.311   3.865   0.047  0.00  0.00    +0.190 C 
BRANCH   6   9
ATOM      9  C   LIG    1        0.421   1.802  -2.489  0.00  0.00    +0.110 A 
ATOM     10  C   LIG    1        1.621   1.105  -2.432  0.00  0.00    -0.050 A 
ATOM     11  C   LIG    1        2.293   0.793  -3.598  0.00  0.00    +0.030 A 
ATOM     12  C   LIG    1        1.772   1.173  -4.821  0.00  0.00    -0.030 A 
ATOM     13  C   LIG    1        0.577   1.867  -4.881  0.00  0.00    -0.060 A 
ATOM     14  C   LIG    1        0.012   2.279  -6.216  0.00  0.00    +0.090 C 
ATOM     15  C   LIG    1       -0.102   2.178  -3.720  0.00  0.00    -0.020 A 
ENDBRANCH   6   9
ENDBRANCH   1   3
BRANCH   1  18
ATOM     16  N   LIG    1       -0.875   3.634   4.899  0.00  0.00    -0.680 N 
ATOM     17  H   LIG    1       -1.734   4.062   5.032  0.00  0.00    +0.410 HD
ATOM     18  C   LIG    1       -0.423   3.404   3.650  0.00  0.00    +0.520 C 
ATOM     19  O   LIG    1        0.691   2.956   3.481  0.00  0.00    -0.490 OA
BRANCH  16  23
ATOM     20  C   LIG    1        1.419   2.504   8.180  0.00  0.00    -0.190 A 
ATOM     21  C   LIG    1        1.445   1.738   7.008  0.00  0.00    +0.100 A 
ATOM     22  C   LIG    1        0.687   2.113   5.929  0.00  0.00    +0.000 A 
ATOM     23  C   LIG    1       -0.107   3.255   5.997  0.00  0.00    +0.180 A 
ATOM     24  C   LIG    1       -0.131   4.023   7.159  0.00  0.00    -0.030 A 
ATOM     25  C   LIG    1        0.619   3.651   8.245  0.00  0.00    +0.090 A 
BRANCH  20  27
ATOM     26  C   LIG    1        2.200   2.931  10.599  0.00  0.00    +0.080 C 
ATOM     27  C   LIG    1        2.229   2.105   9.339  0.00  0.00    +0.390 C 
ATOM     28  O   LIG    1        2.922   1.111   9.281  0.00  0.00    -0.460 OA
ENDBRANCH  20  27
ENDBRANCH  16  23
ENDBRANCH   1  18
TORSDOF 5
