REMARK  Name = ZINCvU0000000Iyf.0
REMARK                            x       y       z     vdW  Elec       q    Type
REMARK                         _______ _______ _______ _____ _____    ______ ____
ROOT
ATOM      1  C   LIG    1        0.252   1.644  -0.551  0.00  0.00    +0.370 C 
ENDROOT
BRANCH   1   2
ATOM      2  C   LIG    1        0.127   0.142  -0.543  0.00  0.00    -0.160 A 
ATOM      3  C   LIG    1        0.696  -0.625   0.399  0.00  0.00    +0.060 A 
ATOM      4  S   LIG    1        0.328  -2.316   0.080  0.00  0.00    +0.220 S 
ATOM      5  C   LIG    1       -0.591  -1.878  -1.354  0.00  0.00    -0.230 A 
ATOM      6  C   LIG    1       -1.287  -2.852  -2.269  0.00  0.00    +0.140 C 
ATOM      7  C   LIG    1       -0.579  -0.554  -1.509  0.00  0.00    -0.080 A 
ATOM      8  C   LIG    1       -1.282   0.134  -2.651  0.00  0.00    +0.100 C 
BRANCH   3   9
ATOM      9  N   LIG    1        1.459  -0.155   1.469  0.00  0.00    -0.620 N 
ATOM     10  H   LIG    1        1.541   0.799   1.624  0.00  0.00    +0.410 HD
ATOM     11  C   LIG    1        2.084  -1.026   2.286  0.00  0.00    +0.600 C 
ATOM     12  O   LIG    1        2.066  -2.217   2.033  0.00  0.00    -0.490 OA
BRANCH  11  13
ATOM     13  C   LIG    1        2.783  -0.540   3.479  0.00  0.00    -0.090 A 
ATOM     14  C   LIG    1        3.535  -1.297   4.332  0.00  0.00    +0.060 A 
ATOM     15  C   LIG    1        4.013  -0.428   5.326  0.00  0.00    -0.060 A 
ATOM     16  C   LIG    1        3.539   0.804   5.040  0.00  0.00    +0.230 A 
ATOM     17  O   LIG    1        2.802   0.733   3.923  0.00  0.00    -0.170 OA
ENDBRANCH  11  13
ENDBRANCH   3   9
ENDBRANCH   1   2
BRANCH   1  22
ATOM     18  C   LIG    1        3.114   2.665  -2.798  0.00  0.00    +0.140 A 
ATOM     19  C   LIG    1        4.161   2.740  -1.891  0.00  0.00    -0.070 A 
ATOM     20  C   LIG    1        3.939   2.461  -0.556  0.00  0.00    +0.060 A 
ATOM     21  C   LIG    1        2.674   2.112  -0.123  0.00  0.00    -0.050 A 
ATOM     22  C   LIG    1        1.629   2.030  -1.026  0.00  0.00    -0.040 A 
ATOM     23  C   LIG    1        1.846   2.309  -2.361  0.00  0.00    +0.010 A 
BRANCH  18  25
ATOM     24  C   LIG    1        4.661   3.299  -4.488  0.00  0.00    +0.250 C 
ATOM     25  O   LIG    1        3.330   2.939  -4.111  0.00  0.00    -0.310 OA
ENDBRANCH  18  25
ENDBRANCH   1  22
BRANCH   1  26
ATOM     26  N   LIG    1        0.040   2.160   0.803  0.00  0.00    -0.730 N 
ATOM     27  H   LIG    1        0.800   2.387   1.360  0.00  0.00    +0.400 HD
BRANCH  26  28
ATOM     28  C   LIG    1       -1.252   2.322   1.290  0.00  0.00    +0.400 A 
ATOM     29  C   LIG    1       -2.335   1.895   0.529  0.00  0.00    -0.100 A 
ATOM     30  C   LIG    1       -3.615   2.063   1.026  0.00  0.00    +0.090 A 
ATOM     31  C   LIG    1       -3.769   2.654   2.273  0.00  0.00    -0.100 A 
ATOM     32  C   LIG    1       -2.650   3.055   2.975  0.00  0.00    +0.310 A 
ATOM     33  N   LIG    1       -1.440   2.878   2.478  0.00  0.00    -0.540 NA
ENDBRANCH  26  28
ENDBRANCH   1  26
TORSDOF 7
