REMARK  Name = ZINCrD00000hQ5nz.0
REMARK                            x       y       z     vdW  Elec       q    Type
REMARK                         _______ _______ _______ _____ _____    ______ ____
ROOT
ATOM      1  C   LIG    1       -3.678  -0.951  -3.229  0.00  0.00    +0.030 C 
ATOM      2  C   LIG    1       -4.829  -0.056  -2.766  0.00  0.00    +0.180 C 
ENDROOT
BRANCH   2   3
ATOM      3  N   LIG    1       -4.531   0.472  -1.428  0.00  0.00    -0.510 NA
ATOM      4  C   LIG    1       -3.486   1.505  -1.490  0.00  0.00    +0.160 C 
ATOM      5  C   LIG    1       -3.250   2.069  -0.086  0.00  0.00    +0.200 C 
ATOM      6  O   LIG    1       -2.903   1.000   0.799  0.00  0.00    -0.370 OA
ATOM      7  C   LIG    1       -3.898  -0.024   0.884  0.00  0.00    +0.220 C 
ATOM      8  C   LIG    1       -4.526   2.751   0.412  0.00  0.00    +0.010 C 
ATOM      9  C   LIG    1       -4.141  -0.608  -0.510  0.00  0.00    +0.180 C 
BRANCH   7  10
ATOM     10  C   LIG    1       -3.422  -1.113   1.810  0.00  0.00    -0.090 A 
ATOM     11  C   LIG    1       -4.327  -1.780   2.614  0.00  0.00    +0.060 A 
ATOM     12  C   LIG    1       -3.892  -2.783   3.460  0.00  0.00    -0.010 A 
ATOM     13  C   LIG    1       -2.549  -3.115   3.506  0.00  0.00    +0.100 A 
ATOM     14  C   LIG    1       -1.642  -2.442   2.704  0.00  0.00    -0.020 A 
ATOM     15  F   LIG    1       -2.123  -4.095   4.333  0.00  0.00    -0.140 F 
ATOM     16  C   LIG    1       -2.079  -1.440   1.859  0.00  0.00    +0.080 A 
ENDBRANCH   7  10
ENDBRANCH   2   3
BRANCH   2  17
ATOM     17  C   LIG    1       -6.102  -0.860  -2.716  0.00  0.00    +0.520 C 
ATOM     18  N   LIG    1       -6.691  -1.260  -3.861  0.00  0.00    -0.720 N 
ATOM     19  H   LIG    1       -6.296  -1.030  -4.716  0.00  0.00    +0.410 HD
ATOM     20  O   LIG    1       -6.596  -1.148  -1.647  0.00  0.00    -0.500 OA
BRANCH  18  21
ATOM     21  C   LIG    1       -7.929  -2.042  -3.812  0.00  0.00    +0.280 C 
ATOM     22  C   LIG    1       -7.680  -3.345  -3.050  0.00  0.00    +0.040 C 
ATOM     23  C   LIG    1       -8.973  -4.162  -3.000  0.00  0.00    +0.020 C 
ATOM     24  C   LIG    1       -9.429  -4.484  -4.425  0.00  0.00    +0.020 C 
ATOM     25  C   LIG    1       -9.678  -3.181  -5.187  0.00  0.00    +0.020 C 
ATOM     26  C   LIG    1       -8.385  -2.364  -5.237  0.00  0.00    +0.050 C 
BRANCH  21  27
ATOM     27  C   LIG    1       -8.975  -1.265  -3.127  0.00  0.00    +0.200 C 
ATOM     28  N   LIG    1       -9.781  -0.665  -2.598  0.00  0.00    -0.410 NA
ENDBRANCH  21  27
ENDBRANCH  18  21
ENDBRANCH   2  17
TORSDOF 5
