REMARK  Name = ZINCrD000000D9Bb.0
REMARK                            x       y       z     vdW  Elec       q    Type
REMARK                         _______ _______ _______ _____ _____    ______ ____
ROOT
ATOM      1  C   LIG    1        0.002  -0.004   0.002  0.00  0.00    +0.220 A 
ATOM      2  N   LIG    1        1.066  -0.765  -0.018  0.00  0.00    -0.360 NA
ATOM      3  O   LIG    1        0.748  -1.935  -0.015  0.00  0.00    +0.060 OA
ATOM      4  C   LIG    1       -0.588  -2.046  -0.003  0.00  0.00    +0.360 A 
ATOM      5  N   LIG    1       -1.075  -0.819   0.008  0.00  0.00    -0.480 NA
ENDROOT
BRANCH   1   9
ATOM      6  C   LIG    1       -0.056   4.248   0.026  0.00  0.00    -0.030 A 
ATOM      7  C   LIG    1        1.153   3.575   0.010  0.00  0.00    +0.110 A 
ATOM      8  C   LIG    1        1.177   2.196   0.003  0.00  0.00    +0.080 A 
ATOM      9  C   LIG    1       -0.018   1.480   0.010  0.00  0.00    +0.030 A 
ATOM     10  C   LIG    1       -1.232   2.163   0.020  0.00  0.00    +0.090 A 
ATOM     11  C   LIG    1       -1.245   3.543   0.034  0.00  0.00    +0.110 A 
BRANCH   6  13
ATOM     12  O   LIG    1        0.971   6.351   0.029  0.00  0.00    -0.150 OA
ATOM     13  N   LIG    1       -0.076   5.728   0.035  0.00  0.00    +0.020 N 
ATOM     14  O   LIG    1       -1.139   6.323   0.049  0.00  0.00    -0.150 OA
ENDBRANCH   6  13
ENDBRANCH   1   9
BRANCH   4  15
ATOM     15  N   LIG    1       -1.312  -3.214  -0.003  0.00  0.00    -0.420 N 
ATOM     16  C   LIG    1       -2.252  -3.251  -1.132  0.00  0.00    +0.200 C 
ATOM     17  C   LIG    1       -3.078  -4.538  -1.060  0.00  0.00    +0.250 C 
ATOM     18  O   LIG    1       -2.196  -5.665  -1.051  0.00  0.00    -0.370 OA
ATOM     19  C   LIG    1       -1.268  -5.660   0.037  0.00  0.00    +0.230 C 
ATOM     20  C   LIG    1       -0.424  -4.385  -0.025  0.00  0.00    +0.210 C 
BRANCH  19  21
ATOM     21  C   LIG    1       -0.368  -6.865  -0.065  0.00  0.00    -0.060 A 
ATOM     22  C   LIG    1        0.098  -7.276  -1.300  0.00  0.00    +0.030 A 
ATOM     23  C   LIG    1        0.928  -8.378  -1.395  0.00  0.00    +0.050 A 
ATOM     24  C   LIG    1        1.284  -9.076  -0.256  0.00  0.00    +0.000 A 
ATOM     25  C   LIG    1        0.813  -8.668   0.981  0.00  0.00    +0.100 A 
ATOM     26  F   LIG    1        1.160  -9.349   2.094  0.00  0.00    -0.140 F 
ATOM     27  C   LIG    1       -0.013  -7.561   1.075  0.00  0.00    +0.000 A 
ENDBRANCH  19  21
ENDBRANCH   4  15
TORSDOF 4
