REMARK  Name = ZINCrH000004sOxY.0
REMARK                            x       y       z     vdW  Elec       q    Type
REMARK                         _______ _______ _______ _____ _____    ______ ____
ROOT
ATOM      1  N   LIG    1       -6.002   3.156   0.010  0.00  0.00    -0.990 NA
ATOM      2  C   LIG    1       -7.340   3.755  -0.095  0.00  0.00    +0.280 C 
ATOM      3  C   LIG    1       -7.411   4.580  -1.383  0.00  0.00    +0.020 C 
ATOM      4  C   LIG    1       -6.265   5.595  -1.398  0.00  0.00    +0.030 C 
ATOM      5  C   LIG    1       -4.926   4.855  -1.372  0.00  0.00    +0.050 C 
ATOM      6  C   LIG    1       -4.826   4.033  -0.083  0.00  0.00    +0.240 C 
ENDROOT
BRANCH   6   7
ATOM      7  C   LIG    1       -3.573   3.196  -0.113  0.00  0.00    +0.520 C 
ATOM      8  N   LIG    1       -2.719   3.225   0.929  0.00  0.00    -0.660 N 
ATOM      9  H   LIG    1       -2.947   3.723   1.730  0.00  0.00    +0.410 HD
ATOM     10  O   LIG    1       -3.333   2.498  -1.075  0.00  0.00    -0.490 OA
BRANCH   8  11
ATOM     11  C   LIG    1       -1.504   2.534   0.857  0.00  0.00    +0.190 A 
ATOM     12  C   LIG    1       -0.904   2.309  -0.375  0.00  0.00    +0.050 A 
ATOM     13  C   LIG    1        0.293   1.623  -0.444  0.00  0.00    +0.070 A 
ATOM     14  C   LIG    1        0.901   1.170   0.713  0.00  0.00    -0.050 A 
ATOM     15  C   LIG    1        0.308   1.398   1.944  0.00  0.00    -0.010 A 
ATOM     16 CL   LIG    1        1.073   0.829   3.394  0.00  0.00    -0.050 Cl
ATOM     17 CL   LIG    1        2.408   0.315   0.622  0.00  0.00    -0.050 Cl
ATOM     18  C   LIG    1       -0.893   2.079   2.018  0.00  0.00    +0.000 A 
ENDBRANCH   8  11
ENDBRANCH   6   7
BRANCH   1  19
ATOM     19  S   LIG    1       -5.822   1.525   0.230  0.00  0.00    +2.720 S 
ATOM     20  O   LIG    1       -4.430   1.293   0.392  0.00  0.00    -0.920 OA
ATOM     21  O   LIG    1       -6.602   0.896  -0.778  0.00  0.00    -0.940 OA
BRANCH  19  28
ATOM     22  C   LIG    1       -4.611   1.628   3.412  0.00  0.00    +0.180 C 
ATOM     23  C   LIG    1       -6.009   1.187   3.062  0.00  0.00    +0.110 A 
ATOM     24  N   LIG    1       -6.934   0.795   3.890  0.00  0.00    -0.360 NA
ATOM     25  O   LIG    1       -7.953   0.498   3.312  0.00  0.00    +0.100 OA
ATOM     26  C   LIG    1       -7.835   0.665   1.987  0.00  0.00    +0.110 A 
ATOM     27  C   LIG    1       -8.891   0.399   0.946  0.00  0.00    +0.210 C 
ATOM     28  C   LIG    1       -6.577   1.119   1.769  0.00  0.00    -0.800 A 
ENDBRANCH  19  28
ENDBRANCH   1  19
TORSDOF 4
