REMARK  Name = ZINCrD00000F5LnX.0
REMARK                            x       y       z     vdW  Elec       q    Type
REMARK                         _______ _______ _______ _____ _____    ______ ____
ROOT
ATOM      1  N   LIG    1       -4.851   0.894   0.648  0.00  0.00    -0.520 NA
ENDROOT
BRANCH   1   2
ATOM      2  C   LIG    1       -5.957   1.840   0.847  0.00  0.00    +0.270 C 
BRANCH   2   6
ATOM      3  C   LIG    1       -6.633   2.171   4.463  0.00  0.00    +0.100 A 
ATOM      4  N   LIG    1       -5.808   3.171   4.288  0.00  0.00    -0.280 NA
ATOM      5  N   LIG    1       -5.435   3.201   2.938  0.00  0.00    -0.370 N 
ATOM      6  C   LIG    1       -6.066   2.185   2.310  0.00  0.00    +0.110 A 
ATOM      7  C   LIG    1       -4.522   4.164   2.317  0.00  0.00    +0.360 C 
ATOM      8  C   LIG    1       -6.817   1.535   3.230  0.00  0.00    -0.160 A 
ATOM      9 CL   LIG    1       -7.827   0.155   2.932  0.00  0.00    -0.030 Cl
BRANCH   3  11
ATOM     10  C   LIG    1       -8.612   2.510   5.918  0.00  0.00    +0.040 C 
ATOM     11  C   LIG    1       -7.279   1.775   5.765  0.00  0.00    +0.120 C 
ENDBRANCH   3  11
ENDBRANCH   2   6
ENDBRANCH   1   2
BRANCH   1  12
ATOM     12  C   LIG    1       -3.559   1.521   0.956  0.00  0.00    +0.190 C 
BRANCH  12  13
ATOM     13  C   LIG    1       -2.473   0.445   1.024  0.00  0.00    -0.030 C 
ATOM     14  C   LIG    1       -1.802   0.203   2.378  0.00  0.00    +0.030 C 
ATOM     15  C   LIG    1       -1.034   0.908   1.258  0.00  0.00    -0.020 C 
BRANCH  15  16
ATOM     16  C   LIG    1        0.082   0.123   0.565  0.00  0.00    -0.020 C 
ATOM     17  C   LIG    1        0.850   0.827  -0.555  0.00  0.00    +0.000 C 
ATOM     18  C   LIG    1        1.521   0.586   0.798  0.00  0.00    +0.000 C 
ENDBRANCH  15  16
ENDBRANCH  12  13
ENDBRANCH   1  12
BRANCH   1  19
ATOM     19  C   LIG    1       -4.861   0.353  -0.718  0.00  0.00    +0.230 C 
BRANCH  19  20
ATOM     20  C   LIG    1       -6.016  -0.603  -0.871  0.00  0.00    +0.030 A 
ATOM     21  C   LIG    1       -7.194  -0.180  -1.413  0.00  0.00    -0.100 A 
ATOM     22  C   LIG    1       -8.257  -1.090  -1.545  0.00  0.00    +0.510 A 
ATOM     23  N   LIG    1       -8.107  -2.365  -1.139  0.00  0.00    -0.500 N 
ATOM     24  C   LIG    1       -6.935  -2.788  -0.599  0.00  0.00    +0.290 A 
ATOM     25  C   LIG    1       -9.220  -3.306  -1.281  0.00  0.00    +0.320 C 
ATOM     26  O   LIG    1       -9.317  -0.724  -2.028  0.00  0.00    -0.550 OA
ATOM     27  C   LIG    1       -5.890  -1.939  -0.464  0.00  0.00    -0.060 A 
ENDBRANCH  19  20
ENDBRANCH   1  19
TORSDOF 8
