REMARK  Name = ZINCrH00000No4sO.0
REMARK                            x       y       z     vdW  Elec       q    Type
REMARK                         _______ _______ _______ _____ _____    ______ ____
ROOT
ATOM      1  C   LIG    1       -6.061  -0.999   0.046  0.00  0.00    +0.190 C 
ATOM      2  C   LIG    1       -6.501  -1.265  -1.395  0.00  0.00    +0.070 C 
ENDROOT
BRANCH   1   5
ATOM      3  N   LIG    1       -8.341  -0.868   0.996  0.00  0.00    -0.670 N 
ATOM      4  H   LIG    1       -8.514  -1.747   0.625  0.00  0.00    +0.410 HD
ATOM      5  C   LIG    1       -7.155  -0.265   0.778  0.00  0.00    +0.520 C 
ATOM      6  O   LIG    1       -6.968   0.867   1.171  0.00  0.00    -0.490 OA
BRANCH   3  10
ATOM      7  C   LIG    1      -11.262   1.046   3.268  0.00  0.00    -0.090 A 
ATOM      8  C   LIG    1      -10.432   1.786   2.446  0.00  0.00    +0.030 A 
ATOM      9  C   LIG    1       -9.463   1.155   1.692  0.00  0.00    +0.020 A 
ATOM     10  C   LIG    1       -9.322  -0.225   1.759  0.00  0.00    +0.130 A 
ATOM     11  C   LIG    1      -10.161  -0.966   2.581  0.00  0.00    -0.010 A 
ATOM     12  C   LIG    1      -11.125  -0.328   3.337  0.00  0.00    +0.030 A 
BRANCH   7  14
ATOM     13  C   LIG    1      -13.617   1.824   3.284  0.00  0.00    +0.030 C 
ATOM     14  C   LIG    1      -12.319   1.739   4.089  0.00  0.00    +0.050 C 
ENDBRANCH   7  14
ENDBRANCH   3  10
ENDBRANCH   1   5
BRANCH   1  15
ATOM     15  O   LIG    1       -4.874  -0.203   0.042  0.00  0.00    -0.320 OA
BRANCH  15  16
ATOM     16  C   LIG    1       -3.696  -0.860   0.021  0.00  0.00    +0.500 C 
ATOM     17  O   LIG    1       -3.678  -2.076   0.005  0.00  0.00    -0.500 OA
BRANCH  16  18
ATOM     18  C   LIG    1       -2.440  -0.110   0.015  0.00  0.00    -0.030 C 
ATOM     19  C   LIG    1       -1.262  -0.767  -0.006  0.00  0.00    +0.140 C 
BRANCH  19  20
ATOM     20  C   LIG    1        0.001  -0.013  -0.011  0.00  0.00    -0.080 A 
ATOM     21  C   LIG    1       -0.015   1.385   0.006  0.00  0.00    +0.100 A 
ATOM     22  C   LIG    1        1.173   2.085   0.001  0.00  0.00    +0.050 A 
ATOM     23  C   LIG    1        2.380   1.407  -0.022  0.00  0.00    +0.120 A 
ATOM     24  C   LIG    1        2.404   0.023  -0.039  0.00  0.00    -0.040 A 
ATOM     25  C   LIG    1        1.225  -0.691  -0.034  0.00  0.00    +0.130 A 
BRANCH  24  26
ATOM     26  N   LIG    1        3.700  -0.692  -0.064  0.00  0.00    +0.020 N 
ATOM     27  O   LIG    1        4.743  -0.062  -0.069  0.00  0.00    -0.150 OA
ATOM     28  O   LIG    1        3.723  -1.909  -0.080  0.00  0.00    -0.150 OA
ENDBRANCH  24  26
ENDBRANCH  19  20
ENDBRANCH  16  18
ENDBRANCH  15  16
ENDBRANCH   1  15
TORSDOF 8
