REMARK  Name = ZINCbw0000000HhG.0
REMARK                            x       y       z     vdW  Elec       q    Type
REMARK                         _______ _______ _______ _____ _____    ______ ____
ROOT
ATOM      1  C   LIG    1        2.408   0.497   1.905  0.00  0.00    +0.040 C 
ATOM      2  C   LIG    1        2.181   0.556   0.393  0.00  0.00    +0.190 C 
ATOM      3  C   LIG    1        1.427   1.848  -0.002  0.00  0.00    +0.090 C 
ATOM      4  C   LIG    1       -0.017   1.385   0.010  0.00  0.00    -0.160 A 
ATOM      5  C   LIG    1       -1.209   2.074   0.030  0.00  0.00    +0.060 A 
ATOM      6  C   LIG    1       -2.408   1.382   0.043  0.00  0.00    +0.000 A 
ATOM      7  C   LIG    1       -2.403  -0.001   0.042  0.00  0.00    +0.060 A 
ATOM      8  C   LIG    1       -1.209  -0.694   0.021  0.00  0.00    -0.060 A 
ATOM      9 CL   LIG    1       -1.216  -2.429   0.018  0.00  0.00    -0.060 Cl
ATOM     10  C   LIG    1        0.002  -0.004   0.002  0.00  0.00    +0.120 A 
ATOM     11  O   LIG    1        1.277  -0.480  -0.027  0.00  0.00    -0.290 OA
ENDROOT
TORSDOF 0
