REMARK  Name = ZINCrD000000fuUi.0
REMARK                            x       y       z     vdW  Elec       q    Type
REMARK                         _______ _______ _______ _____ _____    ______ ____
ROOT
ATOM      1  N   LIG    1        4.808   0.116  -0.057  0.00  0.00    -0.520 N 
ATOM      2  C   LIG    1        3.698  -0.658  -0.058  0.00  0.00    +0.560 A 
ATOM      3  C   LIG    1        2.395   0.022  -0.051  0.00  0.00    -0.200 A 
ATOM      4  C   LIG    1        1.196  -0.688  -0.053  0.00  0.00    +0.100 A 
ATOM      5  C   LIG    1        0.001  -0.003  -0.047  0.00  0.00    -0.010 A 
ATOM      6  C   LIG    1       -0.018   1.386  -0.039  0.00  0.00    +0.070 A 
ATOM      7  C   LIG    1        1.155   2.107  -0.037  0.00  0.00    +0.030 A 
ATOM      8  C   LIG    1        2.380   1.435  -0.044  0.00  0.00    +0.170 A 
ATOM      9  N   LIG    1        3.556   2.107  -0.043  0.00  0.00    -0.540 NA
ATOM     10  O   LIG    1        3.776  -1.873  -0.065  0.00  0.00    -0.500 OA
ATOM     11  C   LIG    1        4.705   1.478  -0.049  0.00  0.00    +0.360 A 
ENDROOT
BRANCH   1  12
ATOM     12  C   LIG    1        6.132  -0.512  -0.063  0.00  0.00    +0.340 C 
BRANCH  12  14
ATOM     13  C   LIG    1        6.942  -1.934   1.749  0.00  0.00    +0.060 C 
ATOM     14  C   LIG    1        6.588  -0.736   1.356  0.00  0.00    -0.070 C 
ENDBRANCH  12  14
ENDBRANCH   1  12
BRANCH  11  15
ATOM     15  S   LIG    1        6.186   2.432  -0.047  0.00  0.00    +0.090 S 
BRANCH  15  16
ATOM     16  C   LIG    1        5.484   4.101  -0.037  0.00  0.00    +0.110 C 
BRANCH  16  17
ATOM     17  C   LIG    1        6.599   5.114  -0.034  0.00  0.00    +0.530 C 
ATOM     18  N   LIG    1        6.312   6.431  -0.026  0.00  0.00    -0.660 N 
ATOM     19  H   LIG    1        5.391   6.728  -0.090  0.00  0.00    +0.410 HD
ATOM     20  O   LIG    1        7.754   4.745  -0.038  0.00  0.00    -0.510 OA
BRANCH  18  21
ATOM     21  C   LIG    1        7.345   7.373   0.074  0.00  0.00    +0.100 A 
ATOM     22  C   LIG    1        7.142   8.555   0.774  0.00  0.00    +0.030 A 
ATOM     23  C   LIG    1        8.163   9.479   0.877  0.00  0.00    -0.060 A 
ATOM     24  C   LIG    1        9.386   9.233   0.273  0.00  0.00    +0.120 A 
ATOM     25  C   LIG    1        9.588   8.055  -0.431  0.00  0.00    +0.010 A 
ATOM     26  C   LIG    1        8.571   7.126  -0.530  0.00  0.00    +0.070 A 
BRANCH  24  27
ATOM     27  O   LIG    1       10.389  10.146   0.370  0.00  0.00    -0.320 OA
ATOM     28  C   LIG    1       10.112  11.337   1.110  0.00  0.00    +0.250 C 
ENDBRANCH  24  27
ENDBRANCH  18  21
ENDBRANCH  16  17
ENDBRANCH  15  16
ENDBRANCH  11  15
TORSDOF 7
