REMARK  Name = ZINCrH000004nSqy.0
REMARK                            x       y       z     vdW  Elec       q    Type
REMARK                         _______ _______ _______ _____ _____    ______ ____
ROOT
ATOM      1  C   LIG    1       -2.449   1.120   0.020  0.00  0.00    +0.380 C 
ENDROOT
BRANCH   1   2
ATOM      2  C   LIG    1       -3.608   2.083   0.030  0.00  0.00    -0.170 A 
ATOM      3  C   LIG    1       -4.201   2.585  -1.054  0.00  0.00    +0.010 A 
ATOM      4  C   LIG    1       -5.250   3.451  -0.797  0.00  0.00    +0.170 A 
ATOM      5  C   LIG    1       -5.502   3.660   0.496  0.00  0.00    -0.790 A 
ATOM      6  S   LIG    1       -4.380   2.724   1.475  0.00  0.00    +0.240 S 
BRANCH   5   7
ATOM      7  S   LIG    1       -6.767   4.713   1.126  0.00  0.00    +2.710 S 
ATOM      8  O   LIG    1       -7.049   5.658   0.104  0.00  0.00    -0.940 OA
ATOM      9  O   LIG    1       -6.364   5.083   2.438  0.00  0.00    -0.950 OA
BRANCH   7  10
ATOM     10  N   LIG    1       -8.131   3.790   1.300  0.00  0.00    -0.990 NA
ATOM     11  C   LIG    1       -9.098   3.669   0.200  0.00  0.00    +0.290 C 
ATOM     12  C   LIG    1       -9.330   2.177  -0.084  0.00  0.00    +0.010 C 
ATOM     13  C   LIG    1       -9.758   1.478   1.208  0.00  0.00    +0.020 C 
ATOM     14  C   LIG    1       -8.644   1.602   2.250  0.00  0.00    +0.010 C 
ATOM     15  C   LIG    1       -8.401   3.083   2.559  0.00  0.00    +0.290 C 
ENDBRANCH   7  10
ENDBRANCH   5   7
ENDBRANCH   1   2
BRANCH   1  17
ATOM     16  C   LIG    1       -0.014   1.211   0.009  0.00  0.00    +0.560 C 
ATOM     17  N   LIG    1       -1.191   1.869   0.018  0.00  0.00    -0.730 N 
ATOM     18  H   LIG    1       -1.204   2.839   0.023  0.00  0.00    +0.400 HD
ATOM     19  O   LIG    1        0.002  -0.004   0.002  0.00  0.00    -0.530 OA
BRANCH  16  23
ATOM     20  C   LIG    1        3.635   3.385  -0.015  0.00  0.00    -0.050 A 
ATOM     21  C   LIG    1        3.657   2.002  -0.022  0.00  0.00    +0.020 A 
ATOM     22  C   LIG    1        2.475   1.290  -0.015  0.00  0.00    +0.080 A 
ATOM     23  C   LIG    1        1.256   1.968   0.001  0.00  0.00    -0.130 A 
ATOM     24  C   LIG    1        1.240   3.364   0.003  0.00  0.00    +0.050 A 
ATOM     25  C   LIG    1        2.429   4.064  -0.000  0.00  0.00    +0.020 A 
BRANCH  20  26
ATOM     26  C   LIG    1        4.930   4.156  -0.024  0.00  0.00    +0.130 C 
BRANCH  26  28
ATOM     27  C   LIG    1        6.983   5.396  -1.543  0.00  0.00    +0.130 C 
ATOM     28  S   LIG    1        5.432   4.474  -1.737  0.00  0.00    -0.250 S 
ENDBRANCH  26  28
ENDBRANCH  20  26
ENDBRANCH  16  23
ENDBRANCH   1  17
TORSDOF 7
