REMARK  Name = ZINCpk00000xI8c6.0
REMARK                            x       y       z     vdW  Elec       q    Type
REMARK                         _______ _______ _______ _____ _____    ______ ____
ROOT
ATOM      1  N   LIG    1        2.225   0.166  -1.011  0.00  0.00    -0.510 NA
ATOM      2  C   LIG    1        2.125   1.626  -1.142  0.00  0.00    +0.180 C 
ATOM      3  C   LIG    1        1.268   2.180   0.002  0.00  0.00    +0.300 C 
ATOM      4  N   LIG    1       -0.018   1.467   0.010  0.00  0.00    -1.000 NA
ATOM      5  C   LIG    1        0.002  -0.004   0.002  0.00  0.00    +0.320 C 
ATOM      6  C   LIG    1        0.908  -0.472  -1.141  0.00  0.00    +0.230 C 
ENDROOT
BRANCH   6   7
ATOM      7  C   LIG    1        1.067  -1.970  -1.077  0.00  0.00    +0.200 A 
ATOM      8  N   LIG    1        2.047  -2.606  -0.495  0.00  0.00    -0.450 NA
ATOM      9  C   LIG    1        1.861  -3.927  -0.636  0.00  0.00    +0.140 A 
ATOM     10  C   LIG    1        0.723  -4.116  -1.330  0.00  0.00    +0.130 A 
ATOM     11  N   LIG    1        0.216  -2.875  -1.605  0.00  0.00    -0.570 N 
ATOM     12  H   LIG    1       -0.601  -2.681  -2.091  0.00  0.00    +0.420 HD
ENDBRANCH   6   7
BRANCH   4  13
ATOM     13  S   LIG    1       -1.450   2.297   0.021  0.00  0.00    +2.600 S 
ATOM     14  O   LIG    1       -2.377   1.406  -0.584  0.00  0.00    -0.950 OA
ATOM     15  O   LIG    1       -1.136   3.546  -0.579  0.00  0.00    -0.940 OA
BRANCH  13  16
ATOM     16  C   LIG    1       -1.834   2.515   1.781  0.00  0.00    -0.280 C 
BRANCH  16  17
ATOM     17  C   LIG    1       -3.132   3.267   1.923  0.00  0.00    -0.100 A 
ATOM     18  C   LIG    1       -4.328   2.574   1.986  0.00  0.00    +0.060 A 
ATOM     19  C   LIG    1       -5.524   3.257   2.116  0.00  0.00    +0.030 A 
ATOM     20  C   LIG    1       -5.532   4.634   2.185  0.00  0.00    +0.080 A 
ATOM     21  C   LIG    1       -4.328   5.340   2.123  0.00  0.00    -0.020 A 
ATOM     22  C   LIG    1       -3.124   4.644   1.997  0.00  0.00    +0.080 A 
BRANCH  21  23
ATOM     23  C   LIG    1       -4.329   6.770   2.194  0.00  0.00    +0.250 C 
ATOM     24  N   LIG    1       -4.329   7.905   2.251  0.00  0.00    -0.400 NA
ENDBRANCH  21  23
ENDBRANCH  16  17
ENDBRANCH  13  16
ENDBRANCH   4  13
BRANCH   1  26
ATOM     25  C   LIG    1        4.586   0.114  -1.661  0.00  0.00    +0.040 C 
ATOM     26  C   LIG    1        3.176  -0.386  -1.985  0.00  0.00    +0.170 C 
ENDBRANCH   1  26
TORSDOF 6
