REMARK  Name = ZINCqH0000067aeY.0
REMARK                            x       y       z     vdW  Elec       q    Type
REMARK                         _______ _______ _______ _____ _____    ______ ____
ROOT
ATOM      1  C   LIG    1       -0.176  12.472  -0.960  0.00  0.00    +0.520 C 
ATOM      2  N   LIG    1       -0.154  11.363  -0.194  0.00  0.00    -0.630 N 
ATOM      3  H   LIG    1       -0.146  11.441   0.772  0.00  0.00    +0.420 HD
ATOM      4  O   LIG    1       -0.187  12.374  -2.169  0.00  0.00    -0.430 OA
ENDROOT
BRANCH   2   5
ATOM      5  C   LIG    1       -0.143  10.105  -0.791  0.00  0.00    +0.310 A 
ATOM      6  N   LIG    1       -0.152   9.880  -2.068  0.00  0.00    -0.450 NA
ATOM      7  C   LIG    1       -0.139   8.617  -2.456  0.00  0.00    +0.270 A 
ATOM      8  C   LIG    1       -0.117   7.709  -1.470  0.00  0.00    -0.250 A 
ATOM      9  S   LIG    1       -0.122   8.568   0.069  0.00  0.00    +0.080 S 
BRANCH   8  10
ATOM     10  S   LIG    1       -0.095   5.960  -1.677  0.00  0.00    -0.020 S 
BRANCH  10  11
ATOM     11  C   LIG    1       -0.070   5.347   0.030  0.00  0.00    +0.120 C 
BRANCH  11  12
ATOM     12  C   LIG    1       -0.050   3.840   0.022  0.00  0.00    -0.080 A 
ATOM     13  C   LIG    1        1.156   3.165   0.008  0.00  0.00    +0.030 A 
ATOM     14  C   LIG    1        1.175   1.783   0.000  0.00  0.00    +0.010 A 
ATOM     15  C   LIG    1       -0.013   1.076   0.008  0.00  0.00    +0.020 A 
ATOM     16  C   LIG    1       -1.219   1.751   0.017  0.00  0.00    +0.010 A 
ATOM     17  C   LIG    1       -1.238   3.133   0.030  0.00  0.00    +0.030 A 
ENDBRANCH  11  12
ENDBRANCH  10  11
ENDBRANCH   8  10
ENDBRANCH   2   5
BRANCH   1  20
ATOM     18  C   LIG    1       -0.216  15.053  -1.237  0.00  0.00    +0.080 C 
ATOM     19  C   LIG    1       -1.466  14.665  -0.443  0.00  0.00    +0.120 C 
ATOM     20  C   LIG    1       -0.188  13.833  -0.314  0.00  0.00    -0.030 C 
BRANCH  18  25
ATOM     21  N   LIG    1        0.698  15.223  -3.616  0.00  0.00    -0.470 N 
ATOM     22  C   LIG    1        0.285  14.769  -4.825  0.00  0.00    +0.360 A 
ATOM     23  N   LIG    1       -0.832  14.123  -4.636  0.00  0.00    -0.290 NA
ATOM     24  N   LIG    1       -1.138  14.141  -3.387  0.00  0.00    -0.250 NA
ATOM     25  C   LIG    1       -0.229  14.801  -2.722  0.00  0.00    +0.200 A 
BRANCH  21  27
ATOM     26  C   LIG    1        3.035  15.069  -2.915  0.00  0.00    +0.030 C 
ATOM     27  C   LIG    1        1.902  16.007  -3.334  0.00  0.00    +0.290 C 
ENDBRANCH  21  27
ENDBRANCH  18  25
ENDBRANCH   1  20
TORSDOF 7
