REMARK  Name = ZINCvU0000000BH7.0
REMARK                            x       y       z     vdW  Elec       q    Type
REMARK                         _______ _______ _______ _____ _____    ______ ____
ROOT
ATOM      1  C   LIG    1        8.010   2.384  -0.061  0.00  0.00    -0.140 A 
ATOM      2  C   LIG    1        8.889   1.298  -0.081  0.00  0.00    +0.100 A 
ATOM      3  C   LIG    1        8.394   0.015  -0.150  0.00  0.00    +0.010 A 
ATOM      4  C   LIG    1        7.027  -0.208  -0.201  0.00  0.00    +0.070 A 
ATOM      5  C   LIG    1        6.145   0.853  -0.176  0.00  0.00    +0.010 A 
ATOM      6  C   LIG    1        6.625   2.156  -0.112  0.00  0.00    +0.210 A 
ENDROOT
BRANCH   1   7
ATOM      7  C   LIG    1        8.532   3.760   0.013  0.00  0.00    +0.510 C 
ATOM      8  O   LIG    1        7.766   4.694   0.146  0.00  0.00    -0.480 OA
BRANCH   7   9
ATOM      9  O   LIG    1        9.858   3.982  -0.068  0.00  0.00    -0.330 OA
BRANCH   9  10
ATOM     10  C   LIG    1       10.302   5.362   0.012  0.00  0.00    +0.250 C 
BRANCH  10  12
ATOM     11  O   LIG    1       12.439   4.389  -0.226  0.00  0.00    -0.510 OA
ATOM     12  C   LIG    1       11.804   5.415  -0.095  0.00  0.00    +0.520 C 
ATOM     13  N   LIG    1       12.442   6.601  -0.045  0.00  0.00    -0.730 N 
ATOM     14  H   LIG    1       11.934   7.421   0.059  0.00  0.00    +0.400 HD
BRANCH  13  15
ATOM     15  C   LIG    1       13.902   6.652  -0.149  0.00  0.00    +0.240 C 
ATOM     16  C   LIG    1       14.513   6.352   1.235  0.00  0.00    +0.020 C 
ATOM     17  C   LIG    1       15.936   5.904   1.044  0.00  0.00    +0.000 C 
ATOM     18  C   LIG    1       16.942   7.065   1.169  0.00  0.00    +0.000 C 
ATOM     19  C   LIG    1       16.459   8.351   0.472  0.00  0.00    +0.000 C 
ATOM     20  C   LIG    1       15.818   8.078  -0.862  0.00  0.00    +0.030 C 
ATOM     21  C   LIG    1       14.294   7.958  -0.657  0.00  0.00    +0.010 C 
ENDBRANCH  13  15
ENDBRANCH  10  12
ENDBRANCH   9  10
ENDBRANCH   7   9
ENDBRANCH   1   7
BRANCH   6  22
ATOM     22  N   LIG    1        5.739   3.225  -0.094  0.00  0.00    -0.690 N 
ATOM     23  H   LIG    1        5.268   3.451   0.724  0.00  0.00    +0.410 HD
BRANCH  22  24
ATOM     24  C   LIG    1        5.527   3.979  -1.254  0.00  0.00    +0.240 A 
ATOM     25  C   LIG    1        4.578   4.993  -1.260  0.00  0.00    -0.040 A 
ATOM     26  C   LIG    1        4.369   5.736  -2.405  0.00  0.00    +0.090 A 
ATOM     27  C   LIG    1        5.107   5.469  -3.551  0.00  0.00    -0.150 A 
ATOM     28  C   LIG    1        6.052   4.451  -3.547  0.00  0.00    +0.050 A 
ATOM     29  C   LIG    1        6.265   3.712  -2.400  0.00  0.00    -0.050 A 
BRANCH  27  30
ATOM     30  S   LIG    1        4.840   6.418  -5.011  0.00  0.00    -0.100 S 
BRANCH  30  31
ATOM     31  C   LIG    1        6.018   5.696  -6.188  0.00  0.00    +0.430 C 
ATOM     32  F   LIG    1        5.726   4.339  -6.366  0.00  0.00    -0.180 F 
ATOM     33  F   LIG    1        7.318   5.831  -5.689  0.00  0.00    -0.180 F 
ENDBRANCH  30  31
ENDBRANCH  27  30
ENDBRANCH  22  24
ENDBRANCH   6  22
TORSDOF 9
