REMARK  Name = ZINCc70000001nXE.0
REMARK                            x       y       z     vdW  Elec       q    Type
REMARK                         _______ _______ _______ _____ _____    ______ ____
ROOT
ATOM      1  O   LIG    1       -2.224   1.724   0.022  0.00  0.00    -0.590 OA
ATOM      2  C   LIG    1       -1.124   2.240   0.020  0.00  0.00    +0.720 C 
ATOM      3  N   LIG    1       -0.018   1.470   0.010  0.00  0.00    -0.640 N 
ATOM      4  C   LIG    1        1.368   1.960  -0.001  0.00  0.00    +0.240 C 
ATOM      5  C   LIG    1        2.291   0.724  -0.043  0.00  0.00    +0.030 C 
ATOM      6  C   LIG    1        1.368  -0.379  -0.625  0.00  0.00    +0.030 C 
ATOM      7  C   LIG    1        0.002  -0.004   0.002  0.00  0.00    +0.270 C 
ATOM      8  N   LIG    1       -1.009   3.583   0.026  0.00  0.00    -0.740 N 
ATOM      9  H   LIG    1       -0.131   3.995   0.024  0.00  0.00    +0.400 HD
ENDROOT
BRANCH   8  10
ATOM     10  C   LIG    1       -2.211   4.421   0.037  0.00  0.00    +0.280 C 
BRANCH  10  11
ATOM     11  C   LIG    1       -1.805   5.896   0.043  0.00  0.00    +0.030 C 
BRANCH  11  12
ATOM     12  C   LIG    1       -3.060   6.771   0.054  0.00  0.00    +0.180 C 
BRANCH  12  13
ATOM     13  O   LIG    1       -2.681   8.148   0.059  0.00  0.00    -0.580 OA
ATOM     14  H   LIG    1       -3.428   8.762   0.067  0.00  0.00    +0.380 HD
ENDBRANCH  12  13
ENDBRANCH  11  12
ENDBRANCH  10  11
ENDBRANCH   8  10
TORSDOF 4
