REMARK  Name = ZINCpk00001AZiAn.0
REMARK                            x       y       z     vdW  Elec       q    Type
REMARK                         _______ _______ _______ _____ _____    ______ ____
ROOT
ATOM      1  C   LIG    1       -2.535   1.500   0.021  0.00  0.00    +0.250 C 
ATOM      2  C   LIG    1       -1.263   1.965   0.141  0.00  0.00    -0.290 A 
ATOM      3  S   LIG    1       -0.728   3.653   0.244  0.00  0.00    +0.150 S 
ATOM      4  C   LIG    1        0.994   3.255   0.363  0.00  0.00    +0.170 A 
ATOM      5  N   LIG    1        1.085   1.892   0.325  0.00  0.00    -0.650 N 
ATOM      6  H   LIG    1        1.949   1.453   0.376  0.00  0.00    +0.420 HD
ATOM      7  C   LIG    1        2.039   4.147   0.473  0.00  0.00    -0.130 C 
ATOM      8  C   LIG    1       -0.026   1.183   0.216  0.00  0.00    +0.560 A 
ATOM      9  O   LIG    1       -0.021  -0.034   0.176  0.00  0.00    -0.480 OA
ENDROOT
BRANCH   1  15
ATOM     10  C   LIG    1       -8.455   2.884  -0.911  0.00  0.00    +0.340 C 
ATOM     11  N   LIG    1       -7.100   2.338  -0.801  0.00  0.00    -0.490 N 
ATOM     12  C   LIG    1       -6.681   1.123  -1.243  0.00  0.00    +0.490 A 
ATOM     13  N   LIG    1       -5.414   0.966  -0.981  0.00  0.00    -0.500 NA
ATOM     14  C   LIG    1       -4.939   2.062  -0.358  0.00  0.00    +0.080 A 
ATOM     15  C   LIG    1       -3.667   2.424   0.142  0.00  0.00    -0.050 A 
ATOM     16  C   LIG    1       -3.499   3.666   0.757  0.00  0.00    +0.050 A 
ATOM     17  C   LIG    1       -4.565   4.539   0.865  0.00  0.00    +0.040 A 
ATOM     18  C   LIG    1       -5.812   4.194   0.381  0.00  0.00    +0.050 A 
ATOM     19  C   LIG    1       -6.008   2.963  -0.230  0.00  0.00    +0.040 A 
ENDBRANCH   1  15
BRANCH   7  20
ATOM     20  C   LIG    1        1.784   5.527   0.499  0.00  0.00    +0.470 C 
ATOM     21  O   LIG    1        0.637   5.938   0.425  0.00  0.00    -0.450 OA
BRANCH  20  22
ATOM     22  C   LIG    1        2.900   6.479   0.616  0.00  0.00    -0.090 A 
ATOM     23  C   LIG    1        2.793   7.838   0.647  0.00  0.00    +0.030 A 
ATOM     24  C   LIG    1        4.099   8.344   0.769  0.00  0.00    -0.070 A 
ATOM     25  C   LIG    1        4.934   7.283   0.797  0.00  0.00    +0.200 A 
ATOM     26  O   LIG    1        4.207   6.160   0.705  0.00  0.00    -0.160 OA
ENDBRANCH  20  22
ENDBRANCH   7  20
TORSDOF 3
