REMARK  Name = ZINCrH000004tLzV.0
REMARK                            x       y       z     vdW  Elec       q    Type
REMARK                         _______ _______ _______ _____ _____    ______ ____
ROOT
ATOM      1  N   LIG    1        5.966   2.022  -0.359  0.00  0.00    -0.520 NA
ATOM      2  C   LIG    1        5.870   2.798  -1.602  0.00  0.00    +0.180 C 
ATOM      3  C   LIG    1        6.941   3.891  -1.607  0.00  0.00    +0.040 C 
ATOM      4  C   LIG    1        8.324   3.244  -1.492  0.00  0.00    -0.010 C 
ATOM      5  C   LIG    1        8.382   2.403  -0.214  0.00  0.00    +0.060 C 
ATOM      6  C   LIG    1        7.269   1.353  -0.250  0.00  0.00    +0.180 C 
ENDROOT
BRANCH   4   7
ATOM      7  C   LIG    1        9.379   4.319  -1.436  0.00  0.00    +0.510 C 
ATOM      8  N   LIG    1        9.514   5.185  -2.460  0.00  0.00    -0.660 N 
ATOM      9  H   LIG    1        8.887   5.163  -3.199  0.00  0.00    +0.420 HD
ATOM     10  O   LIG    1       10.106   4.404  -0.469  0.00  0.00    -0.460 OA
BRANCH   8  11
ATOM     11  C   LIG    1       10.557   6.111  -2.457  0.00  0.00    +0.360 A 
ATOM     12  C   LIG    1       10.754   6.929  -3.562  0.00  0.00    -0.050 A 
ATOM     13  C   LIG    1       11.792   7.845  -3.546  0.00  0.00    +0.110 A 
ATOM     14  C   LIG    1       12.600   7.910  -2.419  0.00  0.00    -0.120 A 
ATOM     15  C   LIG    1       12.346   7.065  -1.355  0.00  0.00    +0.320 A 
ATOM     16 CL   LIG    1       13.916   9.040  -2.347  0.00  0.00    -0.050 Cl
ATOM     17  N   LIG    1       11.345   6.207  -1.398  0.00  0.00    -0.460 NA
ENDBRANCH   8  11
ENDBRANCH   4   7
BRANCH   1  18
ATOM     18  C   LIG    1        4.867   1.052  -0.257  0.00  0.00    +0.220 C 
BRANCH  18  20
ATOM     19  O   LIG    1        3.544   3.002  -0.118  0.00  0.00    -0.500 OA
ATOM     20  C   LIG    1        3.559   1.789  -0.126  0.00  0.00    +0.510 C 
ATOM     21  N   LIG    1        2.405   1.100  -0.017  0.00  0.00    -0.680 N 
ATOM     22  H   LIG    1        2.423   0.132   0.044  0.00  0.00    +0.410 HD
BRANCH  21  23
ATOM     23  C   LIG    1        1.183   1.781   0.008  0.00  0.00    +0.160 A 
ATOM     24  C   LIG    1        0.061   1.218  -0.587  0.00  0.00    +0.000 A 
ATOM     25  C   LIG    1       -1.142   1.895  -0.566  0.00  0.00    +0.070 A 
ATOM     26  C   LIG    1       -1.234   3.128   0.055  0.00  0.00    -0.110 A 
ATOM     27  C   LIG    1       -0.117   3.691   0.649  0.00  0.00    +0.070 A 
ATOM     28 BR   LIG    1       -2.885   4.049   0.087  0.00  0.00    -0.050 Br
ATOM     29  C   LIG    1        1.090   3.021   0.626  0.00  0.00    +0.030 A 
ENDBRANCH  21  23
ENDBRANCH  18  20
ENDBRANCH   1  18
TORSDOF 5
