REMARK  Name = ZINCbw0000000HpW.1
REMARK                            x       y       z     vdW  Elec       q    Type
REMARK                         _______ _______ _______ _____ _____    ______ ____
ROOT
ATOM      1  C   LIG    1        1.188   2.087   0.002  0.00  0.00    -0.200 A 
ATOM      2  C   LIG    1       -0.017   1.373   0.010  0.00  0.00    +0.120 A 
ATOM      3  C   LIG    1        0.002  -0.004   0.002  0.00  0.00    -0.040 A 
ATOM      4  C   LIG    1        1.210  -0.688  -0.014  0.00  0.00    -0.040 A 
ATOM      5  C   LIG    1        2.406   0.004  -0.021  0.00  0.00    +0.040 A 
ATOM      6 BR   LIG    1        1.218  -2.579  -0.025  0.00  0.00    -0.010 Br
ATOM      7 CL   LIG    1       -1.492  -0.888   0.011  0.00  0.00    -0.030 Cl
ATOM      8  C   LIG    1        2.408   1.390  -0.013  0.00  0.00    +0.180 A 
ENDROOT
BRANCH   1  10
ATOM      9  O   LIG    1        2.222   4.169   0.003  0.00  0.00    -0.430 OA
ATOM     10  C   LIG    1        1.176   3.555   0.009  0.00  0.00    +0.500 C 
ENDBRANCH   1  10
BRANCH   8  11
ATOM     11  O   LIG    1        3.581   2.070  -0.020  0.00  0.00    -0.470 OA
ATOM     12  H   LIG    1        3.913   2.272  -0.905  0.00  0.00    +0.400 HD
ENDBRANCH   8  11
TORSDOF 2
