REMARK  Name = ZINCpe00000MJIL3.2
REMARK                            x       y       z     vdW  Elec       q    Type
REMARK                         _______ _______ _______ _____ _____    ______ ____
ROOT
ATOM      1  N   LIG    1       -0.700   1.560   1.217  0.00  0.00    -0.520 NA
ATOM      2  C   LIG    1       -0.013   1.086   0.008  0.00  0.00    +0.200 C 
ENDROOT
BRANCH   1   3
ATOM      3  C   LIG    1       -0.016   1.091   2.429  0.00  0.00    +0.140 C 
ATOM      4  C   LIG    1        0.109  -0.450   2.426  0.00  0.00    +0.050 C 
ATOM      5  C   LIG    1       -0.160  -0.878   3.881  0.00  0.00    +0.220 C 
ATOM      6  N   LIG    1       -0.391   0.357   4.661  0.00  0.00    -0.440 N 
ATOM      7  C   LIG    1       -0.879   1.366   3.687  0.00  0.00    +0.240 C 
BRANCH   6   8
ATOM      8  C   LIG    1       -1.323   0.144   5.663  0.00  0.00    +0.480 A 
ATOM      9  N   LIG    1       -2.437   0.861   5.673  0.00  0.00    -0.520 NA
ATOM     10  C   LIG    1       -3.350   0.680   6.613  0.00  0.00    +0.330 A 
ATOM     11  C   LIG    1       -3.124  -0.268   7.602  0.00  0.00    -0.040 A 
ATOM     12  C   LIG    1       -1.944  -0.997   7.564  0.00  0.00    +0.330 A 
ATOM     13  F   LIG    1       -4.033  -0.475   8.580  0.00  0.00    -0.120 F 
ATOM     14  N   LIG    1       -1.076  -0.768   6.592  0.00  0.00    -0.500 NA
ENDBRANCH   6   8
ENDBRANCH   1   3
BRANCH   1  15
ATOM     15  C   LIG    1       -0.822   3.023   1.213  0.00  0.00    +0.260 C 
BRANCH  15  18
ATOM     16  C   LIG    1       -2.153   3.598  -2.175  0.00  0.00    +0.630 A 
ATOM     17  N   LIG    1       -1.377   3.237  -1.173  0.00  0.00    -0.590 NA
ATOM     18  C   LIG    1       -1.735   3.449   0.092  0.00  0.00    +0.240 A 
ATOM     19  C   LIG    1       -2.929   4.046   0.374  0.00  0.00    -0.180 A 
ATOM     20  C   LIG    1       -3.761   4.439  -0.689  0.00  0.00    +0.540 A 
ATOM     21  O   LIG    1       -4.833   4.979  -0.473  0.00  0.00    -0.540 OA
ATOM     22  N   LIG    1       -3.352   4.201  -1.954  0.00  0.00    -0.650 N 
ATOM     23  H   LIG    1       -3.912   4.460  -2.703  0.00  0.00    +0.410 HD
BRANCH  16  25
ATOM     24  C   LIG    1       -0.457   2.711  -3.712  0.00  0.00    +0.330 C 
ATOM     25  N   LIG    1       -1.746   3.361  -3.460  0.00  0.00    -0.590 N 
ATOM     26  C   LIG    1       -2.599   3.756  -4.584  0.00  0.00    +0.310 C 
ENDBRANCH  16  25
ENDBRANCH  15  18
ENDBRANCH   1  15
TORSDOF 5
