REMARK  Name = ZINCrg000000nqlF.0
REMARK                            x       y       z     vdW  Elec       q    Type
REMARK                         _______ _______ _______ _____ _____    ______ ____
ROOT
ATOM      1  N   LIG    1        2.874   5.524  -2.375  0.00  0.00    -1.090 NA
ATOM      2  H   LIG    1        3.594   6.128  -2.615  0.00  0.00    +0.430 HD
ENDROOT
BRANCH   1   3
ATOM      3  S   LIG    1        2.873   4.787  -0.892  0.00  0.00    +2.700 S 
ATOM      4  O   LIG    1        4.045   5.230  -0.222  0.00  0.00    -0.950 OA
ATOM      5  O   LIG    1        1.565   4.954  -0.362  0.00  0.00    -0.950 OA
BRANCH   3   6
ATOM      6  C   LIG    1        3.081   3.059  -1.168  0.00  0.00    -0.680 A 
ATOM      7  C   LIG    1        4.351   2.515  -1.209  0.00  0.00    +0.140 A 
ATOM      8  C   LIG    1        4.519   1.161  -1.427  0.00  0.00    +0.020 A 
ATOM      9  C   LIG    1        3.413   0.343  -1.605  0.00  0.00    +0.110 A 
ATOM     10  O   LIG    1        3.594  -0.988  -1.822  0.00  0.00    -0.300 OA
ATOM     11  C   LIG    1        2.455  -1.833  -1.623  0.00  0.00    +0.230 C 
ATOM     12  C   LIG    1        1.248  -1.184  -2.315  0.00  0.00    +0.230 C 
ATOM     13  O   LIG    1        1.036   0.105  -1.729  0.00  0.00    -0.300 OA
ATOM     14  C   LIG    1        2.135   0.890  -1.562  0.00  0.00    +0.030 A 
ATOM     15  C   LIG    1        1.974   2.250  -1.344  0.00  0.00    +0.130 A 
ENDBRANCH   3   6
ENDBRANCH   1   3
BRANCH   1  16
ATOM     16  C   LIG    1        1.788   5.264  -3.323  0.00  0.00    +0.250 C 
BRANCH  16  17
ATOM     17  C   LIG    1        2.336   4.545  -4.529  0.00  0.00    +0.500 C 
ATOM     18  N   LIG    1        1.497   3.915  -5.376  0.00  0.00    -0.720 N 
ATOM     19  H   LIG    1        0.538   3.985  -5.250  0.00  0.00    +0.400 HD
ATOM     20  O   LIG    1        3.530   4.533  -4.737  0.00  0.00    -0.520 OA
BRANCH  18  21
ATOM     21  C   LIG    1        2.035   3.125  -6.486  0.00  0.00    +0.260 C 
BRANCH  21  22
ATOM     22  C   LIG    1        0.881   2.521  -7.288  0.00  0.00    +0.160 C 
ATOM     23  C   LIG    1        1.437   1.589  -8.386  0.00  0.00    +0.020 C 
ATOM     24  C   LIG    1        0.494   1.893  -9.584  0.00  0.00    +0.010 C 
ATOM     25  C   LIG    1        0.211   3.400  -9.361  0.00  0.00    +0.200 C 
ATOM     26  O   LIG    1        0.141   3.562  -7.936  0.00  0.00    -0.370 OA
ENDBRANCH  21  22
ENDBRANCH  18  21
ENDBRANCH  16  17
BRANCH  16  28
ATOM     27  C   LIG    1        0.590   7.311  -2.539  0.00  0.00    +0.040 C 
ATOM     28  C   LIG    1        1.165   6.591  -3.760  0.00  0.00    +0.000 C 
ATOM     29  C   LIG    1        2.236   7.468  -4.412  0.00  0.00    +0.030 C 
ENDBRANCH  16  28
ENDBRANCH   1  16
TORSDOF 7
