REMARK  Name = ZINCpe000000XT9c.0
REMARK                            x       y       z     vdW  Elec       q    Type
REMARK                         _______ _______ _______ _____ _____    ______ ____
ROOT
ATOM      1  N   LIG    1       -0.586   3.034  -1.373  0.00  0.00    -0.730 N 
ATOM      2  H   LIG    1        0.033   3.496  -0.786  0.00  0.00    +0.400 HD
ATOM      3  C   LIG    1       -1.315   3.731  -2.267  0.00  0.00    +0.520 C 
ATOM      4  O   LIG    1       -2.089   3.154  -3.000  0.00  0.00    -0.520 OA
ENDROOT
BRANCH   3   5
ATOM      5  C   LIG    1       -1.168   5.229  -2.355  0.00  0.00    +0.170 C 
ATOM      6  C   LIG    1       -1.873   5.881  -1.164  0.00  0.00    +0.030 C 
BRANCH   5   7
ATOM      7  N   LIG    1       -1.774   5.707  -3.605  0.00  0.00    -0.520 NA
ATOM      8  C   LIG    1       -1.332   7.074  -3.915  0.00  0.00    +0.190 C 
ATOM      9  C   LIG    1       -1.920   7.504  -5.261  0.00  0.00    +0.180 C 
ATOM     10  N   LIG    1       -3.386   7.430  -5.197  0.00  0.00    -0.530 NA
ATOM     11  C   LIG    1       -3.829   6.064  -4.887  0.00  0.00    +0.180 C 
ATOM     12  C   LIG    1       -3.240   5.633  -3.542  0.00  0.00    +0.190 C 
BRANCH  10  13
ATOM     13  C   LIG    1       -3.992   7.909  -6.447  0.00  0.00    +0.140 C 
BRANCH  13  14
ATOM     14  C   LIG    1       -3.713   9.404  -6.609  0.00  0.00    +0.210 C 
ATOM     15  C   LIG    1       -4.344   9.903  -7.911  0.00  0.00    +0.000 C 
BRANCH  14  16
ATOM     16  O   LIG    1       -4.275  10.116  -5.505  0.00  0.00    -0.550 OA
ATOM     17  H   LIG    1       -5.232  10.012  -5.416  0.00  0.00    +0.370 HD
ENDBRANCH  14  16
ENDBRANCH  13  14
ENDBRANCH  10  13
ENDBRANCH   5   7
ENDBRANCH   3   5
BRANCH   1  18
ATOM     18  C   LIG    1       -0.728   1.579  -1.287  0.00  0.00    +0.290 C 
BRANCH  18  19
ATOM     19  C   LIG    1        0.204   1.038  -0.201  0.00  0.00    +0.200 C 
BRANCH  19  20
ATOM     20  O   LIG    1       -0.210   1.534   1.073  0.00  0.00    -0.310 OA
BRANCH  20  26
ATOM     21  C   LIG    1        0.537   1.676   5.894  0.00  0.00    +0.090 C 
ATOM     22  C   LIG    1        0.913   1.194   4.517  0.00  0.00    -0.050 A 
ATOM     23  C   LIG    1        2.000   0.356   4.351  0.00  0.00    -0.040 A 
ATOM     24  C   LIG    1        2.348  -0.088   3.088  0.00  0.00    +0.050 A 
ATOM     25  C   LIG    1        1.606   0.300   1.990  0.00  0.00    -0.090 A 
ATOM     26  C   LIG    1        0.518   1.146   2.153  0.00  0.00    +0.130 A 
ATOM     27  C   LIG    1        0.172   1.591   3.421  0.00  0.00    -0.020 A 
ENDBRANCH  20  26
ENDBRANCH  19  20
ENDBRANCH  18  19
ENDBRANCH   1  18
TORSDOF 9
