REMARK  Name = ZINCpk00000KfKwE.0
REMARK                            x       y       z     vdW  Elec       q    Type
REMARK                         _______ _______ _______ _____ _____    ______ ____
ROOT
ATOM      1  C   LIG    1       -1.746   2.285   1.444  0.00  0.00    +0.500 C 
ATOM      2  N   LIG    1       -2.915   2.907   1.699  0.00  0.00    -0.610 N 
ATOM      3  C   LIG    1       -3.770   3.373   0.599  0.00  0.00    +0.270 C 
ATOM      4  C   LIG    1       -5.179   2.794   0.797  0.00  0.00    +0.030 C 
ATOM      5  C   LIG    1       -5.687   3.170   2.191  0.00  0.00    +0.030 C 
ATOM      6  C   LIG    1       -4.765   2.565   3.252  0.00  0.00    +0.220 C 
ATOM      7  C   LIG    1       -3.354   3.137   3.082  0.00  0.00    +0.290 C 
ATOM      8  O   LIG    1       -1.046   1.910   2.360  0.00  0.00    -0.510 OA
ENDROOT
BRANCH   6   9
ATOM      9  N   LIG    1       -5.270   2.899   4.587  0.00  0.00    -0.460 N 
ATOM     10  C   LIG    1       -5.656   2.012   5.554  0.00  0.00    +0.120 A 
ATOM     11  C   LIG    1       -6.046   2.740   6.618  0.00  0.00    +0.140 A 
ATOM     12  N   LIG    1       -5.910   4.037   6.304  0.00  0.00    -0.490 NA
ATOM     13  C   LIG    1       -5.446   4.140   5.089  0.00  0.00    +0.380 A 
ENDBRANCH   6   9
BRANCH   1  14
ATOM     14  C   LIG    1       -1.310   2.057   0.019  0.00  0.00    +0.370 C 
BRANCH  14  19
ATOM     15  O   LIG    1        3.575  -0.323  -0.034  0.00  0.00    -0.470 OA
ATOM     16  C   LIG    1        2.458   0.168  -0.021  0.00  0.00    +0.390 A 
ATOM     17  C   LIG    1        2.260   1.575  -0.011  0.00  0.00    +0.170 A 
ATOM     18  N   LIG    1        1.057   2.069   0.003  0.00  0.00    -0.180 NA
ATOM     19  N   LIG    1       -0.017   1.368   0.010  0.00  0.00    -0.330 N 
ATOM     20  C   LIG    1        0.002  -0.004   0.002  0.00  0.00    +0.160 A 
ATOM     21  C   LIG    1       -1.169  -0.755   0.009  0.00  0.00    -0.040 A 
ATOM     22  C   LIG    1       -1.095  -2.131   0.000  0.00  0.00    +0.090 A 
ATOM     23  C   LIG    1        0.134  -2.778  -0.015  0.00  0.00    -0.010 A 
ATOM     24  C   LIG    1        1.298  -2.060  -0.021  0.00  0.00    +0.120 A 
ATOM     25  C   LIG    1        1.245  -0.668  -0.013  0.00  0.00    -0.200 A 
ENDBRANCH  14  19
ENDBRANCH   1  14
TORSDOF 3
