REMARK  Name = ZINCvU0000000BXS.0
REMARK                            x       y       z     vdW  Elec       q    Type
REMARK                         _______ _______ _______ _____ _____    ______ ____
ROOT
ATOM      1  C   LIG    1       -2.452   0.871   0.018  0.00  0.00    -0.290 A 
ATOM      2  C   LIG    1       -2.597  -0.502   0.006  0.00  0.00    +0.290 A 
ATOM      3  N   LIG    1       -3.910  -0.778   0.016  0.00  0.00    -0.350 N 
ATOM      4  N   LIG    1       -4.642   0.412   0.026  0.00  0.00    -0.260 NA
ATOM      5  C   LIG    1       -3.809   1.430   0.028  0.00  0.00    +0.200 A 
ENDROOT
BRANCH   5   6
ATOM      6  C   LIG    1       -4.169   2.862   0.038  0.00  0.00    -0.140 A 
ATOM      7  C   LIG    1       -5.237   3.401  -0.585  0.00  0.00    +0.030 A 
ATOM      8  C   LIG    1       -5.366   4.765  -0.431  0.00  0.00    -0.010 A 
ATOM      9  C   LIG    1       -4.417   5.344   0.310  0.00  0.00    -0.080 A 
ATOM     10  S   LIG    1       -3.277   4.128   0.872  0.00  0.00    +0.240 S 
ENDBRANCH   5   6
BRANCH   1  13
ATOM     11  N   LIG    1       -0.011   0.966   0.007  0.00  0.00    -0.730 N 
ATOM     12  H   LIG    1        0.002  -0.004   0.002  0.00  0.00    +0.390 HD
ATOM     13  C   LIG    1       -1.187   1.624   0.017  0.00  0.00    +0.600 C 
ATOM     14  O   LIG    1       -1.204   2.840   0.023  0.00  0.00    -0.520 OA
BRANCH  11  15
ATOM     15  C   LIG    1        1.248   1.716  -0.001  0.00  0.00    +0.290 C 
ATOM     16  C   LIG    1        1.608   2.092  -1.439  0.00  0.00    +0.040 C 
BRANCH  15  20
ATOM     17  C   LIG    1        4.358  -0.701   1.662  0.00  0.00    +0.100 A 
ATOM     18  C   LIG    1        4.293   0.651   1.961  0.00  0.00    -0.040 A 
ATOM     19  C   LIG    1        3.286   1.430   1.422  0.00  0.00    +0.070 A 
ATOM     20  C   LIG    1        2.344   0.863   0.585  0.00  0.00    -0.100 A 
ATOM     21  C   LIG    1        2.402  -0.486   0.288  0.00  0.00    +0.030 A 
ATOM     22  C   LIG    1        3.410  -1.270   0.820  0.00  0.00    +0.070 A 
ATOM     23  F   LIG    1        3.470  -2.587   0.526  0.00  0.00    -0.130 F 
BRANCH  17  25
ATOM     24  C   LIG    1        6.286  -0.816   3.048  0.00  0.00    +0.250 C 
ATOM     25  O   LIG    1        5.347  -1.468   2.191  0.00  0.00    -0.310 OA
ENDBRANCH  17  25
ENDBRANCH  15  20
ENDBRANCH  11  15
ENDBRANCH   1  13
BRANCH   3  26
ATOM     26  C   LIG    1       -4.488  -2.124   0.011  0.00  0.00    +0.380 C 
BRANCH  26  27
ATOM     27  C   LIG    1       -5.429  -2.271   1.178  0.00  0.00    -0.120 A 
ATOM     28  C   LIG    1       -4.958  -2.735   2.392  0.00  0.00    +0.020 A 
ATOM     29  C   LIG    1       -5.821  -2.865   3.465  0.00  0.00    +0.000 A 
ATOM     30  C   LIG    1       -7.157  -2.541   3.320  0.00  0.00    +0.010 A 
ATOM     31  C   LIG    1       -7.629  -2.083   2.104  0.00  0.00    +0.010 A 
ATOM     32  C   LIG    1       -6.766  -1.948   1.034  0.00  0.00    +0.050 A 
ENDBRANCH  26  27
ENDBRANCH   3  26
TORSDOF 7
