REMARK  Name = ZINCpe000000Sv2n.0
REMARK                            x       y       z     vdW  Elec       q    Type
REMARK                         _______ _______ _______ _____ _____    ______ ____
ROOT
ATOM      1  N   LIG    1       -4.041  -1.284   0.039  0.00  0.00    -0.520 NA
ATOM      2  C   LIG    1       -4.052  -0.289  -1.042  0.00  0.00    +0.190 C 
ATOM      3  C   LIG    1       -2.706   0.439  -1.075  0.00  0.00    +0.220 C 
ATOM      4  N   LIG    1       -2.466   1.080   0.225  0.00  0.00    -0.520 N 
ATOM      5  C   LIG    1       -2.455   0.084   1.306  0.00  0.00    +0.210 C 
ATOM      6  C   LIG    1       -3.801  -0.643   1.340  0.00  0.00    +0.200 C 
ENDROOT
BRANCH   4   7
ATOM      7  C   LIG    1       -1.284   1.812   0.210  0.00  0.00    +0.170 A 
ATOM      8  C   LIG    1       -0.076   1.180  -0.052  0.00  0.00    -0.020 A 
ATOM      9  C   LIG    1        1.097   1.908  -0.073  0.00  0.00    +0.090 A 
ATOM     10  C   LIG    1        1.082   3.270   0.172  0.00  0.00    +0.000 A 
ATOM     11  C   LIG    1       -0.109   3.917   0.440  0.00  0.00    +0.150 A 
ATOM     12  F   LIG    1       -0.118   5.247   0.679  0.00  0.00    -0.120 F 
ATOM     13  C   LIG    1       -1.306   3.192   0.465  0.00  0.00    -0.040 A 
BRANCH  13  14
ATOM     14  C   LIG    1       -2.544   3.855   0.742  0.00  0.00    +0.260 C 
ATOM     15  N   LIG    1       -3.527   4.381   0.963  0.00  0.00    -0.400 NA
ENDBRANCH  13  14
ENDBRANCH   4   7
BRANCH   1  16
ATOM     16  C   LIG    1       -5.290  -2.058   0.056  0.00  0.00    +0.230 C 
BRANCH  16  22
ATOM     17  N   LIG    1       -7.702  -5.043  -2.840  0.00  0.00    -0.740 N 
ATOM     18  H   LIG    1       -8.452  -5.006  -2.226  0.00  0.00    +0.400 HD
ATOM     19  C   LIG    1       -6.580  -4.344  -2.575  0.00  0.00    +0.690 C 
ATOM     20  N   LIG    1       -6.500  -3.594  -1.458  0.00  0.00    -0.690 N 
ATOM     21  H   LIG    1       -7.251  -3.558  -0.844  0.00  0.00    +0.410 HD
ATOM     22  C   LIG    1       -5.379  -2.896  -1.194  0.00  0.00    +0.510 C 
ATOM     23  O   LIG    1       -4.441  -2.942  -1.960  0.00  0.00    -0.440 OA
ATOM     24  O   LIG    1       -5.640  -4.390  -3.344  0.00  0.00    -0.530 OA
BRANCH  17  25
ATOM     25  C   LIG    1       -7.788  -5.857  -4.054  0.00  0.00    +0.310 C 
BRANCH  25  27
ATOM     26  C   LIG    1       -9.899  -6.377  -5.166  0.00  0.00    +0.050 C 
ATOM     27  C   LIG    1       -9.134  -6.531  -4.113  0.00  0.00    -0.060 C 
ENDBRANCH  25  27
ENDBRANCH  17  25
ENDBRANCH  16  22
ENDBRANCH   1  16
TORSDOF 6
