REMARK  Name = ZINCpk00000y6vCQ.0
REMARK                            x       y       z     vdW  Elec       q    Type
REMARK                         _______ _______ _______ _____ _____    ______ ____
ROOT
ATOM      1  O   LIG    1        4.595   1.665  -2.049  0.00  0.00    -0.510 OA
ATOM      2  C   LIG    1        5.452   1.727  -1.193  0.00  0.00    +0.520 C 
ATOM      3  N   LIG    1        6.753   1.631  -1.534  0.00  0.00    -0.620 N 
ATOM      4  C   LIG    1        7.889   1.690  -0.603  0.00  0.00    +0.260 C 
ATOM      5  C   LIG    1        9.177   1.562  -1.443  0.00  0.00    +0.030 C 
ATOM      6  C   LIG    1        8.716   2.007  -2.856  0.00  0.00    +0.160 C 
ATOM      7  C   LIG    1        7.271   1.443  -2.901  0.00  0.00    +0.300 C 
ENDROOT
BRANCH   6   8
ATOM      8  O   LIG    1        9.528   1.413  -3.870  0.00  0.00    -0.290 OA
BRANCH   8   9
ATOM      9  C   LIG    1       10.681   2.056  -4.193  0.00  0.00    +0.080 A 
ATOM     10  C   LIG    1       11.088   3.176  -3.476  0.00  0.00    -0.030 A 
ATOM     11  C   LIG    1       12.271   3.798  -3.842  0.00  0.00    +0.010 A 
ATOM     12  C   LIG    1       13.003   3.289  -4.898  0.00  0.00    +0.220 A 
ATOM     13  N   LIG    1       12.588   2.224  -5.558  0.00  0.00    -0.450 NA
ATOM     14  C   LIG    1       11.472   1.600  -5.237  0.00  0.00    +0.240 A 
ENDBRANCH   8   9
ENDBRANCH   6   8
BRANCH   2  15
ATOM     15  C   LIG    1        5.063   1.913   0.251  0.00  0.00    +0.370 C 
BRANCH  15  16
ATOM     16  N   LIG    1        3.604   1.988   0.358  0.00  0.00    -0.530 N 
ATOM     17  C   LIG    1        2.867   3.113   0.289  0.00  0.00    +0.690 A 
ATOM     18  N   LIG    1        1.562   2.808   0.427  0.00  0.00    -0.640 N 
ATOM     19  H   LIG    1        0.827   3.441   0.414  0.00  0.00    +0.440 HD
ATOM     20  C   LIG    1        1.448   1.430   0.593  0.00  0.00    +0.090 A 
ATOM     21  C   LIG    1        0.369   0.580   0.774  0.00  0.00    +0.030 A 
ATOM     22  C   LIG    1        0.579  -0.779   0.910  0.00  0.00    +0.030 A 
ATOM     23  C   LIG    1        1.863  -1.294   0.867  0.00  0.00    +0.020 A 
ATOM     24  C   LIG    1        2.945  -0.455   0.686  0.00  0.00    +0.030 A 
ATOM     25  O   LIG    1        3.311   4.234   0.127  0.00  0.00    -0.550 OA
ATOM     26  C   LIG    1        2.744   0.910   0.548  0.00  0.00    +0.100 A 
ENDBRANCH  15  16
ENDBRANCH   2  15
TORSDOF 4
