REMARK  Name = ZINCpk00000y6vkh.0
REMARK                            x       y       z     vdW  Elec       q    Type
REMARK                         _______ _______ _______ _____ _____    ______ ____
ROOT
ATOM      1  N   LIG    1       -0.778   3.497  -1.221  0.00  0.00    -0.720 N 
ATOM      2  H   LIG    1       -0.358   3.984  -0.495  0.00  0.00    +0.410 HD
ATOM      3  C   LIG    1       -1.381   4.169  -2.223  0.00  0.00    +0.500 C 
ATOM      4  O   LIG    1       -1.906   3.560  -3.131  0.00  0.00    -0.510 OA
ENDROOT
BRANCH   3   5
ATOM      5  C   LIG    1       -1.401   5.676  -2.214  0.00  0.00    +0.250 C 
ATOM      6  C   LIG    1       -2.159   6.152  -0.956  0.00  0.00    +0.170 C 
ATOM      7  S   LIG    1       -3.786   6.647  -1.668  0.00  0.00    -0.240 S 
ATOM      8  C   LIG    1       -3.046   7.170  -3.264  0.00  0.00    +0.170 C 
ATOM      9  C   LIG    1       -4.049   6.963  -4.410  0.00  0.00    +0.090 C 
ATOM     10  C   LIG    1       -3.099   6.495  -5.540  0.00  0.00    +0.080 C 
ATOM     11  C   LIG    1       -1.922   5.888  -4.814  0.00  0.00    +0.560 C 
ATOM     12  O   LIG    1       -1.026   5.267  -5.346  0.00  0.00    -0.500 OA
ATOM     13  C   LIG    1       -2.488   8.595  -3.219  0.00  0.00    +0.090 C 
ATOM     14  N   LIG    1       -1.995   6.144  -3.472  0.00  0.00    -0.620 N 
ENDBRANCH   3   5
BRANCH   1  15
ATOM     15  C   LIG    1       -0.759   2.033  -1.229  0.00  0.00    +0.270 C 
BRANCH  15  16
ATOM     16  C   LIG    1       -0.019   1.526   0.010  0.00  0.00    +0.090 C 
ATOM     17  C   LIG    1        1.417   2.055  -0.000  0.00  0.00    +0.050 C 
ATOM     18  C   LIG    1        0.002  -0.004   0.002  0.00  0.00    +0.020 C 
BRANCH  16  22
ATOM     19  C   LIG    1       -0.075   1.547   4.932  0.00  0.00    +0.050 C 
ATOM     20  C   LIG    1       -0.735   2.095   3.664  0.00  0.00    +0.160 C 
ATOM     21  C   LIG    1       -0.022   1.531   2.433  0.00  0.00    +0.160 C 
ATOM     22  N   LIG    1       -0.706   2.000   1.219  0.00  0.00    -0.530 NA
ATOM     23  C   LIG    1       -2.116   1.581   1.222  0.00  0.00    +0.160 C 
ATOM     24  C   LIG    1       -2.808   2.145   2.466  0.00  0.00    +0.150 C 
ATOM     25  C   LIG    1       -4.253   1.647   2.516  0.00  0.00    +0.050 C 
ATOM     26  O   LIG    1       -2.110   1.704   3.634  0.00  0.00    -0.380 OA
ENDBRANCH  16  22
ENDBRANCH  15  16
ENDBRANCH   1  15
TORSDOF 4
