REMARK  Name = ZINCwl0000000s3t.0
REMARK                            x       y       z     vdW  Elec       q    Type
REMARK                         _______ _______ _______ _____ _____    ______ ____
ROOT
ATOM      1  C   LIG    1        0.073  -0.165  -0.089  0.00  0.00    +0.000 C 
ATOM      2  C   LIG    1       -0.128   1.346  -0.226  0.00  0.00    +0.050 C 
ATOM      3  C   LIG    1        1.232   2.048  -0.139  0.00  0.00    +0.300 C 
ATOM      4  N   LIG    1        2.130   1.465  -1.145  0.00  0.00    -0.580 N 
ATOM      5  C   LIG    1        2.323   0.009  -1.160  0.00  0.00    +0.300 C 
ATOM      6  C   LIG    1        0.952  -0.670  -1.236  0.00  0.00    +0.030 C 
ENDROOT
BRANCH   4   7
ATOM      7  C   LIG    1        2.785   2.276  -2.065  0.00  0.00    +0.430 A 
ATOM      8  N   LIG    1        3.494   1.728  -3.023  0.00  0.00    -0.340 NA
ATOM      9  N   LIG    1        4.155   2.525  -3.961  0.00  0.00    -0.240 N 
ATOM     10  C   LIG    1        4.075   3.893  -3.880  0.00  0.00    +0.150 A 
ATOM     11  C   LIG    1        3.318   4.480  -2.848  0.00  0.00    +0.200 A 
ATOM     12  N   LIG    1        4.792   4.379  -4.880  0.00  0.00    -0.230 NA
ATOM     13  N   LIG    1        5.295   3.405  -5.554  0.00  0.00    -0.190 NA
ATOM     14  C   LIG    1        4.934   2.259  -5.031  0.00  0.00    +0.100 A 
ATOM     15  C   LIG    1        2.683   3.677  -1.954  0.00  0.00    +0.000 A 
BRANCH  14  16
ATOM     16  C   LIG    1        5.318   0.891  -5.533  0.00  0.00    +0.580 C 
ATOM     17  F   LIG    1        4.225   0.308  -6.183  0.00  0.00    -0.160 F 
ATOM     18  F   LIG    1        5.701   0.088  -4.453  0.00  0.00    -0.160 F 
ATOM     19  F   LIG    1        6.386   1.007  -6.430  0.00  0.00    -0.140 F 
ENDBRANCH  14  16
ENDBRANCH   4   7
BRANCH   1  21
ATOM     20  O   LIG    1       -2.280  -0.204  -0.273  0.00  0.00    -0.530 OA
ATOM     21  C   LIG    1       -1.265  -0.856  -0.140  0.00  0.00    +0.520 C 
ATOM     22  N   LIG    1       -1.335  -2.198  -0.039  0.00  0.00    -0.740 N 
ATOM     23  H   LIG    1       -0.524  -2.719   0.067  0.00  0.00    +0.400 HD
BRANCH  22  24
ATOM     24  C   LIG    1       -2.636  -2.869  -0.088  0.00  0.00    +0.260 C 
BRANCH  24  25
ATOM     25  C   LIG    1       -2.436  -4.380   0.048  0.00  0.00    +0.030 C 
BRANCH  25  26
ATOM     26  C   LIG    1       -3.795  -5.081  -0.004  0.00  0.00    +0.030 C 
BRANCH  26  27
ATOM     27  C   LIG    1       -3.595  -6.592   0.133  0.00  0.00    +0.250 C 
BRANCH  27  28
ATOM     28  N   LIG    1       -4.899  -7.265   0.083  0.00  0.00    -0.390 N 
ATOM     29  C   LIG    1       -5.698  -6.872   1.252  0.00  0.00    +0.230 C 
ATOM     30  C   LIG    1       -7.057  -7.575   1.198  0.00  0.00    +0.260 C 
ATOM     31  O   LIG    1       -6.854  -8.990   1.151  0.00  0.00    -0.360 OA
ATOM     32  C   LIG    1       -6.061  -9.420   0.042  0.00  0.00    +0.260 C 
ATOM     33  C   LIG    1       -4.700  -8.721   0.094  0.00  0.00    +0.240 C 
ATOM     34  H   LIG    1       -5.384  -6.998  -0.761  0.00  0.00    +0.420 HD
ENDBRANCH  27  28
ENDBRANCH  26  27
ENDBRANCH  25  26
ENDBRANCH  24  25
ENDBRANCH  22  24
ENDBRANCH   1  21
TORSDOF 8
