REMARK  Name = ZINCnE000001G9bP.0
REMARK                            x       y       z     vdW  Elec       q    Type
REMARK                         _______ _______ _______ _____ _____    ______ ____
ROOT
ATOM      1  C   LIG    1        2.757   4.604   0.863  0.00  0.00    +0.440 C 
ATOM      2  O   LIG    1        2.224   5.582   1.345  0.00  0.00    -0.430 OA
ENDROOT
BRANCH   1   3
ATOM      3  C   LIG    1        3.673   4.751  -0.206  0.00  0.00    -0.080 A 
ATOM      4  C   LIG    1        4.043   5.940  -0.796  0.00  0.00    -0.020 A 
ATOM      5  C   LIG    1        4.972   5.620  -1.812  0.00  0.00    -0.270 A 
ATOM      6  C   LIG    1        5.125   4.241  -1.806  0.00  0.00    +0.110 A 
ATOM      7  C   LIG    1        6.019   3.452  -2.727  0.00  0.00    +0.160 C 
ATOM      8  C   LIG    1        3.554   7.317  -0.426  0.00  0.00    +0.130 C 
ATOM      9  N   LIG    1        4.346   3.728  -0.844  0.00  0.00    -0.510 N 
ATOM     10  H   LIG    1        4.267   2.786  -0.629  0.00  0.00    +0.430 HD
BRANCH   5  11
ATOM     11  C   LIG    1        5.644   6.567  -2.708  0.00  0.00    +0.440 C 
ATOM     12  O   LIG    1        5.168   6.814  -3.796  0.00  0.00    -0.450 OA
ATOM     13  C   LIG    1        6.925   7.234  -2.276  0.00  0.00    +0.060 C 
ENDBRANCH   5  11
ENDBRANCH   1   3
BRANCH   1  14
ATOM     14  C   LIG    1        2.444   3.232   1.403  0.00  0.00    -0.020 C 
ATOM     15  C   LIG    1        3.496   2.841   2.443  0.00  0.00    +0.080 C 
BRANCH  14  16
ATOM     16  S   LIG    1        0.804   3.248   2.178  0.00  0.00    +0.010 S 
BRANCH  16  21
ATOM     17  N   LIG    1       -0.798  -1.875   3.883  0.00  0.00    -0.640 NA
ATOM     18  C   LIG    1       -0.226  -0.794   3.412  0.00  0.00    +0.340 A 
ATOM     19  N   LIG    1        0.996  -0.689   2.813  0.00  0.00    -0.510 NA
ATOM     20  N   LIG    1        1.368   0.572   2.404  0.00  0.00    -0.250 NA
ATOM     21  C   LIG    1        0.553   1.558   2.608  0.00  0.00    -0.080 A 
ATOM     22  S   LIG    1       -0.863   0.862   3.416  0.00  0.00    -0.100 S 
BRANCH  17  24
ATOM     23  C   LIG    1        0.209  -3.671   5.203  0.00  0.00    -0.010 C 
ATOM     24  C   LIG    1       -0.111  -3.166   3.794  0.00  0.00    +0.170 C 
ENDBRANCH  17  24
ENDBRANCH  16  21
ENDBRANCH  14  16
ENDBRANCH   1  14
TORSDOF 6
