REMARK  Name = ZINCtV000002M6US.0
REMARK                            x       y       z     vdW  Elec       q    Type
REMARK                         _______ _______ _______ _____ _____    ______ ____
ROOT
ATOM      1  O   LIG    1        0.001  -0.004   0.004  0.00  0.00    -0.510 OA
ATOM      2  C   LIG    1       -0.015   1.208   0.014  0.00  0.00    +0.510 C 
ATOM      3  N   LIG    1       -1.191   1.867   0.018  0.00  0.00    -0.670 N 
ATOM      4  H   LIG    1       -1.205   2.834   0.092  0.00  0.00    +0.410 HD
ENDROOT
BRANCH   3   5
ATOM      5  C   LIG    1       -2.391   1.155  -0.086  0.00  0.00    +0.150 A 
ATOM      6  C   LIG    1       -2.510  -0.099   0.499  0.00  0.00    +0.020 A 
ATOM      7  C   LIG    1       -3.696  -0.798   0.395  0.00  0.00    +0.030 A 
ATOM      8  C   LIG    1       -4.765  -0.251  -0.291  0.00  0.00    -0.010 A 
ATOM      9  C   LIG    1       -4.650   0.997  -0.875  0.00  0.00    +0.030 A 
ATOM     10  C   LIG    1       -3.468   1.704  -0.769  0.00  0.00    -0.100 A 
BRANCH  10  11
ATOM     11  C   LIG    1       -3.346   3.067  -1.401  0.00  0.00    +0.130 C 
BRANCH  11  12
ATOM     12  C   LIG    1       -2.732   2.933  -2.770  0.00  0.00    -0.080 A 
ATOM     13  C   LIG    1       -1.359   3.001  -2.921  0.00  0.00    +0.000 A 
ATOM     14  C   LIG    1       -0.795   2.873  -4.177  0.00  0.00    +0.000 A 
ATOM     15  C   LIG    1       -1.604   2.688  -5.282  0.00  0.00    +0.000 A 
ATOM     16  C   LIG    1       -2.977   2.626  -5.132  0.00  0.00    +0.000 A 
ATOM     17  C   LIG    1       -3.540   2.749  -3.876  0.00  0.00    +0.010 A 
ENDBRANCH  11  12
ENDBRANCH  10  11
ENDBRANCH   3   5
BRANCH   2  18
ATOM     18  C   LIG    1        1.280   1.979   0.018  0.00  0.00    +0.070 C 
BRANCH  18  19
ATOM     19  C   LIG    1        2.456   1.000   0.006  0.00  0.00    +0.070 C 
BRANCH  19  20
ATOM     20  C   LIG    1        3.771   1.783   0.009  0.00  0.00    +0.090 C 
BRANCH  20  21
ATOM     21  S   LIG    1        5.162   0.625  -0.005  0.00  0.00    +0.010 S 
BRANCH  21  22
ATOM     22  C   LIG    1        6.508   1.763   0.002  0.00  0.00    +0.090 A 
ATOM     23  N   LIG    1        6.386   3.047   0.008  0.00  0.00    -0.470 NA
ATOM     24  C   LIG    1        7.513   3.786   0.017  0.00  0.00    +0.090 A 
ATOM     25  C   LIG    1        7.647   5.190   0.029  0.00  0.00    +0.070 A 
ATOM     26  C   LIG    1        8.891   5.770   0.030  0.00  0.00    +0.040 A 
ATOM     27  C   LIG    1       10.035   4.986   0.020  0.00  0.00    +0.040 A 
ATOM     28  C   LIG    1        9.928   3.613   0.008  0.00  0.00    +0.060 A 
ATOM     29  C   LIG    1        8.674   3.008   0.007  0.00  0.00    -0.170 A 
ATOM     30  S   LIG    1        8.206   1.309  -0.007  0.00  0.00    +0.110 S 
ENDBRANCH  21  22
ENDBRANCH  20  21
ENDBRANCH  19  20
ENDBRANCH  18  19
ENDBRANCH   2  18
TORSDOF 8
