REMARK  Name = ZINCnE000001Q7yc.1
REMARK                            x       y       z     vdW  Elec       q    Type
REMARK                         _______ _______ _______ _____ _____    ______ ____
ROOT
ATOM      1  C   LIG    1       -1.409  -3.085  -2.937  0.00  0.00    -0.320 A 
ATOM      2  C   LIG    1       -2.168  -2.284  -3.687  0.00  0.00    +0.230 A 
ATOM      3  N   LIG    1       -3.383  -2.742  -3.924  0.00  0.00    -0.560 NA
ATOM      4  C   LIG    1       -3.689  -3.889  -3.402  0.00  0.00    +0.340 A 
ATOM      5  S   LIG    1       -2.361  -4.507  -2.520  0.00  0.00    +0.030 S 
ENDROOT
BRANCH   4   6
ATOM      6  N   LIG    1       -4.918  -4.523  -3.540  0.00  0.00    -0.690 NA
ATOM      7  C   LIG    1       -5.899  -3.943  -4.260  0.00  0.00    +0.450 C 
ATOM      8  O   LIG    1       -5.709  -2.868  -4.788  0.00  0.00    -0.560 OA
BRANCH   7   9
ATOM      9  C   LIG    1       -7.231  -4.631  -4.409  0.00  0.00    +0.240 C 
ATOM     10  C   LIG    1       -7.031  -5.990  -5.084  0.00  0.00    +0.070 C 
BRANCH   9  11
ATOM     11  N   LIG    1       -8.118  -3.804  -5.231  0.00  0.00    -0.430 N 
ATOM     12  C   LIG    1       -9.327  -3.286  -4.852  0.00  0.00    +0.100 A 
ATOM     13  C   LIG    1       -9.800  -2.591  -5.905  0.00  0.00    +0.120 A 
ATOM     14  N   LIG    1       -8.909  -2.691  -6.902  0.00  0.00    -0.510 NA
ATOM     15  C   LIG    1       -7.899  -3.416  -6.506  0.00  0.00    +0.410 A 
ENDBRANCH   9  11
ENDBRANCH   7   9
ENDBRANCH   4   6
BRANCH   1  16
ATOM     16  C   LIG    1        0.013  -2.817  -2.516  0.00  0.00    +0.170 C 
BRANCH  16  22
ATOM     17  C   LIG    1       -0.018   1.503   0.010  0.00  0.00    +0.090 C 
ATOM     18  C   LIG    1        0.002  -0.004   0.002  0.00  0.00    -0.090 A 
ATOM     19  C   LIG    1        0.023  -0.702   1.195  0.00  0.00    -0.010 A 
ATOM     20  C   LIG    1        0.042  -2.084   1.188  0.00  0.00    +0.000 A 
ATOM     21  C   LIG    1        0.039  -2.768  -0.013  0.00  0.00    +0.000 A 
ATOM     22  C   LIG    1        0.017  -2.071  -1.207  0.00  0.00    -0.060 A 
ATOM     23  C   LIG    1       -0.006  -0.689  -1.199  0.00  0.00    +0.010 A 
ENDBRANCH  16  22
ENDBRANCH   1  16
TORSDOF 5
