REMARK  Name = ZINCkj00000dDA89.1
REMARK                            x       y       z     vdW  Elec       q    Type
REMARK                         _______ _______ _______ _____ _____    ______ ____
ROOT
ATOM      1  C   LIG    1        4.804   2.450   0.175  0.00  0.00    +0.340 C 
ENDROOT
BRANCH   1   2
ATOM      2  C   LIG    1        3.321   2.743   0.413  0.00  0.00    -0.040 C 
ATOM      3  C   LIG    1        2.904   3.965  -0.410  0.00  0.00    +0.080 C 
ATOM      4  C   LIG    1        1.493   4.399   0.008  0.00  0.00    +0.190 C 
ATOM      5  C   LIG    1        0.606   3.177   0.013  0.00  0.00    +0.300 C 
ATOM      6  N   LIG    1       -0.695   3.145   0.025  0.00  0.00    -0.470 N 
ATOM      7  C   LIG    1       -1.105   1.866   0.017  0.00  0.00    +0.220 C 
ATOM      8  C   LIG    1       -0.013   1.076   0.008  0.00  0.00    +0.250 C 
ATOM      9  H   LIG    1       -1.276   3.921   0.035  0.00  0.00    +0.460 HD
ATOM     10  N   LIG    1        1.070   1.904   0.002  0.00  0.00    -0.400 N 
ATOM     11  C   LIG    1        2.486   1.530  -0.012  0.00  0.00    +0.340 C 
ENDBRANCH   1   2
BRANCH   1  12
ATOM     12  N   LIG    1        5.232   1.357   1.052  0.00  0.00    -0.590 N 
ATOM     13  C   LIG    1        5.757   1.651   2.387  0.00  0.00    +0.310 C 
BRANCH  12  18
ATOM     14  C   LIG    1        5.459  -2.198   1.036  0.00  0.00    +0.410 A 
ATOM     15  C   LIG    1        4.962  -2.491  -0.233  0.00  0.00    -0.140 A 
ATOM     16  C   LIG    1        4.563  -1.444  -1.043  0.00  0.00    +0.390 A 
ATOM     17  N   LIG    1        4.664  -0.202  -0.594  0.00  0.00    -0.600 NA
ATOM     18  C   LIG    1        5.141   0.046   0.617  0.00  0.00    +0.590 A 
ATOM     19  N   LIG    1        5.538  -0.930   1.421  0.00  0.00    -0.620 NA
BRANCH  14  21
ATOM     20  C   LIG    1        6.359  -2.809   3.146  0.00  0.00    +0.270 C 
ATOM     21  O   LIG    1        5.862  -3.193   1.862  0.00  0.00    -0.300 OA
ENDBRANCH  14  21
ENDBRANCH  12  18
ENDBRANCH   1  12
TORSDOF 4
