REMARK  Name = ZINCtV000002F5YI.0
REMARK                            x       y       z     vdW  Elec       q    Type
REMARK                         _______ _______ _______ _____ _____    ______ ____
ROOT
ATOM      1  C   LIG    1       -2.365   1.112  -0.075  0.00  0.00    +0.150 A 
ATOM      2  C   LIG    1       -2.300  -0.274  -0.084  0.00  0.00    +0.080 A 
ATOM      3  C   LIG    1       -3.462  -1.019  -0.175  0.00  0.00    -0.040 A 
ATOM      4  C   LIG    1       -4.689  -0.386  -0.266  0.00  0.00    +0.050 A 
ATOM      5  C   LIG    1       -4.760   0.995  -0.263  0.00  0.00    -0.020 A 
ATOM      6 CL   LIG    1       -3.380  -2.753  -0.180  0.00  0.00    -0.060 Cl
ATOM      7  C   LIG    1       -3.602   1.749  -0.168  0.00  0.00    +0.100 A 
ENDROOT
BRANCH   1   9
ATOM      8  C   LIG    1       -0.091   1.337   0.590  0.00  0.00    +0.560 C 
ATOM      9  N   LIG    1       -1.191   1.869   0.021  0.00  0.00    -0.660 N 
ATOM     10  H   LIG    1       -1.170   2.776  -0.322  0.00  0.00    +0.420 HD
ATOM     11  O   LIG    1       -0.146   0.239   1.110  0.00  0.00    -0.510 OA
BRANCH   8  16
ATOM     12  C   LIG    1        3.512   2.239   1.143  0.00  0.00    -0.650 A 
ATOM     13  C   LIG    1        3.571   3.488   0.550  0.00  0.00    +0.150 A 
ATOM     14  C   LIG    1        2.442   4.039  -0.030  0.00  0.00    +0.000 A 
ATOM     15  C   LIG    1        1.251   3.344  -0.025  0.00  0.00    +0.100 A 
ATOM     16  C   LIG    1        1.183   2.086   0.576  0.00  0.00    -0.150 A 
ATOM     17  C   LIG    1        2.326   1.535   1.159  0.00  0.00    +0.180 A 
BRANCH  12  19
ATOM     18  C   LIG    1        5.837   0.590   0.614  0.00  0.00    -0.270 C 
ATOM     19  S   LIG    1        4.956   1.546   1.878  0.00  0.00    +2.380 S 
ATOM     20  O   LIG    1        5.712   2.601   2.458  0.00  0.00    -0.890 OA
ATOM     21  N   LIG    1        4.539   0.614   2.968  0.00  0.00    -1.210 NA
ATOM     22  H   LIG    1        4.010  -0.172   2.757  0.00  0.00    +0.380 HD
ENDBRANCH  12  19
ENDBRANCH   8  16
ENDBRANCH   1   9
BRANCH   7  23
ATOM     23  O   LIG    1       -3.670   3.107  -0.165  0.00  0.00    -0.250 OA
BRANCH  23  24
ATOM     24  C   LIG    1       -4.901   3.683  -0.151  0.00  0.00    +0.090 A 
ATOM     25  C   LIG    1       -5.456   4.165  -1.327  0.00  0.00    +0.060 A 
ATOM     26  C   LIG    1       -6.710   4.746  -1.312  0.00  0.00    +0.060 A 
ATOM     27  C   LIG    1       -7.407   4.857  -0.122  0.00  0.00    -0.020 A 
ATOM     28  C   LIG    1       -6.854   4.382   1.054  0.00  0.00    +0.060 A 
ATOM     29 CL   LIG    1       -8.979   5.593  -0.105  0.00  0.00    -0.040 Cl
ATOM     30  C   LIG    1       -5.603   3.795   1.042  0.00  0.00    -0.040 A 
ATOM     31 CL   LIG    1       -4.909   3.200   2.518  0.00  0.00    -0.030 Cl
ENDBRANCH  23  24
ENDBRANCH   7  23
TORSDOF 5
