REMARK  Name = ZINCqH0000038AP0.0
REMARK                            x       y       z     vdW  Elec       q    Type
REMARK                         _______ _______ _______ _____ _____    ______ ____
ROOT
ATOM      1  C   LIG    1        2.459   1.372  -0.013  0.00  0.00    -0.040 A 
ATOM      2  C   LIG    1        2.701  -0.001  -0.016  0.00  0.00    +0.060 A 
ATOM      3  C   LIG    1        3.994  -0.473  -0.035  0.00  0.00    +0.000 A 
ATOM      4  C   LIG    1        5.072   0.415  -0.042  0.00  0.00    +0.170 A 
ATOM      5  C   LIG    1        4.826   1.780  -0.033  0.00  0.00    -0.130 A 
ATOM      6  C   LIG    1        6.152   2.508  -0.043  0.00  0.00    +0.110 C 
ATOM      7  C   LIG    1        7.206   1.389  -0.059  0.00  0.00    +0.290 C 
ATOM      8  N   LIG    1        6.441   0.140  -0.057  0.00  0.00    -0.940 N 
ATOM      9  C   LIG    1        3.533   2.260  -0.019  0.00  0.00    +0.100 A 
ENDROOT
BRANCH   1  13
ATOM     10  C   LIG    1       -0.999   4.909   0.036  0.00  0.00    +0.180 C 
ATOM     11  C   LIG    1       -0.474   3.496   0.025  0.00  0.00    +0.050 A 
ATOM     12  N   LIG    1        0.774   3.176   0.011  0.00  0.00    -0.470 NA
ATOM     13  C   LIG    1        1.066   1.884   0.002  0.00  0.00    +0.120 A 
ATOM     14  C   LIG    1       -0.013   1.076   0.008  0.00  0.00    -0.080 A 
ATOM     15  S   LIG    1       -1.451   2.093   0.019  0.00  0.00    +0.130 S 
ENDBRANCH   1  13
BRANCH   8  16
ATOM     16  S   LIG    1        7.104  -1.378  -0.071  0.00  0.00    +2.700 S 
ATOM     17  O   LIG    1        6.124  -2.248   0.479  0.00  0.00    -0.930 OA
ATOM     18  O   LIG    1        8.415  -1.248   0.462  0.00  0.00    -0.930 OA
BRANCH  16  19
ATOM     19  C   LIG    1        7.296  -1.848  -1.758  0.00  0.00    -0.660 A 
ATOM     20  C   LIG    1        6.274  -2.517  -2.407  0.00  0.00    +0.130 A 
ATOM     21  C   LIG    1        6.416  -2.883  -3.730  0.00  0.00    +0.060 A 
ATOM     22  C   LIG    1        7.599  -2.588  -4.410  0.00  0.00    +0.040 A 
ATOM     23  C   LIG    1        8.629  -1.917  -3.747  0.00  0.00    +0.060 A 
ATOM     24  C   LIG    1        8.471  -1.551  -2.426  0.00  0.00    +0.130 A 
BRANCH  22  25
ATOM     25  C   LIG    1        7.756  -2.971  -5.780  0.00  0.00    +0.240 C 
ATOM     26  N   LIG    1        7.881  -3.275  -6.868  0.00  0.00    -0.390 NA
ENDBRANCH  22  25
ENDBRANCH  16  19
ENDBRANCH   8  16
TORSDOF 4
