REMARK  Name = ZINCqH0000007Jff.0
REMARK                            x       y       z     vdW  Elec       q    Type
REMARK                         _______ _______ _______ _____ _____    ______ ____
ROOT
ATOM      1  C   LIG    1        2.296   5.239  -0.643  0.00  0.00    +0.560 C 
ATOM      2  N   LIG    1        2.326   3.915  -0.010  0.00  0.00    -0.740 N 
ATOM      3  H   LIG    1        3.142   3.573   0.387  0.00  0.00    +0.420 HD
ATOM      4  C   LIG    1        1.158   3.161   0.008  0.00  0.00    +0.230 A 
ATOM      5  C   LIG    1        1.178   1.777   0.000  0.00  0.00    -0.060 A 
ATOM      6  C   LIG    1       -0.013   1.076   0.008  0.00  0.00    +0.080 A 
ATOM      7  C   LIG    1       -1.225   1.746   0.017  0.00  0.00    -0.040 A 
ATOM      8  C   LIG    1       -1.263   3.126   0.033  0.00  0.00    +0.120 A 
ATOM      9  C   LIG    1       -0.071   3.845   0.028  0.00  0.00    -0.200 A 
ATOM     10  C   LIG    1       -0.053   5.319   0.048  0.00  0.00    +0.580 C 
ATOM     11  O   LIG    1       -1.062   5.942   0.319  0.00  0.00    -0.520 OA
ATOM     12  N   LIG    1        1.094   5.968  -0.238  0.00  0.00    -0.620 N 
ENDROOT
BRANCH   1  17
ATOM     13  C   LIG    1        2.995   3.874  -4.103  0.00  0.00    +0.100 A 
ATOM     14  C   LIG    1        2.298   4.771  -4.895  0.00  0.00    -0.060 A 
ATOM     15  C   LIG    1        1.604   5.815  -4.310  0.00  0.00    +0.040 A 
ATOM     16  C   LIG    1        1.604   5.965  -2.936  0.00  0.00    +0.010 A 
ATOM     17  C   LIG    1        2.298   5.072  -2.140  0.00  0.00    -0.120 A 
ATOM     18  C   LIG    1        3.001   4.029  -2.720  0.00  0.00    +0.100 A 
BRANCH  13  20
ATOM     19  C   LIG    1        3.633   2.754  -6.102  0.00  0.00    +0.240 C 
ATOM     20  O   LIG    1        3.678   2.847  -4.677  0.00  0.00    -0.310 OA
ENDBRANCH  13  20
BRANCH  18  21
ATOM     21  O   LIG    1        3.689   3.153  -1.939  0.00  0.00    -0.480 OA
ATOM     22  H   LIG    1        3.171   2.387  -1.657  0.00  0.00    +0.380 HD
ENDBRANCH  18  21
ENDBRANCH   1  17
BRANCH  12  23
ATOM     23  C   LIG    1        1.138   7.429  -0.141  0.00  0.00    +0.410 C 
BRANCH  23  24
ATOM     24  C   LIG    1        1.549   7.828   1.253  0.00  0.00    -0.040 A 
ATOM     25  C   LIG    1        2.811   8.025   1.675  0.00  0.00    -0.050 A 
ATOM     26  C   LIG    1        2.735   8.383   3.040  0.00  0.00    -0.070 A 
ATOM     27  C   LIG    1        1.432   8.383   3.371  0.00  0.00    +0.170 A 
ATOM     28  O   LIG    1        0.717   8.052   2.284  0.00  0.00    -0.160 OA
ENDBRANCH  23  24
ENDBRANCH  12  23
TORSDOF 5
