REMARK  Name = ZINCfA000000Jmt4.0
REMARK                            x       y       z     vdW  Elec       q    Type
REMARK                         _______ _______ _______ _____ _____    ______ ____
ROOT
ATOM      1  C   LIG    1        1.242  -4.218  -1.474  0.00  0.00    +0.050 C 
ENDROOT
BRANCH   1   2
ATOM      2  C   LIG    1        1.235  -4.721  -2.919  0.00  0.00    -0.010 C 
ATOM      3  C   LIG    1        1.382  -6.245  -2.931  0.00  0.00    +0.030 C 
ATOM      4  C   LIG    1        1.295  -6.745  -4.376  0.00  0.00    +0.050 C 
ATOM      5  C   LIG    1       -0.029  -6.285  -4.990  0.00  0.00    +0.250 C 
ATOM      6  N   LIG    1       -0.097  -4.819  -4.973  0.00  0.00    -0.500 N 
ATOM      7  H   LIG    1       -0.947  -4.517  -5.426  0.00  0.00    +0.430 HD
ATOM      8  H   LIG    1        0.698  -4.441  -5.466  0.00  0.00    +0.430 HD
ATOM      9  C   LIG    1       -0.086  -4.336  -3.587  0.00  0.00    +0.250 C 
ENDBRANCH   1   2
BRANCH   1  10
ATOM     10  C   LIG    1        1.222  -2.688  -1.466  0.00  0.00    +0.010 C 
BRANCH  10  11
ATOM     11  C   LIG    1        1.229  -2.186  -0.021  0.00  0.00    +0.070 C 
BRANCH  11  15
ATOM     12  C   LIG    1        1.171   2.086   0.002  0.00  0.00    +0.000 A 
ATOM     13  C   LIG    1       -0.017   1.378   0.010  0.00  0.00    +0.000 A 
ATOM     14  C   LIG    1        0.002  -0.004   0.002  0.00  0.00    +0.000 A 
ATOM     15  C   LIG    1        1.208  -0.679  -0.013  0.00  0.00    -0.090 A 
ATOM     16  C   LIG    1        2.396   0.029  -0.022  0.00  0.00    +0.000 A 
ATOM     17  C   LIG    1        2.377   1.411  -0.015  0.00  0.00    +0.000 A 
ENDBRANCH  11  15
ENDBRANCH  10  11
ENDBRANCH   1  10
TORSDOF 4
