REMARK  Name = ZINCrH000004qNzc.0
REMARK                            x       y       z     vdW  Elec       q    Type
REMARK                         _______ _______ _______ _____ _____    ______ ____
ROOT
ATOM      1  N   LIG    1        2.326   0.994  -0.030  0.00  0.00    -0.680 N 
ATOM      2  H   LIG    1        1.542   1.350   0.418  0.00  0.00    +0.410 HD
ATOM      3  C   LIG    1        2.235  -0.147  -0.741  0.00  0.00    +0.710 C 
ATOM      4  N   LIG    1        1.085  -0.849  -0.744  0.00  0.00    -0.730 N 
ATOM      5  H   LIG    1        0.322  -0.533  -0.235  0.00  0.00    +0.400 HD
ATOM      6  O   LIG    1        3.192  -0.543  -1.379  0.00  0.00    -0.560 OA
ENDROOT
BRANCH   4   7
ATOM      7  C   LIG    1        0.989  -2.093  -1.512  0.00  0.00    +0.370 C 
ATOM      8  C   LIG    1       -0.487  -2.410  -1.845  0.00  0.00    +0.080 C 
ATOM      9  C   LIG    1       -0.510  -3.950  -1.739  0.00  0.00    +0.230 C 
ATOM     10  N   LIG    1        0.581  -4.298  -0.817  0.00  0.00    -0.480 N 
ATOM     11  C   LIG    1        1.040  -5.326  -0.034  0.00  0.00    +0.140 A 
ATOM     12  C   LIG    1        2.167  -4.892   0.558  0.00  0.00    +0.160 A 
ATOM     13  N   LIG    1        2.393  -3.635   0.151  0.00  0.00    -0.460 NA
ATOM     14  C   LIG    1       -0.263  -4.579  -3.112  0.00  0.00    +0.050 C 
ATOM     15  C   LIG    1        1.446  -3.271  -0.674  0.00  0.00    +0.170 A 
ENDBRANCH   4   7
BRANCH   1  19
ATOM     16  C   LIG    1        7.257   0.933   0.149  0.00  0.00    +0.110 C 
ATOM     17  C   LIG    1        5.937   1.659   0.151  0.00  0.00    -0.080 A 
ATOM     18  C   LIG    1        4.750   0.954   0.063  0.00  0.00    +0.070 A 
ATOM     19  C   LIG    1        3.553   1.667   0.063  0.00  0.00    +0.120 A 
ATOM     20  C   LIG    1        3.589   3.049   0.161  0.00  0.00    +0.230 A 
ATOM     21  N   LIG    1        4.740   3.690   0.249  0.00  0.00    -0.490 NA
ATOM     22  C   LIG    1        5.896   3.046   0.246  0.00  0.00    +0.270 A 
BRANCH  22  23
ATOM     23  N   LIG    1        7.084   3.765   0.340  0.00  0.00    -0.480 N 
ATOM     24  C   LIG    1        7.195   4.430   1.645  0.00  0.00    +0.180 C 
ATOM     25  C   LIG    1        8.572   5.088   1.768  0.00  0.00    +0.020 C 
ATOM     26  C   LIG    1        8.749   6.106   0.638  0.00  0.00    +0.010 C 
ATOM     27  C   LIG    1        8.581   5.397  -0.709  0.00  0.00    +0.030 C 
ATOM     28  C   LIG    1        7.204   4.730  -0.760  0.00  0.00    +0.140 C 
ATOM     29  C   LIG    1        7.039   4.003  -2.096  0.00  0.00    +0.020 C 
ENDBRANCH  22  23
ENDBRANCH   1  19
TORSDOF 3
