REMARK  Name = ZINCpe000000XaXf.0
REMARK                            x       y       z     vdW  Elec       q    Type
REMARK                         _______ _______ _______ _____ _____    ______ ____
ROOT
ATOM      1  C   LIG    1        5.857   3.973   0.754  0.00  0.00    +0.160 A 
ATOM      2  C   LIG    1        5.427   4.622  -0.396  0.00  0.00    +0.020 A 
ATOM      3  C   LIG    1        6.130   5.709  -0.877  0.00  0.00    +0.050 A 
ATOM      4  C   LIG    1        7.266   6.145  -0.222  0.00  0.00    -0.120 A 
ATOM      5  C   LIG    1        7.701   5.498   0.920  0.00  0.00    +0.050 A 
ATOM      6  C   LIG    1        6.999   4.413   1.410  0.00  0.00    -0.010 A 
ENDROOT
BRANCH   4   7
ATOM      7  C   LIG    1        8.034   7.328  -0.753  0.00  0.00    +0.290 C 
ATOM      8  C   LIG    1        8.923   6.878  -1.915  0.00  0.00    +0.100 C 
ATOM      9  C   LIG    1        9.432   8.094  -2.649  0.00  0.00    +0.520 C 
ATOM     10  N   LIG    1        8.655   9.187  -2.758  0.00  0.00    -0.680 N 
ATOM     11  H   LIG    1        8.963   9.941  -3.285  0.00  0.00    +0.430 HD
ATOM     12  C   LIG    1        7.460   9.251  -2.147  0.00  0.00    +0.710 C 
ATOM     13  O   LIG    1        6.692  10.147  -2.437  0.00  0.00    -0.550 OA
ATOM     14  O   LIG    1       10.540   8.086  -3.139  0.00  0.00    -0.500 OA
ATOM     15  N   LIG    1        7.094   8.348  -1.222  0.00  0.00    -0.720 N 
ATOM     16  H   LIG    1        6.195   8.373  -0.860  0.00  0.00    +0.430 HD
ENDBRANCH   4   7
BRANCH   1  18
ATOM     17  C   LIG    1        3.805   2.824   1.111  0.00  0.00    +0.520 C 
ATOM     18  N   LIG    1        5.145   2.875   1.248  0.00  0.00    -0.670 N 
ATOM     19  H   LIG    1        5.615   2.150   1.690  0.00  0.00    +0.410 HD
ATOM     20  O   LIG    1        3.207   3.770   0.645  0.00  0.00    -0.510 OA
BRANCH  17  22
ATOM     21  C   LIG    1        3.279   1.340   3.027  0.00  0.00    +0.060 C 
ATOM     22  C   LIG    1        3.050   1.590   1.534  0.00  0.00    +0.000 C 
BRANCH  22  23
ATOM     23  C   LIG    1        1.556   1.791   1.274  0.00  0.00    +0.240 C 
ATOM     24  C   LIG    1        0.765   0.535   1.702  0.00  0.00    +0.060 C 
ATOM     25  C   LIG    1       -0.542   1.157   2.246  0.00  0.00    +0.050 C 
ATOM     26  C   LIG    1       -0.144   2.557   2.658  0.00  0.00    +0.520 C 
ATOM     27  O   LIG    1       -0.797   3.281   3.379  0.00  0.00    -0.530 OA
ATOM     28  N   LIG    1        1.036   2.884   2.104  0.00  0.00    -0.720 N 
ATOM     29  H   LIG    1        1.487   3.732   2.236  0.00  0.00    +0.410 HD
ENDBRANCH  22  23
ENDBRANCH  17  22
ENDBRANCH   1  18
TORSDOF 4
