REMARK  Name = ZINCpe000000XCM1.0
REMARK                            x       y       z     vdW  Elec       q    Type
REMARK                         _______ _______ _______ _____ _____    ______ ____
ROOT
ATOM      1  C   LIG    1       -0.410   3.609   4.824  0.00  0.00    +0.560 C 
ATOM      2  N   LIG    1       -0.095   3.114   3.611  0.00  0.00    -0.600 N 
ATOM      3  C   LIG    1        0.785   1.944   3.485  0.00  0.00    +0.260 C 
ATOM      4  C   LIG    1        1.939   2.295   2.540  0.00  0.00    +0.020 C 
ATOM      5  C   LIG    1        1.371   2.799   1.212  0.00  0.00    +0.010 C 
ATOM      6  C   LIG    1        0.545   4.065   1.456  0.00  0.00    +0.030 C 
ATOM      7  C   LIG    1       -0.625   3.734   2.389  0.00  0.00    +0.290 C 
ATOM      8  O   LIG    1       -1.052   4.637   4.913  0.00  0.00    -0.520 OA
ENDROOT
BRANCH   1  12
ATOM      9  C   LIG    1        1.189   3.580   9.578  0.00  0.00    +0.160 C 
ATOM     10  C   LIG    1        0.786   2.872   8.310  0.00  0.00    +0.070 A 
ATOM     11  C   LIG    1        0.390   3.604   7.204  0.00  0.00    +0.100 A 
ATOM     12  C   LIG    1        0.026   2.899   6.049  0.00  0.00    -0.130 A 
ATOM     13  C   LIG    1        0.082   1.504   6.095  0.00  0.00    +0.230 A 
ATOM     14  N   LIG    1        0.479   0.903   7.200  0.00  0.00    -0.230 NA
ATOM     15  N   LIG    1        0.811   1.554   8.254  0.00  0.00    -0.230 NA
ENDBRANCH   1  12
BRANCH   5  16
ATOM     16  C   LIG    1        2.520   3.118   0.254  0.00  0.00    +0.050 C 
BRANCH  16  17
ATOM     17  C   LIG    1        1.961   3.497  -1.093  0.00  0.00    +0.520 C 
ATOM     18  N   LIG    1        2.794   3.820  -2.102  0.00  0.00    -0.620 N 
ATOM     19  C   LIG    1        4.252   3.815  -1.908  0.00  0.00    +0.280 C 
ATOM     20  C   LIG    1        4.885   2.978  -3.032  0.00  0.00    +0.170 C 
ATOM     21  N   LIG    1        4.433   3.493  -4.332  0.00  0.00    -0.540 NA
ATOM     22  C   LIG    1        2.980   3.347  -4.487  0.00  0.00    +0.170 C 
ATOM     23  C   LIG    1        5.148   2.837  -5.435  0.00  0.00    +0.190 C 
ATOM     24  C   LIG    1        2.269   4.193  -3.425  0.00  0.00    +0.300 C 
ATOM     25  O   LIG    1        0.761   3.511  -1.269  0.00  0.00    -0.530 OA
ENDBRANCH  16  17
ENDBRANCH   5  16
TORSDOF 3
