REMARK  Name = ZINCrD0000071UDH.0
REMARK                            x       y       z     vdW  Elec       q    Type
REMARK                         _______ _______ _______ _____ _____    ______ ____
ROOT
ATOM      1  C   LIG    1       -0.018   1.461   0.010  0.00  0.00    +0.300 C 
ENDROOT
BRANCH   1   2
ATOM      2  N   LIG    1        0.002  -0.004   0.002  0.00  0.00    -0.700 N 
ATOM      3  H   LIG    1        0.766  -0.477  -0.363  0.00  0.00    +0.410 HD
ATOM      4  C   LIG    1       -1.042  -0.695   0.502  0.00  0.00    +0.560 C 
ATOM      5  O   LIG    1       -2.001  -0.102   0.959  0.00  0.00    -0.540 OA
BRANCH   4   6
ATOM      6  C   LIG    1       -1.022  -2.159   0.493  0.00  0.00    -0.080 C 
ATOM      7  C   LIG    1       -2.066  -2.850   0.993  0.00  0.00    +0.130 C 
BRANCH   7   8
ATOM      8  C   LIG    1       -2.046  -4.322   0.985  0.00  0.00    -0.040 A 
ATOM      9  C   LIG    1       -0.946  -5.006   0.460  0.00  0.00    -0.010 A 
ATOM     10  C   LIG    1       -0.931  -6.386   0.455  0.00  0.00    +0.050 A 
ATOM     11  C   LIG    1       -2.002  -7.095   0.968  0.00  0.00    -0.070 A 
ATOM     12  C   LIG    1       -3.100  -6.425   1.492  0.00  0.00    +0.130 A 
ATOM     13  C   LIG    1       -3.124  -5.042   1.508  0.00  0.00    +0.010 A 
BRANCH  12  14
ATOM     14  O   LIG    1       -4.148  -7.129   1.995  0.00  0.00    -0.320 OA
ATOM     15  C   LIG    1       -4.053  -8.554   1.952  0.00  0.00    +0.250 C 
ENDBRANCH  12  14
ENDBRANCH   7   8
ENDBRANCH   4   6
ENDBRANCH   1   2
BRANCH   1  16
ATOM     16  C   LIG    1       -0.747   1.960  -1.211  0.00  0.00    +0.450 C 
ATOM     17  O   LIG    1       -1.203   1.173  -2.006  0.00  0.00    -0.490 OA
BRANCH  16  18
ATOM     18  O   LIG    1       -0.889   3.279  -1.415  0.00  0.00    -0.360 OA
BRANCH  18  20
ATOM     19  C   LIG    1       -1.664   5.215  -2.672  0.00  0.00    +0.070 C 
ATOM     20  C   LIG    1       -1.602   3.688  -2.612  0.00  0.00    +0.200 C 
ENDBRANCH  18  20
ENDBRANCH  16  18
ENDBRANCH   1  16
BRANCH   1  21
ATOM     21  C   LIG    1        1.418   1.990  -0.001  0.00  0.00    +0.120 C 
BRANCH  21  22
ATOM     22  C   LIG    1        2.109   1.594   1.278  0.00  0.00    -0.090 A 
ATOM     23  C   LIG    1        2.060   2.430   2.378  0.00  0.00    +0.020 A 
ATOM     24  C   LIG    1        2.691   2.064   3.553  0.00  0.00    +0.000 A 
ATOM     25  C   LIG    1        3.378   0.867   3.624  0.00  0.00    -0.080 A 
ATOM     26  C   LIG    1        3.431   0.033   2.523  0.00  0.00    +0.000 A 
ATOM     27  C   LIG    1        4.069   0.471   4.904  0.00  0.00    +0.090 C 
ATOM     28  C   LIG    1        2.797   0.397   1.350  0.00  0.00    +0.010 A 
ENDBRANCH  21  22
ENDBRANCH   1  21
TORSDOF 9
