REMARK  Name = ZINCvU0000000AdR.0
REMARK                            x       y       z     vdW  Elec       q    Type
REMARK                         _______ _______ _______ _____ _____    ______ ____
ROOT
ATOM      1  C   LIG    1       -1.513   3.759   2.615  0.00  0.00    +0.240 A 
ATOM      2  N   LIG    1       -1.694   5.004   2.922  0.00  0.00    -0.510 NA
ATOM      3  C   LIG    1       -2.341   5.255   4.053  0.00  0.00    +0.180 A 
ATOM      4  C   LIG    1       -2.713   4.154   4.732  0.00  0.00    -0.140 A 
ATOM      5  S   LIG    1       -2.181   2.745   3.818  0.00  0.00    +0.240 S 
ENDROOT
BRANCH   3   6
ATOM      6  C   LIG    1       -2.625   6.632   4.531  0.00  0.00    -0.100 A 
ATOM      7  C   LIG    1       -2.280   7.790   3.908  0.00  0.00    +0.070 A 
ATOM      8  N   LIG    1       -2.728   8.830   4.671  0.00  0.00    -0.400 N 
ATOM      9  C   LIG    1       -3.348   8.330   5.781  0.00  0.00    +0.020 A 
ATOM     10  C   LIG    1       -3.977   9.145   6.881  0.00  0.00    +0.130 C 
ATOM     11  C   LIG    1       -1.537   7.905   2.602  0.00  0.00    +0.150 C 
ATOM     12  C   LIG    1       -3.303   6.985   5.726  0.00  0.00    -0.030 A 
BRANCH   8  13
ATOM     13  C   LIG    1       -2.572  10.190   4.368  0.00  0.00    +0.110 A 
ATOM     14  C   LIG    1       -3.197  10.729   3.251  0.00  0.00    +0.030 A 
ATOM     15  C   LIG    1       -3.046  12.070   2.958  0.00  0.00    +0.020 A 
ATOM     16  C   LIG    1       -2.265  12.873   3.769  0.00  0.00    -0.080 A 
ATOM     17  C   LIG    1       -1.638  12.338   4.879  0.00  0.00    +0.020 A 
ATOM     18  C   LIG    1       -2.098  14.335   3.443  0.00  0.00    +0.090 C 
ATOM     19  C   LIG    1       -1.789  10.998   5.180  0.00  0.00    +0.030 A 
ENDBRANCH   8  13
ENDBRANCH   3   6
BRANCH   1  21
ATOM     20  C   LIG    1       -0.724   1.989   1.250  0.00  0.00    +0.510 C 
ATOM     21  N   LIG    1       -0.863   3.311   1.472  0.00  0.00    -0.630 N 
ATOM     22  H   LIG    1       -0.509   3.950   0.833  0.00  0.00    +0.420 HD
ATOM     23  O   LIG    1       -1.166   1.190   2.049  0.00  0.00    -0.490 OA
BRANCH  20  24
ATOM     24  C   LIG    1       -0.018   1.503   0.010  0.00  0.00    +0.130 C 
BRANCH  24  28
ATOM     25  C   LIG    1        0.040  -2.770  -0.014  0.00  0.00    +0.130 A 
ATOM     26  C   LIG    1       -1.015  -2.086  -0.600  0.00  0.00    -0.020 A 
ATOM     27  C   LIG    1       -1.032  -0.705  -0.591  0.00  0.00    +0.070 A 
ATOM     28  C   LIG    1        0.002  -0.004   0.002  0.00  0.00    -0.120 A 
ATOM     29  C   LIG    1        1.057  -0.683   0.582  0.00  0.00    +0.060 A 
ATOM     30  C   LIG    1        1.076  -2.064   0.581  0.00  0.00    -0.080 A 
BRANCH  25  32
ATOM     31  C   LIG    1        1.176  -4.766   0.601  0.00  0.00    +0.250 C 
ATOM     32  O   LIG    1        0.059  -4.129  -0.022  0.00  0.00    -0.320 OA
ENDBRANCH  25  32
ENDBRANCH  24  28
ENDBRANCH  20  24
ENDBRANCH   1  21
TORSDOF 6
