REMARK  Name = ZINCpe00000gM18h.0
REMARK                            x       y       z     vdW  Elec       q    Type
REMARK                         _______ _______ _______ _____ _____    ______ ____
ROOT
ATOM      1  N   LIG    1       -3.688   1.789   0.461  0.00  0.00    -0.730 N 
ATOM      2  H   LIG    1       -3.749   2.755   0.529  0.00  0.00    +0.400 HD
ATOM      3  C   LIG    1       -2.482   1.188   0.483  0.00  0.00    +0.550 C 
ATOM      4  O   LIG    1       -2.405  -0.022   0.397  0.00  0.00    -0.520 OA
ENDROOT
BRANCH   3   5
ATOM      5  C   LIG    1       -1.253   1.999   0.612  0.00  0.00    -0.110 A 
ATOM      6  C   LIG    1       -1.339   3.389   0.716  0.00  0.00    +0.050 A 
ATOM      7  C   LIG    1       -0.190   4.144   0.830  0.00  0.00    +0.050 A 
ATOM      8  C   LIG    1        1.048   3.529   0.848  0.00  0.00    +0.040 A 
ATOM      9  C   LIG    1        1.144   2.147   0.751  0.00  0.00    +0.130 A 
ATOM     10  C   LIG    1       -0.004   1.379   0.635  0.00  0.00    +0.120 A 
BRANCH   9  11
ATOM     11  N   LIG    1        2.403   1.528   0.769  0.00  0.00    -0.330 N 
ATOM     12  C   LIG    1        3.609   2.126   0.875  0.00  0.00    +0.470 A 
ATOM     13  N   LIG    1        4.513   1.182   0.852  0.00  0.00    -0.330 NA
ATOM     14  N   LIG    1        3.961   0.028   0.738  0.00  0.00    -0.030 NA
ATOM     15  N   LIG    1        2.679   0.152   0.687  0.00  0.00    -0.070 NA
ENDBRANCH   9  11
ENDBRANCH   3   5
BRANCH   1  16
ATOM     16  C   LIG    1       -4.906   0.985   0.333  0.00  0.00    +0.300 C 
BRANCH  16  17
ATOM     17  C   LIG    1       -6.112   1.910   0.162  0.00  0.00    +0.100 C 
ATOM     18  C   LIG    1       -6.120   2.950   1.284  0.00  0.00    +0.000 C 
BRANCH  17  19
ATOM     19  N   LIG    1       -6.027   2.591  -1.137  0.00  0.00    -0.520 NA
ATOM     20  C   LIG    1       -4.782   3.365  -1.245  0.00  0.00    +0.130 C 
ATOM     21  C   LIG    1       -4.705   4.008  -2.632  0.00  0.00    +0.220 C 
ATOM     22  O   LIG    1       -5.866   4.818  -2.841  0.00  0.00    -0.380 OA
ATOM     23  C   LIG    1       -7.097   4.095  -2.744  0.00  0.00    +0.220 C 
ATOM     24  C   LIG    1       -7.197   3.453  -1.358  0.00  0.00    +0.150 C 
ENDBRANCH  17  19
BRANCH  17  26
ATOM     25  C   LIG    1       -7.458   0.143  -0.982  0.00  0.00    +0.030 C 
ATOM     26  C   LIG    1       -7.400   1.085   0.222  0.00  0.00    +0.030 C 
ENDBRANCH  17  26
ENDBRANCH  16  17
ENDBRANCH   1  16
TORSDOF 6
