REMARK  Name = ZINCzw0000000bnR.1
REMARK                            x       y       z     vdW  Elec       q    Type
REMARK                         _______ _______ _______ _____ _____    ______ ____
ROOT
ATOM      1  C   LIG    1        7.254   1.296   0.048  0.00  0.00    +0.510 C 
ATOM      2  N   LIG    1        8.518   1.739  -0.101  0.00  0.00    -0.670 N 
ATOM      3  H   LIG    1        8.686   2.678  -0.275  0.00  0.00    +0.420 HD
ATOM      4  O   LIG    1        7.038   0.109   0.170  0.00  0.00    -0.500 OA
ENDROOT
BRANCH   2   5
ATOM      5  C   LIG    1        9.585   0.846  -0.005  0.00  0.00    +0.180 A 
ATOM      6  C   LIG    1        9.473  -0.287   0.794  0.00  0.00    +0.020 A 
ATOM      7  C   LIG    1       10.522  -1.173   0.887  0.00  0.00    +0.100 A 
ATOM      8  C   LIG    1       11.706  -0.927   0.186  0.00  0.00    -0.160 A 
ATOM      9  C   LIG    1       11.818   0.215  -0.611  0.00  0.00    +0.060 A 
ATOM     10  C   LIG    1       10.763   1.094  -0.704  0.00  0.00    -0.010 A 
BRANCH   8  11
ATOM     11  C   LIG    1       12.835  -1.872   0.287  0.00  0.00    +0.580 C 
ATOM     12  N   LIG    1       14.086  -1.409   0.480  0.00  0.00    -0.630 N 
ATOM     13  C   LIG    1       14.366   0.035   0.483  0.00  0.00    +0.310 C 
ATOM     14  C   LIG    1       15.175   0.366   1.747  0.00  0.00    +0.250 C 
ATOM     15  N   LIG    1       16.372  -0.483   1.795  0.00  0.00    -0.380 N 
ATOM     16  C   LIG    1       15.982  -1.891   1.935  0.00  0.00    +0.260 C 
ATOM     17  H   LIG    1       16.899  -0.364   0.943  0.00  0.00    +0.420 HD
ATOM     18  C   LIG    1       15.212  -2.333   0.685  0.00  0.00    +0.330 C 
ATOM     19  O   LIG    1       12.637  -3.068   0.197  0.00  0.00    -0.500 OA
BRANCH  15  20
ATOM     20  C   LIG    1       17.203  -0.091   2.941  0.00  0.00    +0.250 C 
ATOM     21  C   LIG    1       17.507   1.407   2.862  0.00  0.00    +0.080 C 
ENDBRANCH  15  20
ENDBRANCH   8  11
ENDBRANCH   2   5
BRANCH   1  22
ATOM     22  C   LIG    1        6.109   2.276   0.063  0.00  0.00    +0.320 C 
BRANCH  22  24
ATOM     23  C   LIG    1        3.683   2.227   0.280  0.00  0.00    +0.570 C 
ATOM     24  N   LIG    1        4.848   1.551   0.236  0.00  0.00    -0.720 N 
ATOM     25  H   LIG    1        4.852   0.584   0.320  0.00  0.00    +0.410 HD
ATOM     26  O   LIG    1        3.678   3.438   0.175  0.00  0.00    -0.530 OA
BRANCH  23  30
ATOM     27  C   LIG    1        0.027   0.118   0.781  0.00  0.00    +0.140 A 
ATOM     28  C   LIG    1        1.228  -0.576   0.737  0.00  0.00    -0.040 A 
ATOM     29  C   LIG    1        2.416   0.105   0.575  0.00  0.00    +0.050 A 
ATOM     30  C   LIG    1        2.412   1.496   0.454  0.00  0.00    -0.140 A 
ATOM     31  C   LIG    1        1.203   2.195   0.498  0.00  0.00    +0.040 A 
ATOM     32  C   LIG    1        0.016   1.507   0.661  0.00  0.00    +0.100 A 
BRANCH  27  33
ATOM     33  O   LIG    1       -1.140  -0.557   0.942  0.00  0.00    -0.300 OA
BRANCH  33  35
ATOM     34  C   LIG    1       -2.461  -2.560   1.231  0.00  0.00    +0.070 C 
ATOM     35  C   LIG    1       -1.057  -1.979   1.058  0.00  0.00    +0.170 C 
ENDBRANCH  33  35
ENDBRANCH  27  33
BRANCH  32  36
ATOM     36  O   LIG    1       -1.163   2.184   0.699  0.00  0.00    -0.300 OA
BRANCH  36  37
ATOM     37  C   LIG    1       -1.099   3.606   0.570  0.00  0.00    +0.170 C 
ATOM     38  C   LIG    1       -2.513   4.188   0.635  0.00  0.00    +0.070 C 
ENDBRANCH  36  37
ENDBRANCH  32  36
ENDBRANCH  23  30
ENDBRANCH  22  24
ENDBRANCH   1  22
TORSDOF 10
