REMARK  Name = ZINCrg000000sGJO.0
REMARK                            x       y       z     vdW  Elec       q    Type
REMARK                         _______ _______ _______ _____ _____    ______ ____
ROOT
ATOM      1  C   LIG    1       -3.501   4.226   3.176  0.00  0.00    +0.610 C 
ATOM      2  N   LIG    1       -2.503   3.404   2.796  0.00  0.00    -0.600 N 
ATOM      3  C   LIG    1       -1.114   3.883   2.729  0.00  0.00    +0.300 C 
ATOM      4  C   LIG    1       -0.542   3.523   1.354  0.00  0.00    +0.170 C 
ATOM      5  N   LIG    1       -0.714   2.083   1.117  0.00  0.00    -0.540 NA
ATOM      6  C   LIG    1       -2.136   1.717   1.075  0.00  0.00    +0.170 C 
ATOM      7  C   LIG    1       -2.774   2.003   2.439  0.00  0.00    +0.300 C 
ATOM      8  O   LIG    1       -3.251   5.362   3.533  0.00  0.00    -0.540 OA
ENDROOT
BRANCH   1  12
ATOM      9  N   LIG    1       -7.079   3.674   3.271  0.00  0.00    -0.380 N 
ATOM     10  C   LIG    1       -6.604   2.432   2.980  0.00  0.00    +0.440 A 
ATOM     11  N   LIG    1       -5.305   2.479   2.913  0.00  0.00    -0.450 NA
ATOM     12  C   LIG    1       -4.895   3.750   3.158  0.00  0.00    -0.050 A 
ATOM     13  C   LIG    1       -6.008   4.505   3.389  0.00  0.00    +0.250 A 
BRANCH   9  18
ATOM     14  C   LIG    1      -11.187   6.304   3.938  0.00  0.00    +0.370 C 
ATOM     15  N   LIG    1      -10.281   5.174   3.722  0.00  0.00    -0.360 N 
ATOM     16  C   LIG    1      -10.644   3.880   3.590  0.00  0.00    +0.270 A 
ATOM     17  C   LIG    1       -9.521   3.151   3.401  0.00  0.00    -0.110 A 
ATOM     18  C   LIG    1       -8.427   4.031   3.427  0.00  0.00    +0.280 A 
ATOM     19  N   LIG    1       -8.886   5.245   3.617  0.00  0.00    -0.290 NA
ENDBRANCH   9  18
ENDBRANCH   1  12
BRANCH   5  20
ATOM     20  C   LIG    1       -0.026   1.666  -0.112  0.00  0.00    +0.180 C 
BRANCH  20  21
ATOM     21  C   LIG    1       -0.014   0.138  -0.196  0.00  0.00    +0.090 C 
BRANCH  21  22
ATOM     22  C   LIG    1        0.692  -0.290  -1.456  0.00  0.00    -0.040 A 
ATOM     23  C   LIG    1       -0.013  -0.474  -2.636  0.00  0.00    -0.040 A 
ATOM     24  C   LIG    1        0.669  -0.863  -3.774  0.00  0.00    +0.260 A 
ATOM     25  N   LIG    1        1.971  -1.068  -3.743  0.00  0.00    -0.490 NA
ATOM     26  C   LIG    1        2.672  -0.908  -2.638  0.00  0.00    +0.260 A 
ATOM     27  C   LIG    1        2.060  -0.515  -1.463  0.00  0.00    -0.030 A 
ENDBRANCH  21  22
ENDBRANCH  20  21
ENDBRANCH   5  20
TORSDOF 5
