REMARK  Name = ZINCkj000005izmk.1
REMARK                            x       y       z     vdW  Elec       q    Type
REMARK                         _______ _______ _______ _____ _____    ______ ____
ROOT
ATOM      1  N   LIG    1       -1.040   1.584  -1.000  0.00  0.00    -0.370 N 
ATOM      2  C   LIG    1       -0.426   1.218  -2.284  0.00  0.00    +0.320 C 
ATOM      3  H   LIG    1       -1.166   2.584  -0.961  0.00  0.00    +0.430 HD
ENDROOT
BRANCH   1   6
ATOM      4  C   LIG    1        1.012   1.925   1.685  0.00  0.00    +0.110 C 
ATOM      5  C   LIG    1       -0.504   1.815   1.449  0.00  0.00    +0.050 C 
ATOM      6  C   LIG    1       -0.167   1.156   0.101  0.00  0.00    +0.160 C 
ATOM      7  C   LIG    1        1.437   3.243   2.334  0.00  0.00    +0.060 C 
ATOM      8  C   LIG    1        1.171   1.912   0.155  0.00  0.00    -0.070 C 
ATOM      9  C   LIG    1        1.115   3.303  -0.480  0.00  0.00    +0.090 C 
ATOM     10  C   LIG    1        2.363   1.085  -0.330  0.00  0.00    +0.070 C 
BRANCH   4  12
ATOM     11  C   LIG    1        1.432   0.784   3.750  0.00  0.00    +0.230 C 
ATOM     12  O   LIG    1        1.575   0.780   2.328  0.00  0.00    -0.360 OA
ENDBRANCH   4  12
ENDBRANCH   1   6
BRANCH   1  13
ATOM     13  C   LIG    1       -2.345   0.921  -0.876  0.00  0.00    +0.240 C 
BRANCH  13  14
ATOM     14  C   LIG    1       -3.295   1.460  -1.948  0.00  0.00    +0.200 C 
BRANCH  14  15
ATOM     15  O   LIG    1       -3.458   2.869  -1.775  0.00  0.00    -0.530 OA
ATOM     16  H   LIG    1       -3.825   3.120  -0.916  0.00  0.00    +0.390 HD
ENDBRANCH  14  15
BRANCH  14  17
ATOM     17  C   LIG    1       -4.654   0.770  -1.818  0.00  0.00    +0.320 C 
BRANCH  17  18
ATOM     18  N   LIG    1       -5.526   1.197  -2.916  0.00  0.00    -0.390 N 
ATOM     19  C   LIG    1       -6.154   0.385  -3.792  0.00  0.00    +0.230 A 
ATOM     20  C   LIG    1       -6.860   1.165  -4.643  0.00  0.00    -0.110 A 
ATOM     21  C   LIG    1       -6.648   2.500  -4.281  0.00  0.00    +0.240 A 
ATOM     22  N   LIG    1       -5.848   2.520  -3.245  0.00  0.00    -0.280 NA
ENDBRANCH  17  18
ENDBRANCH  14  17
ENDBRANCH  13  14
ENDBRANCH   1  13
TORSDOF 7
