REMARK  Name = ZINCkj000005izmk.0
REMARK                            x       y       z     vdW  Elec       q    Type
REMARK                         _______ _______ _______ _____ _____    ______ ____
ROOT
ATOM      1  N   LIG    1       -0.573   1.652   1.338  0.00  0.00    -0.370 N 
ATOM      2  C   LIG    1       -1.774   0.934   1.786  0.00  0.00    +0.330 C 
ATOM      3  H   LIG    1       -0.780   2.636   1.258  0.00  0.00    +0.420 HD
ENDROOT
BRANCH   1   6
ATOM      4  C   LIG    1        1.858   2.536   3.538  0.00  0.00    +0.110 C 
ATOM      5  C   LIG    1        0.339   2.292   3.595  0.00  0.00    +0.050 C 
ATOM      6  C   LIG    1        0.507   1.456   2.315  0.00  0.00    +0.160 C 
ATOM      7  C   LIG    1        2.266   3.963   3.907  0.00  0.00    +0.060 C 
ATOM      8  C   LIG    1        1.762   2.295   2.023  0.00  0.00    -0.070 C 
ATOM      9  C   LIG    1        1.477   3.563   1.216  0.00  0.00    +0.080 C 
ATOM     10  C   LIG    1        2.926   1.480   1.456  0.00  0.00    +0.070 C 
BRANCH   4  12
ATOM     11  C   LIG    1        2.716   1.760   5.638  0.00  0.00    +0.230 C 
ATOM     12  O   LIG    1        2.621   1.544   4.228  0.00  0.00    -0.360 OA
ENDBRANCH   4  12
ENDBRANCH   1   6
BRANCH   1  13
ATOM     13  C   LIG    1       -0.151   1.133   0.031  0.00  0.00    +0.230 C 
BRANCH  13  14
ATOM     14  C   LIG    1       -1.204   1.483  -1.022  0.00  0.00    +0.200 C 
BRANCH  14  15
ATOM     15  O   LIG    1       -2.404   0.754  -0.756  0.00  0.00    -0.530 OA
ATOM     16  H   LIG    1       -2.293  -0.207  -0.772  0.00  0.00    +0.390 HD
ENDBRANCH  14  15
BRANCH  14  17
ATOM     17  C   LIG    1       -0.680   1.113  -2.411  0.00  0.00    +0.320 C 
BRANCH  17  18
ATOM     18  N   LIG    1       -1.637   1.557  -3.428  0.00  0.00    -0.390 N 
ATOM     19  C   LIG    1       -1.365   2.362  -4.476  0.00  0.00    +0.230 A 
ATOM     20  C   LIG    1       -2.511   2.529  -5.176  0.00  0.00    -0.110 A 
ATOM     21  C   LIG    1       -3.520   1.808  -4.529  0.00  0.00    +0.240 A 
ATOM     22  N   LIG    1       -2.997   1.226  -3.480  0.00  0.00    -0.280 NA
ENDBRANCH  17  18
ENDBRANCH  14  17
ENDBRANCH  13  14
ENDBRANCH   1  13
TORSDOF 7
