REMARK  Name = ZINCrg00000fSg3c.0
REMARK                            x       y       z     vdW  Elec       q    Type
REMARK                         _______ _______ _______ _____ _____    ______ ____
ROOT
ATOM      1  C   LIG    1        2.406   0.752  -0.017  0.00  0.00    +0.470 C 
ATOM      2  O   LIG    1        2.201  -0.439  -0.021  0.00  0.00    -0.500 OA
ENDROOT
BRANCH   1   3
ATOM      3  C   LIG    1        1.248   1.716  -0.001  0.00  0.00    +0.370 C 
BRANCH   3   5
ATOM      4  C   LIG    1       -1.187   1.624   0.017  0.00  0.00    +0.570 C 
ATOM      5  N   LIG    1       -0.011   0.966   0.007  0.00  0.00    -0.720 N 
ATOM      6  H   LIG    1        0.002  -0.004   0.002  0.00  0.00    +0.410 HD
ATOM      7  O   LIG    1       -1.204   2.839   0.023  0.00  0.00    -0.530 OA
BRANCH   4  13
ATOM      8  C   LIG    1       -3.616  -2.735   0.004  0.00  0.00    +0.090 C 
ATOM      9  C   LIG    1       -3.631  -1.228   0.012  0.00  0.00    -0.090 A 
ATOM     10  C   LIG    1       -4.837  -0.550   0.021  0.00  0.00    +0.040 A 
ATOM     11  C   LIG    1       -4.859   0.834   0.029  0.00  0.00    -0.090 A 
ATOM     12  C   LIG    1       -3.677   1.546   0.028  0.00  0.00    +0.080 A 
ATOM     13  C   LIG    1       -2.458   0.867   0.018  0.00  0.00    -0.130 A 
ATOM     14  C   LIG    1       -6.177   1.564   0.039  0.00  0.00    +0.090 C 
ATOM     15  C   LIG    1       -2.442  -0.528   0.005  0.00  0.00    +0.040 A 
ENDBRANCH   4  13
ENDBRANCH   3   5
ENDBRANCH   1   3
BRANCH   1  16
ATOM     16  O   LIG    1        3.665   1.216  -0.026  0.00  0.00    -0.320 OA
BRANCH  16  17
ATOM     17  C   LIG    1        4.731   0.231  -0.042  0.00  0.00    +0.280 C 
BRANCH  17  18
ATOM     18  C   LIG    1        6.065   0.933  -0.051  0.00  0.00    +0.520 C 
ATOM     19  N   LIG    1        7.205   0.215  -0.066  0.00  0.00    -0.520 N 
ATOM     20  H   LIG    1        7.167  -0.754  -0.070  0.00  0.00    +0.440 HD
ATOM     21  O   LIG    1        6.112   2.145  -0.045  0.00  0.00    -0.510 OA
BRANCH  19  22
ATOM     22  N   LIG    1        8.444   0.868  -0.074  0.00  0.00    -0.520 N 
ATOM     23  H   LIG    1        8.482   1.837  -0.069  0.00  0.00    +0.430 HD
ATOM     24  C   LIG    1        9.585   0.149  -0.089  0.00  0.00    +0.600 C 
ATOM     25  O   LIG    1        9.537  -1.067  -0.095  0.00  0.00    -0.520 OA
BRANCH  24  26
ATOM     26  C   LIG    1       10.881   0.832  -0.097  0.00  0.00    -0.280 A 
ATOM     27  C   LIG    1       12.101   0.217  -0.112  0.00  0.00    +0.120 A 
ATOM     28  C   LIG    1       13.155   1.099  -0.118  0.00  0.00    +0.000 A 
ATOM     29  C   LIG    1       12.813   2.393  -0.107  0.00  0.00    -0.050 A 
ATOM     30  S   LIG    1       11.116   2.575  -0.098  0.00  0.00    +0.210 S 
ENDBRANCH  24  26
ENDBRANCH  19  22
ENDBRANCH  17  18
ENDBRANCH  16  17
ENDBRANCH   1  16
TORSDOF 8
