REMARK  Name = ZINCtj00000nxsub.0
REMARK                            x       y       z     vdW  Elec       q    Type
REMARK                         _______ _______ _______ _____ _____    ______ ____
ROOT
ATOM      1  N   LIG    1       -1.191   1.870   0.018  0.00  0.00    -0.690 N 
ATOM      2  H   LIG    1       -1.204   2.840   0.023  0.00  0.00    +0.410 HD
ATOM      3  C   LIG    1       -0.014   1.212   0.009  0.00  0.00    +0.610 C 
ATOM      4  O   LIG    1        0.002  -0.004   0.002  0.00  0.00    -0.530 OA
ENDROOT
BRANCH   3   5
ATOM      5  C   LIG    1        1.253   1.967   0.001  0.00  0.00    -0.090 A 
ATOM      6  C   LIG    1        2.506   1.423  -0.014  0.00  0.00    +0.140 A 
ATOM      7  N   LIG    1        3.378   2.451  -0.017  0.00  0.00    -0.380 N 
ATOM      8  N   LIG    1        2.616   3.629  -0.003  0.00  0.00    -0.070 NA
ATOM      9  C   LIG    1        2.848  -0.044  -0.026  0.00  0.00    +0.200 C 
ATOM     10  N   LIG    1        1.370   3.306   0.001  0.00  0.00    -0.170 NA
BRANCH   7  11
ATOM     11  C   LIG    1        4.840   2.357  -0.032  0.00  0.00    +0.290 C 
ATOM     12  C   LIG    1        5.409   3.051  -1.286  0.00  0.00    +0.090 C 
ATOM     13  C   LIG    1        6.304   4.186  -0.745  0.00  0.00    +0.290 C 
ATOM     14  N   LIG    1        6.679   3.748   0.624  0.00  0.00    -0.510 N 
ATOM     15  H   LIG    1        6.954   4.539   1.185  0.00  0.00    +0.440 HD
ATOM     16  H   LIG    1        7.423   3.067   0.585  0.00  0.00    +0.440 HD
ATOM     17  C   LIG    1        5.439   3.131   1.162  0.00  0.00    +0.290 C 
ENDBRANCH   7  11
ENDBRANCH   3   5
BRANCH   1  18
ATOM     18  C   LIG    1       -2.449   1.120   0.020  0.00  0.00    +0.400 C 
BRANCH  18  22
ATOM     19  C   LIG    1       -5.550   3.537  -1.655  0.00  0.00    +0.140 A 
ATOM     20  C   LIG    1       -5.484   2.185  -1.956  0.00  0.00    -0.010 A 
ATOM     21  C   LIG    1       -4.481   1.405  -1.413  0.00  0.00    +0.070 A 
ATOM     22  C   LIG    1       -3.543   1.972  -0.571  0.00  0.00    -0.140 A 
ATOM     23  C   LIG    1       -3.609   3.319  -0.265  0.00  0.00    +0.080 A 
ATOM     24  C   LIG    1       -4.607   4.104  -0.810  0.00  0.00    -0.080 A 
BRANCH  19  26
ATOM     25  C   LIG    1       -6.542   5.691  -1.833  0.00  0.00    +0.240 C 
ATOM     26  O   LIG    1       -6.536   4.306  -2.187  0.00  0.00    -0.310 OA
ENDBRANCH  19  26
ENDBRANCH  18  22
BRANCH  18  27
ATOM     27  C   LIG    1       -2.811   0.749   1.435  0.00  0.00    +0.190 A 
ATOM     28  N   LIG    1       -2.750   1.543   2.469  0.00  0.00    -0.470 NA
ATOM     29  C   LIG    1       -3.148   0.876   3.562  0.00  0.00    +0.140 A 
ATOM     30  C   LIG    1       -3.459  -0.381   3.194  0.00  0.00    +0.130 A 
ATOM     31  N   LIG    1       -3.246  -0.462   1.844  0.00  0.00    -0.450 N 
ATOM     32  C   LIG    1       -3.451  -1.643   1.001  0.00  0.00    +0.330 C 
ENDBRANCH  18  27
ENDBRANCH   1  18
TORSDOF 6
