REMARK  Name = ZINCqH0000004cpv.0
REMARK                            x       y       z     vdW  Elec       q    Type
REMARK                         _______ _______ _______ _____ _____    ______ ____
ROOT
ATOM      1  N   LIG    1       -0.008  -0.140   2.444  0.00  0.00    -0.740 N 
ATOM      2  H   LIG    1       -0.840   0.353   2.364  0.00  0.00    +0.400 HD
ATOM      3  C   LIG    1        0.457  -0.484   3.661  0.00  0.00    +0.710 C 
ATOM      4  N   LIG    1       -0.234  -0.143   4.767  0.00  0.00    -0.730 N 
ATOM      5  H   LIG    1       -1.065   0.350   4.687  0.00  0.00    +0.400 HD
ATOM      6  O   LIG    1        1.499  -1.102   3.762  0.00  0.00    -0.590 OA
ENDROOT
BRANCH   4   7
ATOM      7  C   LIG    1        0.272  -0.517   6.091  0.00  0.00    +0.300 C 
ATOM      8  C   LIG    1       -0.885  -0.570   7.111  0.00  0.00    +0.050 C 
ATOM      9  C   LIG    1       -0.866   0.857   7.704  0.00  0.00    +0.080 C 
ATOM     10  C   LIG    1        0.560   1.336   7.539  0.00  0.00    -0.110 A 
ATOM     11  C   LIG    1        1.236   2.383   8.154  0.00  0.00    +0.110 A 
ATOM     12  C   LIG    1        2.562   2.636   7.838  0.00  0.00    -0.010 A 
ATOM     13  C   LIG    1        3.211   1.844   6.911  0.00  0.00    +0.020 A 
ATOM     14  C   LIG    1        2.539   0.802   6.301  0.00  0.00    +0.040 A 
ATOM     15  C   LIG    1        1.214   0.547   6.613  0.00  0.00    -0.100 A 
BRANCH  11  16
ATOM     16  O   LIG    1        0.595   3.161   9.066  0.00  0.00    -0.500 OA
ATOM     17  H   LIG    1        0.152   3.931   8.683  0.00  0.00    +0.390 HD
ENDBRANCH  11  16
ENDBRANCH   4   7
BRANCH   1  18
ATOM     18  C   LIG    1        0.742  -0.511   1.242  0.00  0.00    +0.270 C 
BRANCH  18  19
ATOM     19  C   LIG    1        0.002  -0.004   0.002  0.00  0.00    +0.170 C 
BRANCH  19  20
ATOM     20  C   LIG    1        0.707  -0.490  -1.238  0.00  0.00    -0.090 A 
ATOM     21  C   LIG    1        0.357  -1.702  -1.802  0.00  0.00    +0.040 A 
ATOM     22  C   LIG    1        1.000  -2.146  -2.942  0.00  0.00    +0.050 A 
ATOM     23  C   LIG    1        2.002  -1.382  -3.513  0.00  0.00    -0.090 A 
ATOM     24  C   LIG    1        2.356  -0.171  -2.945  0.00  0.00    +0.050 A 
ATOM     25 BR   LIG    1        2.887  -1.992  -5.068  0.00  0.00    -0.050 Br
ATOM     26  C   LIG    1        1.709   0.274  -1.808  0.00  0.00    +0.030 A 
ENDBRANCH  19  20
BRANCH  19  28
ATOM     27  C   LIG    1       -2.135  -0.131  -1.286  0.00  0.00    +0.020 C 
ATOM     28  C   LIG    1       -1.433  -0.534   0.013  0.00  0.00    +0.040 C 
ENDBRANCH  19  28
BRANCH  19  29
ATOM     29  O   LIG    1       -0.017   1.425   0.010  0.00  0.00    -0.540 OA
ATOM     30  H   LIG    1        0.861   1.830   0.004  0.00  0.00    +0.380 HD
ENDBRANCH  19  29
ENDBRANCH  18  19
ENDBRANCH   1  18
TORSDOF 7
