REMARK  Name = ZINCnE000001QwiA.1
REMARK                            x       y       z     vdW  Elec       q    Type
REMARK                         _______ _______ _______ _____ _____    ______ ____
ROOT
ATOM      1  N   LIG    1       -3.499   3.866   7.396  0.00  0.00    -0.430 N 
ATOM      2  C   LIG    1       -3.358   2.986   8.451  0.00  0.00    +0.080 A 
ATOM      3  C   LIG    1       -3.647   1.641   8.632  0.00  0.00    +0.030 A 
ATOM      4  C   LIG    1       -3.369   1.040   9.841  0.00  0.00    +0.030 A 
ATOM      5  C   LIG    1       -2.797   1.768  10.874  0.00  0.00    +0.000 A 
ATOM      6  C   LIG    1       -2.500   3.092  10.712  0.00  0.00    +0.070 A 
ATOM      7  C   LIG    1       -2.773   3.723   9.495  0.00  0.00    +0.040 A 
ATOM      8  N   LIG    1       -2.600   4.989   9.037  0.00  0.00    -0.440 NA
ATOM      9  C   LIG    1       -3.024   5.072   7.810  0.00  0.00    +0.200 A 
ENDROOT
BRANCH   9  10
ATOM     10  C   LIG    1       -2.994   6.322   6.969  0.00  0.00    +0.560 C 
ATOM     11  F   LIG    1       -4.286   6.850   6.871  0.00  0.00    -0.170 F 
ATOM     12  F   LIG    1       -2.519   6.013   5.690  0.00  0.00    -0.150 F 
ATOM     13  F   LIG    1       -2.149   7.265   7.564  0.00  0.00    -0.150 F 
ENDBRANCH   9  10
BRANCH   1  14
ATOM     14  C   LIG    1       -4.061   3.560   6.079  0.00  0.00    +0.320 C 
BRANCH  14  16
ATOM     15  N   LIG    1       -3.243   2.768   3.882  0.00  0.00    -0.690 NA
ATOM     16  C   LIG    1       -2.959   3.106   5.156  0.00  0.00    +0.450 C 
ATOM     17  O   LIG    1       -1.817   3.045   5.559  0.00  0.00    -0.560 OA
BRANCH  15  22
ATOM     18  C   LIG    1       -0.013   1.086   0.008  0.00  0.00    +0.110 C 
ATOM     19  C   LIG    1       -0.718   1.572   1.248  0.00  0.00    -0.330 A 
ATOM     20  C   LIG    1       -0.145   1.834   2.424  0.00  0.00    +0.220 A 
ATOM     21  N   LIG    1       -0.977   2.249   3.360  0.00  0.00    -0.560 NA
ATOM     22  C   LIG    1       -2.227   2.350   3.031  0.00  0.00    +0.340 A 
ATOM     23  S   LIG    1       -2.443   1.900   1.396  0.00  0.00    +0.020 S 
ENDBRANCH  15  22
ENDBRANCH  14  16
ENDBRANCH   1  14
TORSDOF 4
