REMARK  Name = ZINCpe00000gN7A1.0
REMARK                            x       y       z     vdW  Elec       q    Type
REMARK                         _______ _______ _______ _____ _____    ______ ____
ROOT
ATOM      1  C   LIG    1       -2.193   3.523  -2.256  0.00  0.00    +0.150 A 
ATOM      2  C   LIG    1       -1.946   2.925  -3.485  0.00  0.00    -0.010 A 
ATOM      3  C   LIG    1       -1.177   1.779  -3.551  0.00  0.00    +0.040 A 
ATOM      4  C   LIG    1       -0.653   1.229  -2.396  0.00  0.00    +0.000 A 
ATOM      5  C   LIG    1       -0.897   1.823  -1.171  0.00  0.00    -0.090 A 
ATOM      6  C   LIG    1       -1.670   2.965  -1.097  0.00  0.00    +0.030 A 
ENDROOT
BRANCH   1   8
ATOM      7  C   LIG    1       -2.708   5.617  -1.250  0.00  0.00    +0.520 C 
ATOM      8  N   LIG    1       -2.972   4.683  -2.186  0.00  0.00    -0.670 N 
ATOM      9  H   LIG    1       -3.702   4.816  -2.811  0.00  0.00    +0.410 HD
ATOM     10  O   LIG    1       -1.738   5.497  -0.532  0.00  0.00    -0.510 OA
BRANCH   7  13
ATOM     11  N   LIG    1       -3.525   8.862  -0.980  0.00  0.00    -1.040 NA
ATOM     12  C   LIG    1       -3.155   7.806  -0.018  0.00  0.00    +0.350 C 
ATOM     13  C   LIG    1       -3.617   6.808  -1.097  0.00  0.00    -0.020 C 
ATOM     14  C   LIG    1       -3.345   7.931  -2.114  0.00  0.00    +0.330 C 
BRANCH  11  15
ATOM     15  S   LIG    1       -3.967  10.452  -0.844  0.00  0.00    +2.810 S 
ATOM     16  O   LIG    1       -4.486  10.614   0.469  0.00  0.00    -0.970 OA
ATOM     17  O   LIG    1       -4.708  10.764  -2.016  0.00  0.00    -0.980 OA
BRANCH  15  18
ATOM     18  N   LIG    1       -2.580  11.354  -0.913  0.00  0.00    -1.270 NA
ATOM     19  H   LIG    1       -2.627  12.321  -0.851  0.00  0.00    +0.420 HD
ATOM     20  H   LIG    1       -1.721  10.916  -1.017  0.00  0.00    +0.410 HD
ENDBRANCH  15  18
ENDBRANCH  11  15
ENDBRANCH   7  13
ENDBRANCH   1   8
BRANCH   5  21
ATOM     21  C   LIG    1       -0.325   1.219   0.086  0.00  0.00    +0.310 C 
BRANCH  21  22
ATOM     22  C   LIG    1        1.083   1.718   0.287  0.00  0.00    -0.110 A 
ATOM     23  C   LIG    1        2.126   1.145  -0.416  0.00  0.00    +0.010 A 
ATOM     24  C   LIG    1        3.417   1.606  -0.235  0.00  0.00    +0.000 A 
ATOM     25  C   LIG    1        3.665   2.633   0.657  0.00  0.00    +0.000 A 
ATOM     26  C   LIG    1        2.622   3.202   1.363  0.00  0.00    +0.000 A 
ATOM     27  C   LIG    1        1.331   2.745   1.179  0.00  0.00    +0.020 A 
ENDBRANCH  21  22
BRANCH  21  28
ATOM     28  O   LIG    1       -0.313  -0.205  -0.033  0.00  0.00    -0.550 OA
ATOM     29  H   LIG    1        0.215  -0.534  -0.773  0.00  0.00    +0.370 HD
ENDBRANCH  21  28
ENDBRANCH   5  21
TORSDOF 7
