REMARK  Name = ZINCpk000000oS4r.0
REMARK                            x       y       z     vdW  Elec       q    Type
REMARK                         _______ _______ _______ _____ _____    ______ ____
ROOT
ATOM      1  N   LIG    1       -2.034   1.685  -1.415  0.00  0.00    -0.720 N 
ATOM      2  H   LIG    1       -2.492   1.117  -0.776  0.00  0.00    +0.400 HD
ATOM      3  C   LIG    1       -0.746   2.026  -1.211  0.00  0.00    +0.520 C 
ATOM      4  O   LIG    1       -0.173   2.736  -2.010  0.00  0.00    -0.500 OA
ENDROOT
BRANCH   1   5
ATOM      5  C   LIG    1       -2.741   2.170  -2.602  0.00  0.00    +0.200 C 
ATOM      6  C   LIG    1       -2.762   3.700  -2.593  0.00  0.00    +0.050 C 
ATOM      7  C   LIG    1       -3.479   4.193  -1.335  0.00  0.00    +0.030 C 
ATOM      8  C   LIG    1       -4.915   3.664  -1.325  0.00  0.00    +0.020 C 
ATOM      9  C   LIG    1       -4.894   2.134  -1.334  0.00  0.00    +0.010 C 
ATOM     10  C   LIG    1       -4.177   1.641  -2.593  0.00  0.00    +0.060 C 
BRANCH   5  11
ATOM     11  C   LIG    1       -2.035   1.685  -3.842  0.00  0.00    +0.460 C 
ATOM     12  O   LIG    1       -2.673   1.395  -4.826  0.00  0.00    -0.510 OA
BRANCH  11  13
ATOM     13  O   LIG    1       -0.698   1.574  -3.852  0.00  0.00    -0.320 OA
BRANCH  13  15
ATOM     14  C   LIG    1        1.434   1.041  -4.903  0.00  0.00    +0.060 C 
ATOM     15  C   LIG    1       -0.085   1.100  -5.080  0.00  0.00    +0.190 C 
ENDBRANCH  13  15
ENDBRANCH  11  13
ENDBRANCH   5  11
ENDBRANCH   1   5
BRANCH   3  16
ATOM     16  C   LIG    1       -0.019   1.526   0.010  0.00  0.00    -0.020 C 
ATOM     17  C   LIG    1        0.002  -0.004   0.002  0.00  0.00    +0.030 C 
ATOM     18  C   LIG    1        0.712  -0.513   1.258  0.00  0.00    +0.020 C 
ATOM     19  C   LIG    1        2.159  -0.010   1.262  0.00  0.00    +0.280 C 
ATOM     20  N   LIG    1        2.151   1.453   1.124  0.00  0.00    -1.000 NA
ATOM     21  C   LIG    1        1.420   2.052  -0.001  0.00  0.00    +0.320 C 
BRANCH  20  22
ATOM     22  S   LIG    1        2.952   2.407   2.215  0.00  0.00    +2.610 S 
ATOM     23  O   LIG    1        2.983   1.630   3.404  0.00  0.00    -0.950 OA
ATOM     24  O   LIG    1        2.260   3.648   2.169  0.00  0.00    -0.950 OA
BRANCH  22  25
ATOM     25  C   LIG    1        4.620   2.583   1.525  0.00  0.00    -0.370 C 
ATOM     26  C   LIG    1        5.467   3.455   2.454  0.00  0.00    +0.070 C 
ENDBRANCH  22  25
ENDBRANCH  20  22
ENDBRANCH   3  16
TORSDOF 7
