REMARK  Name = ZINCvU00000005cX.0
REMARK                            x       y       z     vdW  Elec       q    Type
REMARK                         _______ _______ _______ _____ _____    ______ ____
ROOT
ATOM      1  C   LIG    1        2.635  -0.753   2.001  0.00  0.00    -0.690 A 
ATOM      2  C   LIG    1        1.541  -0.816   2.846  0.00  0.00    +0.170 A 
ATOM      3  C   LIG    1        1.089  -2.038   3.314  0.00  0.00    +0.000 A 
ATOM      4  C   LIG    1        1.734  -3.201   2.948  0.00  0.00    +0.140 A 
ATOM      5  C   LIG    1        2.841  -3.144   2.099  0.00  0.00    -0.140 A 
ATOM      6  C   LIG    1        3.288  -1.909   1.627  0.00  0.00    +0.200 A 
ENDROOT
BRANCH   1   7
ATOM      7  S   LIG    1        3.198   0.807   1.406  0.00  0.00    +2.680 S 
ATOM      8  O   LIG    1        2.741   1.779   2.336  0.00  0.00    -0.930 OA
ATOM      9  O   LIG    1        4.568   0.637   1.069  0.00  0.00    -0.930 OA
BRANCH   7  10
ATOM     10  N   LIG    1        2.401   1.107  -0.014  0.00  0.00    -0.950 N 
BRANCH  10  11
ATOM     11  C   LIG    1        1.180   1.787   0.000  0.00  0.00    +0.140 A 
ATOM     12  C   LIG    1       -0.013   1.076   0.008  0.00  0.00    +0.040 A 
ATOM     13  C   LIG    1       -1.218   1.751   0.017  0.00  0.00    +0.030 A 
ATOM     14  C   LIG    1       -1.238   3.133   0.030  0.00  0.00    +0.050 A 
ATOM     15  C   LIG    1       -0.053   3.846   0.022  0.00  0.00    +0.040 A 
ATOM     16  C   LIG    1        1.157   3.177   0.008  0.00  0.00    -0.020 A 
ATOM     17 CL   LIG    1        2.644   4.072  -0.001  0.00  0.00    -0.050 Cl
ENDBRANCH  10  11
BRANCH  10  18
ATOM     18  C   LIG    1        2.975   0.660  -1.285  0.00  0.00    +0.330 C 
BRANCH  18  20
ATOM     19  C   LIG    1        5.016   1.608  -2.234  0.00  0.00    +0.040 C 
ATOM     20  C   LIG    1        3.760   1.787  -1.906  0.00  0.00    -0.070 C 
ENDBRANCH  18  20
ENDBRANCH  10  18
ENDBRANCH   7  10
ENDBRANCH   1   7
BRANCH   5  21
ATOM     21  C   LIG    1        3.537  -4.386   1.703  0.00  0.00    +0.510 C 
ATOM     22  O   LIG    1        4.500  -4.334   0.965  0.00  0.00    -0.500 OA
BRANCH  21  23
ATOM     23  O   LIG    1        3.102  -5.577   2.161  0.00  0.00    -0.350 OA
BRANCH  23  24
ATOM     24  C   LIG    1        3.834  -6.755   1.731  0.00  0.00    +0.290 C 
BRANCH  24  25
ATOM     25  C   LIG    1        3.208  -7.984   2.338  0.00  0.00    -0.100 A 
ATOM     26  C   LIG    1        3.647  -8.449   3.564  0.00  0.00    +0.060 A 
ATOM     27  C   LIG    1        3.070  -9.574   4.123  0.00  0.00    +0.030 A 
ATOM     28  C   LIG    1        2.061 -10.240   3.452  0.00  0.00    -0.020 A 
ATOM     29  C   LIG    1        1.625  -9.777   2.223  0.00  0.00    +0.030 A 
ATOM     30 CL   LIG    1        1.341 -11.657   4.151  0.00  0.00    -0.060 Cl
ATOM     31  C   LIG    1        2.199  -8.649   1.667  0.00  0.00    +0.060 A 
ENDBRANCH  24  25
ENDBRANCH  23  24
ENDBRANCH  21  23
ENDBRANCH   5  21
TORSDOF 9
