REMARK  Name = ZINCqH0000038odW.2
REMARK                            x       y       z     vdW  Elec       q    Type
REMARK                         _______ _______ _______ _____ _____    ______ ____
ROOT
ATOM      1  C   LIG    1       -2.098   2.313  -0.942  0.00  0.00    +0.210 C 
ENDROOT
BRANCH   1   6
ATOM      2  C   LIG    1       -0.010   1.595   0.072  0.00  0.00    +0.170 C 
ATOM      3  C   LIG    1        1.414   2.180   0.095  0.00  0.00    +0.030 C 
ATOM      4  C   LIG    1        1.512   3.054  -1.177  0.00  0.00    +0.030 C 
ATOM      5  C   LIG    1        0.028   3.359  -1.502  0.00  0.00    +0.180 C 
ATOM      6  N   LIG    1       -0.663   2.090  -1.160  0.00  0.00    -0.490 NA
BRANCH   2  12
ATOM      7  C   LIG    1       -0.347  -2.792   2.457  0.00  0.00    +0.080 C 
ATOM      8  C   LIG    1       -0.107  -2.009   1.192  0.00  0.00    -0.090 A 
ATOM      9  C   LIG    1        0.170  -2.672   0.011  0.00  0.00    +0.000 A 
ATOM     10  C   LIG    1        0.390  -1.955  -1.150  0.00  0.00    +0.000 A 
ATOM     11  C   LIG    1        0.331  -0.574  -1.130  0.00  0.00    +0.040 A 
ATOM     12  C   LIG    1        0.053   0.089   0.050  0.00  0.00    -0.070 A 
ATOM     13  C   LIG    1       -0.161  -0.628   1.212  0.00  0.00    +0.000 A 
ENDBRANCH   2  12
ENDBRANCH   1   6
BRANCH   1  14
ATOM     14  C   LIG    1       -2.679   3.042  -2.127  0.00  0.00    +0.520 C 
ATOM     15  N   LIG    1       -3.989   3.357  -2.148  0.00  0.00    -0.590 N 
ATOM     16  C   LIG    1       -4.872   2.891  -1.076  0.00  0.00    +0.310 C 
ATOM     17  O   LIG    1       -1.967   3.344  -3.061  0.00  0.00    -0.500 OA
BRANCH  15  18
ATOM     18  C   LIG    1       -4.506   4.128  -3.195  0.00  0.00    +0.200 A 
ATOM     19  C   LIG    1       -4.980   5.410  -2.947  0.00  0.00    +0.030 A 
ATOM     20  C   LIG    1       -5.485   6.170  -3.983  0.00  0.00    +0.120 A 
ATOM     21  C   LIG    1       -5.529   5.653  -5.265  0.00  0.00    -0.050 A 
ATOM     22  C   LIG    1       -5.062   4.376  -5.514  0.00  0.00    +0.120 A 
ATOM     23  C   LIG    1       -4.551   3.612  -4.483  0.00  0.00    +0.050 A 
BRANCH  21  24
ATOM     24  N   LIG    1       -6.077   6.469  -6.372  0.00  0.00    +0.030 N 
ATOM     25  O   LIG    1       -6.488   7.594  -6.153  0.00  0.00    -0.160 OA
ATOM     26  O   LIG    1       -6.116   6.015  -7.501  0.00  0.00    -0.160 OA
ENDBRANCH  21  24
ENDBRANCH  15  18
ENDBRANCH   1  14
TORSDOF 5
