REMARK  Name = ZINCpk000000oNki.0
REMARK                            x       y       z     vdW  Elec       q    Type
REMARK                         _______ _______ _______ _____ _____    ______ ____
ROOT
ATOM      1  N   LIG    1       -2.592   4.122   0.040  0.00  0.00    -0.520 NA
ATOM      2  C   LIG    1       -3.282   3.753  -1.205  0.00  0.00    +0.190 C 
ATOM      3  C   LIG    1       -4.747   4.185  -1.119  0.00  0.00    +0.190 C 
ATOM      4  N   LIG    1       -4.816   5.635  -0.893  0.00  0.00    -0.540 NA
ATOM      5  C   LIG    1       -4.126   6.004   0.351  0.00  0.00    +0.190 C 
ATOM      6  C   LIG    1       -2.660   5.572   0.266  0.00  0.00    +0.180 C 
ENDROOT
BRANCH   1   7
ATOM      7  C   LIG    1       -1.199   3.656   0.027  0.00  0.00    +0.210 C 
BRANCH   7  10
ATOM      8  N   LIG    1        0.005   1.495   0.032  0.00  0.00    -0.740 N 
ATOM      9  H   LIG    1        0.837   1.994   0.014  0.00  0.00    +0.400 HD
ATOM     10  C   LIG    1       -1.173   2.149   0.040  0.00  0.00    +0.510 C 
ATOM     11  O   LIG    1       -2.213   1.525   0.058  0.00  0.00    -0.520 OA
BRANCH   8  13
ATOM     12  C   LIG    1        1.481  -0.455   0.025  0.00  0.00    +0.030 C 
ATOM     13  C   LIG    1        0.030   0.030   0.045  0.00  0.00    +0.250 C 
ENDBRANCH   8  13
ENDBRANCH   7  10
ENDBRANCH   1   7
BRANCH   4  14
ATOM     14  C   LIG    1       -6.209   6.101  -0.881  0.00  0.00    +0.310 C 
BRANCH  14  15
ATOM     15  C   LIG    1       -6.910   5.621  -2.125  0.00  0.00    +0.300 A 
ATOM     16  N   LIG    1       -7.626   4.538  -2.206  0.00  0.00    -0.490 NA
ATOM     17  C   LIG    1       -8.115   4.406  -3.466  0.00  0.00    +0.070 A 
ATOM     18  C   LIG    1       -8.925   3.454  -4.090  0.00  0.00    +0.040 A 
ATOM     19  C   LIG    1       -9.251   3.599  -5.421  0.00  0.00    +0.090 A 
ATOM     20  C   LIG    1       -8.780   4.686  -6.147  0.00  0.00    +0.010 A 
ATOM     21  C   LIG    1       -7.980   5.634  -5.545  0.00  0.00    +0.050 A 
ATOM     22  F   LIG    1      -10.034   2.678  -6.024  0.00  0.00    -0.140 F 
ATOM     23  C   LIG    1       -7.641   5.503  -4.206  0.00  0.00    +0.040 A 
ATOM     24  N   LIG    1       -6.882   6.253  -3.329  0.00  0.00    -0.470 N 
BRANCH  24  25
ATOM     25  C   LIG    1       -6.177   7.500  -3.639  0.00  0.00    +0.300 C 
ATOM     26  C   LIG    1       -4.804   7.176  -4.232  0.00  0.00    +0.040 C 
ENDBRANCH  24  25
ENDBRANCH  14  15
ENDBRANCH   4  14
TORSDOF 6
