REMARK  Name = ZINCrH00000tj15C.0
REMARK                            x       y       z     vdW  Elec       q    Type
REMARK                         _______ _______ _______ _____ _____    ______ ____
ROOT
ATOM      1  N   LIG    1        2.495  -2.723   0.093  0.00  0.00    -0.720 N 
ATOM      2  H   LIG    1        3.193  -2.192   0.508  0.00  0.00    +0.420 HD
ENDROOT
BRANCH   1   8
ATOM      3  C   LIG    1        4.081  -4.508  -0.300  0.00  0.00    +0.050 A 
ATOM      4  C   LIG    1        4.367  -5.774  -0.784  0.00  0.00    -0.010 A 
ATOM      5  C   LIG    1        3.372  -6.530  -1.376  0.00  0.00    +0.010 A 
ATOM      6  C   LIG    1        2.083  -6.026  -1.482  0.00  0.00    +0.150 A 
ATOM      7  C   LIG    1        1.790  -4.760  -0.994  0.00  0.00    -0.070 A 
ATOM      8  C   LIG    1        2.787  -4.000  -0.400  0.00  0.00    +0.210 A 
BRANCH   6   9
ATOM      9  N   LIG    1        1.078  -6.795  -2.082  0.00  0.00    -0.670 N 
ATOM     10  H   LIG    1        0.167  -6.746  -1.751  0.00  0.00    +0.410 HD
ATOM     11  C   LIG    1        1.375  -7.602  -3.120  0.00  0.00    +0.510 C 
ATOM     12  O   LIG    1        2.526  -7.727  -3.480  0.00  0.00    -0.520 OA
ATOM     13  C   LIG    1        0.277  -8.349  -3.832  0.00  0.00    +0.110 C 
ENDBRANCH   6   9
BRANCH   3  15
ATOM     14  C   LIG    1        6.364  -4.346   0.346  0.00  0.00    +0.230 C 
ATOM     15  O   LIG    1        5.062  -3.762   0.277  0.00  0.00    -0.320 OA
ENDBRANCH   3  15
ENDBRANCH   1   8
BRANCH   1  16
ATOM     16  C   LIG    1        1.136  -2.188  -0.018  0.00  0.00    +0.310 C 
ATOM     17  C   LIG    1        0.297  -2.676   1.165  0.00  0.00    +0.050 C 
BRANCH  16  18
ATOM     18  C   LIG    1        1.187  -0.682  -0.011  0.00  0.00    +0.430 A 
ATOM     19  N   LIG    1        2.351  -0.095  -0.013  0.00  0.00    -0.570 NA
ATOM     20  C   LIG    1        2.461   1.244  -0.006  0.00  0.00    +0.550 A 
ATOM     21  C   LIG    1        1.229   2.058   0.005  0.00  0.00    -0.220 A 
ATOM     22  C   LIG    1        0.021   1.379   0.006  0.00  0.00    +0.050 A 
ATOM     23  S   LIG    1       -1.306   2.531   0.012  0.00  0.00    +0.170 S 
ATOM     24  C   LIG    1       -0.207   3.897   0.020  0.00  0.00    -0.200 A 
ATOM     25  C   LIG    1       -0.641   5.340   0.030  0.00  0.00    +0.150 C 
ATOM     26  C   LIG    1        1.051   3.496   0.013  0.00  0.00    -0.030 A 
ATOM     27  C   LIG    1        2.211   4.458   0.013  0.00  0.00    +0.130 C 
ATOM     28  O   LIG    1        3.559   1.777  -0.007  0.00  0.00    -0.480 OA
ATOM     29  N   LIG    1        0.032   0.002  -0.002  0.00  0.00    -0.580 N 
ATOM     30  H   LIG    1       -0.809  -0.482  -0.001  0.00  0.00    +0.420 HD
ENDBRANCH  16  18
ENDBRANCH   1  16
TORSDOF 5
