REMARK  Name = ZINCpk000000p8sQ.0
REMARK                            x       y       z     vdW  Elec       q    Type
REMARK                         _______ _______ _______ _____ _____    ______ ____
ROOT
ATOM      1  C   LIG    1        4.303   3.115  -2.153  0.00  0.00    -0.140 A 
ATOM      2  C   LIG    1        5.400   3.513  -1.451  0.00  0.00    +0.080 A 
ATOM      3  O   LIG    1        5.155   3.412  -0.139  0.00  0.00    -0.140 OA
ATOM      4  C   LIG    1        3.915   2.953   0.095  0.00  0.00    +0.290 A 
ATOM      5  N   LIG    1        3.225   2.689   1.216  0.00  0.00    -0.500 NA
ATOM      6  C   LIG    1        2.001   2.243   1.170  0.00  0.00    +0.640 A 
ATOM      7  N   LIG    1        1.356   2.010  -0.000  0.00  0.00    -0.520 N 
ATOM      8  C   LIG    1        1.979   2.250  -1.177  0.00  0.00    +0.570 A 
ATOM      9  O   LIG    1        1.413   2.051  -2.239  0.00  0.00    -0.510 OA
ATOM     10  C   LIG    1        6.692   3.994  -2.059  0.00  0.00    +0.220 C 
ATOM     11  C   LIG    1        3.303   2.738  -1.140  0.00  0.00    -0.260 A 
ENDROOT
BRANCH   1  12
ATOM     12  C   LIG    1        4.148   3.070  -3.615  0.00  0.00    +0.550 C 
ATOM     13  O   LIG    1        3.721   4.040  -4.210  0.00  0.00    -0.490 OA
BRANCH  12  14
ATOM     14  O   LIG    1        4.482   1.955  -4.294  0.00  0.00    -0.350 OA
BRANCH  14  16
ATOM     15  C   LIG    1        4.731   0.638  -6.327  0.00  0.00    +0.070 C 
ATOM     16  C   LIG    1        4.303   1.982  -5.734  0.00  0.00    +0.200 C 
ENDBRANCH  14  16
ENDBRANCH  12  14
ENDBRANCH   1  12
BRANCH   7  17
ATOM     17  C   LIG    1       -0.018   1.503   0.010  0.00  0.00    +0.340 C 
BRANCH  17  18
ATOM     18  C   LIG    1        0.002  -0.004   0.002  0.00  0.00    +0.500 C 
ATOM     19  N   LIG    1       -1.156  -0.694   0.009  0.00  0.00    -0.610 N 
ATOM     20  C   LIG    1       -2.446   0.009   0.032  0.00  0.00    +0.260 C 
ATOM     21  C   LIG    1       -3.302  -0.504  -1.136  0.00  0.00    +0.010 C 
ATOM     22  C   LIG    1       -3.416  -2.028  -1.046  0.00  0.00    +0.020 C 
ATOM     23  C   LIG    1       -2.023  -2.652  -1.160  0.00  0.00    +0.010 C 
ATOM     24  C   LIG    1       -1.152  -2.163   0.001  0.00  0.00    +0.270 C 
ATOM     25  O   LIG    1        1.060  -0.596  -0.011  0.00  0.00    -0.520 OA
ENDBRANCH  17  18
ENDBRANCH   7  17
TORSDOF 5
