REMARK  Name = ZINCqH0000038uSP.0
REMARK                            x       y       z     vdW  Elec       q    Type
REMARK                         _______ _______ _______ _____ _____    ______ ____
ROOT
ATOM      1  C   LIG    1       -3.283   0.100  -0.079  0.00  0.00    +0.530 C 
ATOM      2  N   LIG    1       -4.015  -0.349  -1.118  0.00  0.00    -0.600 N 
ATOM      3  O   LIG    1       -2.936  -0.665   0.795  0.00  0.00    -0.500 OA
ENDROOT
BRANCH   2   4
ATOM      4  C   LIG    1       -4.391  -1.763  -1.191  0.00  0.00    +0.320 C 
ATOM      5  C   LIG    1       -5.246  -2.120   0.023  0.00  0.00    +0.030 C 
ATOM      6  C   LIG    1       -5.451  -3.640   0.042  0.00  0.00    +0.030 C 
ATOM      7  C   LIG    1       -4.117  -4.301   0.383  0.00  0.00    +0.080 C 
ATOM      8  C   LIG    1       -3.024  -3.777  -0.509  0.00  0.00    -0.110 A 
ATOM      9  C   LIG    1       -1.845  -4.510  -0.598  0.00  0.00    +0.050 A 
ATOM     10  C   LIG    1       -0.824  -4.039  -1.404  0.00  0.00    -0.040 A 
ATOM     11  C   LIG    1       -1.010  -2.855  -2.093  0.00  0.00    +0.250 A 
ATOM     12  N   LIG    1       -2.140  -2.189  -1.987  0.00  0.00    -0.470 NA
ATOM     13  C   LIG    1       -3.143  -2.608  -1.227  0.00  0.00    +0.120 A 
ENDBRANCH   2   4
BRANCH   1  14
ATOM     14  C   LIG    1       -2.896   1.555  -0.004  0.00  0.00    +0.120 C 
BRANCH  14  21
ATOM     15  C   LIG    1       -0.013   1.086   0.008  0.00  0.00    +0.100 C 
ATOM     16  C   LIG    1       -0.718   1.572   1.248  0.00  0.00    -0.020 A 
ATOM     17  C   LIG    1       -0.013   1.812   2.417  0.00  0.00    -0.040 A 
ATOM     18  C   LIG    1       -0.694   2.257   3.535  0.00  0.00    +0.260 A 
ATOM     19  N   LIG    1       -1.997   2.455   3.496  0.00  0.00    -0.490 NA
ATOM     20  C   LIG    1       -2.700   2.237   2.401  0.00  0.00    +0.270 A 
ATOM     21  C   LIG    1       -2.087   1.795   1.244  0.00  0.00    -0.120 A 
ENDBRANCH  14  21
ENDBRANCH   1  14
BRANCH   2  22
ATOM     22  C   LIG    1       -4.434   0.576  -2.173  0.00  0.00    +0.330 C 
BRANCH  22  23
ATOM     23  C   LIG    1       -3.369   0.614  -3.271  0.00  0.00    +0.430 C 
ATOM     24  F   LIG    1       -2.155   1.046  -2.728  0.00  0.00    -0.180 F 
ATOM     25  F   LIG    1       -3.770   1.497  -4.279  0.00  0.00    -0.180 F 
ATOM     26  F   LIG    1       -3.209  -0.667  -3.810  0.00  0.00    -0.160 F 
ENDBRANCH  22  23
ENDBRANCH   2  22
TORSDOF 5
