REMARK  Name = ZINCrH000004jkkx.0
REMARK                            x       y       z     vdW  Elec       q    Type
REMARK                         _______ _______ _______ _____ _____    ______ ____
ROOT
ATOM      1  N   LIG    1        2.578  -2.862   0.105  0.00  0.00    -0.510 NA
ATOM      2  C   LIG    1        3.604  -1.963  -0.448  0.00  0.00    +0.240 C 
ATOM      3  C   LIG    1        3.714  -0.739   0.456  0.00  0.00    -0.050 C 
ATOM      4  C   LIG    1        2.353  -0.157   0.728  0.00  0.00    -0.060 A 
ATOM      5  C   LIG    1        2.269   1.131   1.233  0.00  0.00    +0.030 A 
ATOM      6  C   LIG    1        1.036   1.702   1.504  0.00  0.00    +0.060 A 
ATOM      7  C   LIG    1       -0.124   0.976   1.263  0.00  0.00    +0.050 A 
ATOM      8  O   LIG    1       -1.342   1.517   1.511  0.00  0.00    -0.310 OA
ATOM      9  C   LIG    1       -1.430   2.701   2.288  0.00  0.00    +0.220 C 
ATOM     10  C   LIG    1       -0.269   3.643   2.012  0.00  0.00    +0.220 C 
ATOM     11  C   LIG    1       -0.035  -0.311   0.758  0.00  0.00    +0.040 A 
ATOM     12  O   LIG    1        0.974   2.958   2.008  0.00  0.00    -0.310 OA
ATOM     13  C   LIG    1        1.201  -0.878   0.489  0.00  0.00    -0.110 A 
ATOM     14  C   LIG    1        4.609   0.323  -0.210  0.00  0.00    +0.030 C 
ATOM     15  C   LIG    1        5.402   0.944   0.968  0.00  0.00    +0.010 C 
ATOM     16  C   LIG    1        5.680  -0.281   1.875  0.00  0.00    +0.010 C 
ATOM     17  C   LIG    1        4.391  -1.123   1.781  0.00  0.00    +0.030 C 
ATOM     18  C   LIG    1        1.244  -2.278  -0.066  0.00  0.00    +0.240 C 
ATOM     19  C   LIG    1        0.217  -3.143   0.667  0.00  0.00    +0.050 C 
ENDROOT
BRANCH   1  20
ATOM     20  C   LIG    1        2.844  -3.158   1.519  0.00  0.00    +0.330 C 
BRANCH  20  24
ATOM     21  C   LIG    1        5.146  -5.938   1.801  0.00  0.00    +0.170 A 
ATOM     22  N   LIG    1        5.949  -4.917   1.711  0.00  0.00    -0.290 NA
ATOM     23  N   LIG    1        5.258  -3.838   1.597  0.00  0.00    -0.280 NA
ATOM     24  C   LIG    1        3.989  -4.133   1.621  0.00  0.00    +0.180 A 
ATOM     25  O   LIG    1        3.889  -5.467   1.746  0.00  0.00    -0.220 OA
BRANCH  21  27
ATOM     26  C   LIG    1        5.677  -7.736   3.424  0.00  0.00    +0.060 C 
ATOM     27  C   LIG    1        5.551  -7.383   1.940  0.00  0.00    +0.180 C 
ENDBRANCH  21  27
ENDBRANCH  20  24
ENDBRANCH   1  20
TORSDOF 3
