REMARK  Name = ZINCvU00000009aD.0
REMARK                            x       y       z     vdW  Elec       q    Type
REMARK                         _______ _______ _______ _____ _____    ______ ____
ROOT
ATOM      1  C   LIG    1        2.559  -0.303   2.915  0.00  0.00    +0.190 C 
ATOM      2  C   LIG    1        1.794  -1.372   3.639  0.00  0.00    -0.100 C 
ATOM      3  C   LIG    1        0.762  -2.024   3.039  0.00  0.00    +0.160 C 
ATOM      4  N   LIG    1        0.400  -1.705   1.752  0.00  0.00    -0.640 N 
ATOM      5  H   LIG    1       -0.121  -2.334   1.229  0.00  0.00    +0.420 HD
ATOM      6  C   LIG    1        0.767  -0.507   1.202  0.00  0.00    +0.220 C 
ATOM      7  C   LIG    1        0.002  -0.004   0.002  0.00  0.00    +0.090 C 
ATOM      8  C   LIG    1       -0.019   1.526   0.010  0.00  0.00    +0.060 C 
ATOM      9  C   LIG    1        1.428   2.031  -0.001  0.00  0.00    +0.030 C 
ATOM     10  C   LIG    1        2.160   1.447   1.176  0.00  0.00    +0.400 C 
ATOM     11  O   LIG    1        3.091   2.058   1.663  0.00  0.00    -0.460 OA
ATOM     12  C   LIG    1        1.788   0.207   1.724  0.00  0.00    -0.260 C 
ENDROOT
BRANCH   1  15
ATOM     13  C   LIG    1        6.271  -0.831   2.451  0.00  0.00    +0.110 A 
ATOM     14  C   LIG    1        5.062  -0.311   2.882  0.00  0.00    -0.040 A 
ATOM     15  C   LIG    1        3.875  -0.870   2.445  0.00  0.00    -0.040 A 
ATOM     16  C   LIG    1        3.892  -1.949   1.583  0.00  0.00    -0.010 A 
ATOM     17  C   LIG    1        5.096  -2.469   1.144  0.00  0.00    +0.020 A 
ATOM     18  C   LIG    1        6.288  -1.915   1.578  0.00  0.00    +0.070 A 
BRANCH  13  20
ATOM     19  C   LIG    1        7.346   0.828   3.774  0.00  0.00    +0.230 C 
ATOM     20  O   LIG    1        7.440  -0.282   2.880  0.00  0.00    -0.310 OA
ENDBRANCH  13  20
BRANCH  18  21
ATOM     21  O   LIG    1        7.474  -2.428   1.152  0.00  0.00    -0.490 OA
ATOM     22  H   LIG    1        7.824  -3.130   1.717  0.00  0.00    +0.390 HD
ENDBRANCH  18  21
ENDBRANCH   1  15
BRANCH   2  23
ATOM     23  C   LIG    1        2.156  -1.710   4.983  0.00  0.00    +0.250 C 
ATOM     24  N   LIG    1        2.443  -1.978   6.048  0.00  0.00    -0.400 NA
ENDBRANCH   2  23
BRANCH   3  25
ATOM     25  S   LIG    1       -0.110  -3.281   3.913  0.00  0.00    -0.030 S 
BRANCH  25  26
ATOM     26  C   LIG    1       -1.317  -3.760   2.652  0.00  0.00    +0.120 C 
BRANCH  26  27
ATOM     27  C   LIG    1       -2.200  -4.856   3.192  0.00  0.00    -0.080 A 
ATOM     28  C   LIG    1       -1.844  -6.180   3.016  0.00  0.00    +0.050 A 
ATOM     29  C   LIG    1       -2.650  -7.185   3.515  0.00  0.00    +0.030 A 
ATOM     30  C   LIG    1       -3.820  -6.866   4.182  0.00  0.00    -0.020 A 
ATOM     31  C   LIG    1       -4.178  -5.541   4.354  0.00  0.00    +0.030 A 
ATOM     32 CL   LIG    1       -4.838  -8.128   4.803  0.00  0.00    -0.060 Cl
ATOM     33  C   LIG    1       -3.368  -4.536   3.859  0.00  0.00    +0.050 A 
ENDBRANCH  26  27
ENDBRANCH  25  26
ENDBRANCH   3  25
TORSDOF 7
