REMARK  Name = ZINCpe000000Z55x.0
REMARK                            x       y       z     vdW  Elec       q    Type
REMARK                         _______ _______ _______ _____ _____    ______ ____
ROOT
ATOM      1  C   LIG    1        7.734  -2.100  -1.960  0.00  0.00    -0.010 C 
ATOM      2  C   LIG    1        7.003  -3.394  -1.535  0.00  0.00    +0.070 C 
ATOM      3  C   LIG    1        5.541  -3.003  -1.509  0.00  0.00    +0.520 C 
ATOM      4  N   LIG    1        5.421  -1.664  -1.501  0.00  0.00    -0.620 N 
ATOM      5  O   LIG    1        4.613  -3.784  -1.498  0.00  0.00    -0.520 OA
ATOM      6  C   LIG    1        6.735  -1.011  -1.516  0.00  0.00    +0.300 C 
ENDROOT
BRANCH   1   8
ATOM      7  O   LIG    1        9.241  -1.011  -0.507  0.00  0.00    -0.530 OA
ATOM      8  C   LIG    1        9.048  -1.960  -1.236  0.00  0.00    +0.530 C 
ATOM      9  N   LIG    1       10.009  -2.891  -1.399  0.00  0.00    -0.730 N 
ATOM     10  H   LIG    1        9.855  -3.651  -1.982  0.00  0.00    +0.400 HD
BRANCH   9  11
ATOM     11  C   LIG    1       11.287  -2.756  -0.695  0.00  0.00    +0.280 C 
BRANCH  11  12
ATOM     12  C   LIG    1       12.193  -3.936  -1.051  0.00  0.00    +0.030 C 
BRANCH  12  13
ATOM     13  C   LIG    1       13.527  -3.795  -0.316  0.00  0.00    +0.330 C 
BRANCH  13  14
ATOM     14  N   LIG    1       14.395  -4.925  -0.657  0.00  0.00    -0.380 N 
ATOM     15  C   LIG    1       15.640  -4.861  -1.159  0.00  0.00    +0.480 A 
ATOM     16  N   LIG    1       16.074  -6.085  -1.324  0.00  0.00    -0.550 NA
ATOM     17  C   LIG    1       15.139  -6.952  -0.939  0.00  0.00    +0.420 A 
ATOM     18  N   LIG    1       14.094  -6.289  -0.518  0.00  0.00    -0.320 NA
ENDBRANCH  13  14
ENDBRANCH  12  13
ENDBRANCH  11  12
ENDBRANCH   9  11
ENDBRANCH   1   8
BRANCH   4  19
ATOM     19  C   LIG    1        4.143  -0.949  -1.485  0.00  0.00    +0.300 C 
BRANCH  19  20
ATOM     20  C   LIG    1        3.711  -0.707  -0.037  0.00  0.00    +0.060 C 
BRANCH  20  21
ATOM     21  C   LIG    1        2.396   0.029  -0.021  0.00  0.00    -0.080 A 
ATOM     22  C   LIG    1        1.208  -0.679  -0.014  0.00  0.00    +0.010 A 
ATOM     23  C   LIG    1        0.002  -0.004   0.002  0.00  0.00    +0.000 A 
ATOM     24  C   LIG    1       -0.017   1.378   0.010  0.00  0.00    +0.000 A 
ATOM     25  C   LIG    1        1.171   2.086   0.002  0.00  0.00    +0.000 A 
ATOM     26  C   LIG    1        2.377   1.411  -0.014  0.00  0.00    +0.000 A 
ENDBRANCH  20  21
ENDBRANCH  19  20
ENDBRANCH   4  19
TORSDOF 8
