REMARK  Name = ZINCrg00000bj2MA.0
REMARK                            x       y       z     vdW  Elec       q    Type
REMARK                         _______ _______ _______ _____ _____    ______ ____
ROOT
ATOM      1  C   LIG    1        0.154  -4.346   2.707  0.00  0.00    +0.030 C 
ATOM      2  C   LIG    1       -0.654  -4.728   1.465  0.00  0.00    +0.240 C 
ATOM      3  C   LIG    1        0.111  -4.307   0.204  0.00  0.00    +0.290 C 
ATOM      4  N   LIG    1        0.096  -2.841   0.112  0.00  0.00    -0.600 N 
ATOM      5  C   LIG    1       -1.198  -2.143   0.137  0.00  0.00    +0.260 C 
ATOM      6  C   LIG    1       -1.963  -2.564   1.393  0.00  0.00    +0.270 C 
ATOM      7  C   LIG    1        1.247  -2.147   0.013  0.00  0.00    +0.570 C 
ATOM      8  O   LIG    1        2.306  -2.738  -0.079  0.00  0.00    -0.520 OA
ATOM      9  N   LIG    1       -1.948  -4.030   1.484  0.00  0.00    -0.600 N 
ATOM     10  C   LIG    1       -3.099  -4.723   1.584  0.00  0.00    +0.560 C 
ATOM     11  O   LIG    1       -3.071  -5.926   1.751  0.00  0.00    -0.510 OA
ENDROOT
BRANCH   7  12
ATOM     12  C   LIG    1        1.223  -0.671   0.016  0.00  0.00    -0.120 A 
ATOM     13  C   LIG    1        0.301   0.015  -0.777  0.00  0.00    +0.070 A 
ATOM     14  C   LIG    1        0.280   1.393  -0.773  0.00  0.00    +0.050 A 
ATOM     15  C   LIG    1        1.173   2.103   0.018  0.00  0.00    +0.060 A 
ATOM     16  O   LIG    1        1.352   3.443   0.195  0.00  0.00    -0.300 OA
ATOM     17  C   LIG    1        2.113   3.574   1.410  0.00  0.00    +0.440 C 
ATOM     18  O   LIG    1        2.851   2.341   1.486  0.00  0.00    -0.300 OA
ATOM     19  C   LIG    1        2.097   1.423   0.813  0.00  0.00    +0.030 A 
ATOM     20  C   LIG    1        2.123   0.042   0.813  0.00  0.00    +0.090 A 
ENDBRANCH   7  12
BRANCH  10  21
ATOM     21  C   LIG    1       -4.401  -4.017   1.489  0.00  0.00    -0.010 A 
ATOM     22  C   LIG    1       -4.878  -3.582   0.266  0.00  0.00    -0.060 A 
ATOM     23  C   LIG    1       -6.118  -2.915   0.213  0.00  0.00    +0.520 A 
ATOM     24  N   LIG    1       -6.822  -2.709   1.342  0.00  0.00    -0.600 N 
ATOM     25  H   LIG    1       -7.674  -2.248   1.296  0.00  0.00    +0.420 HD
ATOM     26  C   LIG    1       -6.358  -3.134   2.545  0.00  0.00    +0.320 A 
ATOM     27  O   LIG    1       -6.555  -2.524  -0.857  0.00  0.00    -0.540 OA
ATOM     28  C   LIG    1       -5.176  -3.783   2.646  0.00  0.00    -0.060 A 
ENDBRANCH  10  21
TORSDOF 2
