REMARK  Name = ZINCpk000000oG6x.0
REMARK                            x       y       z     vdW  Elec       q    Type
REMARK                         _______ _______ _______ _____ _____    ______ ____
ROOT
ATOM      1  C   LIG    1       -1.057  -1.298   0.037  0.00  0.00    +0.260 C 
ATOM      2  C   LIG    1       -0.800  -2.637   0.731  0.00  0.00    +0.100 C 
ENDROOT
BRANCH   1   3
ATOM      3  N   LIG    1        0.216  -0.600  -0.162  0.00  0.00    -0.270 N 
ATOM      4  C   LIG    1        1.405  -1.182  -0.442  0.00  0.00    +0.170 A 
ATOM      5  C   LIG    1        2.303  -0.175  -0.544  0.00  0.00    -0.040 A 
ATOM      6  N   LIG    1        1.629   0.959  -0.324  0.00  0.00    -0.240 NA
ATOM      7  N   LIG    1        0.395   0.673  -0.102  0.00  0.00    -0.070 NA
BRANCH   5   8
ATOM      8  C   LIG    1        3.774  -0.306  -0.845  0.00  0.00    +0.190 C 
ATOM      9  C   LIG    1        4.485   1.070  -0.734  0.00  0.00    +0.070 C 
ATOM     10  C   LIG    1        5.921   0.629  -0.354  0.00  0.00    +0.210 C 
ATOM     11  O   LIG    1        5.749  -0.507   0.508  0.00  0.00    -0.380 OA
ATOM     12  C   LIG    1        4.487  -1.133   0.247  0.00  0.00    +0.200 C 
BRANCH   8  13
ATOM     13  O   LIG    1        3.977  -0.886  -2.135  0.00  0.00    -0.530 OA
ATOM     14  H   LIG    1        3.588  -1.766  -2.237  0.00  0.00    +0.380 HD
ENDBRANCH   8  13
ENDBRANCH   5   8
ENDBRANCH   1   3
BRANCH   1  16
ATOM     15  N   LIG    1       -3.001  -1.928  -1.357  0.00  0.00    -0.600 N 
ATOM     16  C   LIG    1       -1.710  -1.542  -1.299  0.00  0.00    +0.510 C 
ATOM     17  O   LIG    1       -1.076  -1.391  -2.321  0.00  0.00    -0.510 OA
BRANCH  15  19
ATOM     18  C   LIG    1       -4.586  -0.732   0.071  0.00  0.00    +0.020 C 
ATOM     19  C   LIG    1       -3.792  -2.025  -0.129  0.00  0.00    +0.270 C 
ENDBRANCH  15  19
BRANCH  15  20
ATOM     20  C   LIG    1       -3.611  -2.249  -2.650  0.00  0.00    +0.340 C 
BRANCH  20  21
ATOM     21  C   LIG    1       -3.422  -3.715  -2.943  0.00  0.00    -0.110 A 
ATOM     22  C   LIG    1       -2.303  -4.143  -3.633  0.00  0.00    +0.030 A 
ATOM     23  C   LIG    1       -2.127  -5.489  -3.898  0.00  0.00    +0.000 A 
ATOM     24  C   LIG    1       -3.076  -6.404  -3.483  0.00  0.00    +0.010 A 
ATOM     25  C   LIG    1       -4.198  -5.976  -2.799  0.00  0.00    +0.000 A 
ATOM     26  C   LIG    1       -4.371  -4.631  -2.529  0.00  0.00    +0.010 A 
ENDBRANCH  20  21
ENDBRANCH  15  20
ENDBRANCH   1  16
TORSDOF 7
