REMARK  Name = ZINCtV000002wBVt.0
REMARK                            x       y       z     vdW  Elec       q    Type
REMARK                         _______ _______ _______ _____ _____    ______ ____
ROOT
ATOM      1  C   LIG    1        3.673   7.369  -0.001  0.00  0.00    -0.220 A 
ATOM      2  C   LIG    1        3.582   5.997  -0.002  0.00  0.00    +0.080 A 
ATOM      3  S   LIG    1        5.137   5.298  -0.021  0.00  0.00    +0.350 S 
ATOM      4  C   LIG    1        5.912   6.875  -0.020  0.00  0.00    -0.230 A 
ATOM      5  C   LIG    1        4.987   7.845  -0.006  0.00  0.00    +0.110 A 
ENDROOT
BRANCH   4   6
ATOM      6  C   LIG    1        7.373   7.099  -0.034  0.00  0.00    -0.010 A 
ATOM      7  C   LIG    1        7.882   8.399  -0.037  0.00  0.00    +0.020 A 
ATOM      8  C   LIG    1        9.247   8.601  -0.044  0.00  0.00    +0.020 A 
ATOM      9  C   LIG    1       10.110   7.519  -0.059  0.00  0.00    +0.000 A 
ATOM     10  C   LIG    1        9.611   6.229  -0.061  0.00  0.00    +0.020 A 
ATOM     11  C   LIG    1        8.249   6.012  -0.049  0.00  0.00    +0.000 A 
ENDBRANCH   4   6
BRANCH   2  12
ATOM     12  N   LIG    1        2.396   5.285   0.006  0.00  0.00    -0.620 N 
ATOM     13  H   LIG    1        1.548   5.755   0.017  0.00  0.00    +0.430 HD
ATOM     14  C   LIG    1        2.419   3.937  -0.001  0.00  0.00    +0.550 C 
ATOM     15  O   LIG    1        3.482   3.348  -0.014  0.00  0.00    -0.500 OA
BRANCH  14  16
ATOM     16  C   LIG    1        1.153   3.176   0.008  0.00  0.00    -0.150 A 
ATOM     17  C   LIG    1        1.173   1.780   0.000  0.00  0.00    +0.090 A 
ATOM     18  C   LIG    1       -0.013   1.076   0.008  0.00  0.00    +0.010 A 
ATOM     19  C   LIG    1       -1.221   1.750   0.017  0.00  0.00    -0.030 A 
ATOM     20  C   LIG    1       -1.249   3.133   0.030  0.00  0.00    +0.010 A 
ATOM     21  C   LIG    1       -0.070   3.850   0.022  0.00  0.00    +0.050 A 
BRANCH  19  22
ATOM     22  C   LIG    1       -2.513   0.974   0.019  0.00  0.00    -0.040 C 
ATOM     23  C   LIG    1       -2.584   0.099  -1.234  0.00  0.00    +0.040 C 
ATOM     24  C   LIG    1       -3.693   1.947   0.030  0.00  0.00    +0.030 C 
ATOM     25  C   LIG    1       -2.572   0.086   1.264  0.00  0.00    +0.040 C 
ENDBRANCH  19  22
ENDBRANCH  14  16
ENDBRANCH   2  12
BRANCH   1  26
ATOM     26  C   LIG    1        2.502   8.250   0.008  0.00  0.00    +0.540 C 
ATOM     27  O   LIG    1        1.383   7.774   0.016  0.00  0.00    -0.530 OA
BRANCH  26  28
ATOM     28  O   LIG    1        2.665   9.589   0.008  0.00  0.00    -0.350 OA
BRANCH  28  30
ATOM     29  C   LIG    1        1.843  11.881   0.016  0.00  0.00    +0.070 C 
ATOM     30  C   LIG    1        1.461  10.400   0.017  0.00  0.00    +0.200 C 
ENDBRANCH  28  30
ENDBRANCH  26  28
ENDBRANCH   1  26
TORSDOF 7
