REMARK  Name = ZINCpk00000y6zfy.0
REMARK                            x       y       z     vdW  Elec       q    Type
REMARK                         _______ _______ _______ _____ _____    ______ ____
ROOT
ATOM      1  N   LIG    1       -0.072   3.835   0.023  0.00  0.00    -0.390 N 
ATOM      2  C   LIG    1       -1.236   3.158   0.031  0.00  0.00    +0.390 A 
ATOM      3  C   LIG    1       -1.242   1.777   0.018  0.00  0.00    -0.250 A 
ATOM      4  C   LIG    1       -0.013   1.076   0.008  0.00  0.00    +0.140 A 
ATOM      5  C   LIG    1        1.150   1.782   0.001  0.00  0.00    -0.070 A 
ATOM      6  C   LIG    1        1.107   3.188   0.009  0.00  0.00    +0.510 A 
ATOM      7  O   LIG    1        2.147   3.825   0.002  0.00  0.00    -0.540 OA
ENDROOT
BRANCH   1  11
ATOM      8  C   LIG    1        1.390   8.534   0.035  0.00  0.00    +0.370 C 
ATOM      9  N   LIG    1        0.553   7.331   0.036  0.00  0.00    -0.370 N 
ATOM     10  C   LIG    1        0.997   6.055   0.025  0.00  0.00    +0.300 A 
ATOM     11  C   LIG    1       -0.090   5.241   0.031  0.00  0.00    -0.080 A 
ATOM     12  C   LIG    1       -1.234   6.054   0.040  0.00  0.00    +0.250 A 
ATOM     13  N   LIG    1       -0.847   7.303   0.050  0.00  0.00    -0.270 NA
ENDBRANCH   1  11
BRANCH   3  14
ATOM     14  C   LIG    1       -2.519   1.040   0.019  0.00  0.00    +0.580 C 
ATOM     15  N   LIG    1       -2.518  -0.308   0.012  0.00  0.00    -0.720 N 
ATOM     16  H   LIG    1       -1.678  -0.793   0.005  0.00  0.00    +0.400 HD
ATOM     17  O   LIG    1       -3.572   1.647   0.028  0.00  0.00    -0.540 OA
BRANCH  15  18
ATOM     18  C   LIG    1       -3.787  -1.041   0.014  0.00  0.00    +0.310 C 
BRANCH  18  19
ATOM     19  C   LIG    1       -3.511  -2.523   0.005  0.00  0.00    -0.050 C 
ATOM     20  C   LIG    1       -4.032  -3.300   0.943  0.00  0.00    +0.040 C 
BRANCH  20  21
ATOM     21  C   LIG    1       -3.762  -4.753   0.934  0.00  0.00    -0.110 A 
ATOM     22  C   LIG    1       -4.306  -5.584   1.919  0.00  0.00    +0.080 A 
ATOM     23  C   LIG    1       -4.022  -6.938   1.865  0.00  0.00    -0.030 A 
ATOM     24  C   LIG    1       -3.217  -7.421   0.850  0.00  0.00    +0.260 A 
ATOM     25  N   LIG    1       -2.717  -6.613  -0.065  0.00  0.00    -0.480 NA
ATOM     26  C   LIG    1       -2.963  -5.320  -0.060  0.00  0.00    +0.270 A 
ENDBRANCH  20  21
ENDBRANCH  18  19
ENDBRANCH  15  18
ENDBRANCH   3  14
TORSDOF 5
