REMARK  Name = ZINCrH000004tRlU.0
REMARK                            x       y       z     vdW  Elec       q    Type
REMARK                         _______ _______ _______ _____ _____    ______ ____
ROOT
ATOM      1  C   LIG    1       -3.072  -5.733   0.093  0.00  0.00    +0.150 A 
ATOM      2  C   LIG    1       -4.311  -5.160  -0.165  0.00  0.00    +0.000 A 
ATOM      3  C   LIG    1       -5.405  -5.960  -0.434  0.00  0.00    +0.050 A 
ATOM      4  C   LIG    1       -5.276  -7.334  -0.438  0.00  0.00    +0.000 A 
ATOM      5  C   LIG    1       -4.037  -7.920  -0.175  0.00  0.00    +0.010 A 
ATOM      6  C   LIG    1       -2.932  -7.112   0.091  0.00  0.00    +0.070 A 
ENDROOT
BRANCH   5   7
ATOM      7  C   LIG    1       -3.896  -9.392  -0.178  0.00  0.00    +0.210 A 
ATOM      8  N   LIG    1       -2.776 -10.073  -0.292  0.00  0.00    -0.270 NA
ATOM      9  N   LIG    1       -3.027 -11.335  -0.247  0.00  0.00    -0.290 NA
ATOM     10  C   LIG    1       -4.308 -11.528  -0.099  0.00  0.00    +0.190 A 
ATOM     11  C   LIG    1       -5.022 -12.850   0.018  0.00  0.00    +0.150 C 
ATOM     12  C   LIG    1       -6.242 -12.842  -0.908  0.00  0.00    +0.030 C 
ATOM     13  C   LIG    1       -7.445 -12.269  -0.165  0.00  0.00    +0.020 C 
ATOM     14  C   LIG    1       -7.002 -11.189   0.821  0.00  0.00    +0.030 C 
ATOM     15  C   LIG    1       -6.335 -10.038   0.062  0.00  0.00    +0.290 C 
ATOM     16  N   LIG    1       -4.902 -10.306  -0.057  0.00  0.00    -0.470 N 
ENDBRANCH   5   7
BRANCH   1  19
ATOM     17  O   LIG    1       -0.582  -6.360  -0.603  0.00  0.00    -0.480 OA
ATOM     18  C   LIG    1       -0.741  -5.285  -0.065  0.00  0.00    +0.530 C 
ATOM     19  N   LIG    1       -1.966  -4.918   0.359  0.00  0.00    -0.670 N 
ATOM     20  H   LIG    1       -2.081  -4.089   0.850  0.00  0.00    +0.420 HD
BRANCH  18  21
ATOM     21  C   LIG    1        0.433  -4.359   0.129  0.00  0.00    +0.080 C 
BRANCH  21  22
ATOM     22  S   LIG    1        1.930  -5.131  -0.543  0.00  0.00    +0.000 S 
BRANCH  22  23
ATOM     23  C   LIG    1        3.174  -3.923  -0.231  0.00  0.00    -0.060 A 
ATOM     24  C   LIG    1        4.499  -4.145  -0.608  0.00  0.00    -0.010 A 
ATOM     25  C   LIG    1        5.442  -3.174  -0.346  0.00  0.00    +0.280 A 
ATOM     26  N   LIG    1        5.104  -2.047   0.254  0.00  0.00    -0.490 NA
ATOM     27  C   LIG    1        3.862  -1.799   0.625  0.00  0.00    +0.280 A 
ATOM     28  C   LIG    1        2.860  -2.718   0.400  0.00  0.00    -0.060 A 
ENDBRANCH  22  23
ENDBRANCH  21  22
ENDBRANCH  18  21
ENDBRANCH   1  19
TORSDOF 5
