REMARK  Name = ZINCkj00000dE0Qg.0
REMARK                            x       y       z     vdW  Elec       q    Type
REMARK                         _______ _______ _______ _____ _____    ______ ____
ROOT
ATOM      1  N   LIG    1       -1.327  -0.372   1.751  0.00  0.00    -1.010 NA
ATOM      2  C   LIG    1       -2.251   0.746   2.014  0.00  0.00    +0.310 C 
ATOM      3  C   LIG    1       -2.381   0.800   3.556  0.00  0.00    +0.170 C 
ATOM      4  C   LIG    1       -2.356  -0.707   3.924  0.00  0.00    +0.010 C 
ATOM      5  C   LIG    1       -1.376  -1.301   2.890  0.00  0.00    +0.310 C 
ENDROOT
BRANCH   3   6
ATOM      6  N   LIG    1       -3.652   1.419   3.957  0.00  0.00    -0.630 N 
ATOM      7  H   LIG    1       -3.685   2.368   3.616  0.00  0.00    +0.440 HD
ATOM      8  H   LIG    1       -3.723   1.421   4.963  0.00  0.00    +0.440 HD
ATOM      9  H   LIG    1       -4.420   0.894   3.566  0.00  0.00    +0.440 HD
ENDBRANCH   3   6
BRANCH   1  10
ATOM     10  S   LIG    1       -0.394  -0.555   0.396  0.00  0.00    +2.740 S 
ATOM     11  O   LIG    1       -0.112  -1.944   0.287  0.00  0.00    -0.930 OA
ATOM     12  O   LIG    1       -1.029   0.192  -0.633  0.00  0.00    -0.930 OA
BRANCH  10  18
ATOM     13  C   LIG    1        0.361   2.724   0.923  0.00  0.00    +0.180 C 
ATOM     14  C   LIG    1        1.385   1.619   0.924  0.00  0.00    +0.090 A 
ATOM     15  N   LIG    1        2.667   1.743   1.117  0.00  0.00    -0.350 NA
ATOM     16  O   LIG    1        3.232   0.676   1.054  0.00  0.00    +0.110 OA
ATOM     17  C   LIG    1        2.373  -0.323   0.805  0.00  0.00    +0.340 A 
ATOM     18  C   LIG    1        1.146   0.242   0.711  0.00  0.00    -0.810 A 
ENDBRANCH  10  18
ENDBRANCH   1  10
BRANCH   4  19
ATOM     19  C   LIG    1       -1.833  -0.909   5.348  0.00  0.00    +0.040 C 
BRANCH  19  20
ATOM     20  C   LIG    1       -1.992  -2.377   5.746  0.00  0.00    -0.070 C 
ATOM     21  C   LIG    1       -3.448  -2.805   5.546  0.00  0.00    +0.040 C 
ATOM     22  C   LIG    1       -1.607  -2.551   7.217  0.00  0.00    +0.030 C 
ATOM     23  C   LIG    1       -1.081  -3.244   4.875  0.00  0.00    +0.040 C 
ENDBRANCH  19  20
ENDBRANCH   4  19
TORSDOF 5
