REMARK  Name = ZINCqH0000004t0Z.0
REMARK                            x       y       z     vdW  Elec       q    Type
REMARK                         _______ _______ _______ _____ _____    ______ ____
ROOT
ATOM      1  C   LIG    1       -2.374  -0.084   0.125  0.00  0.00    +0.600 C 
ATOM      2  N   LIG    1       -1.197  -0.730   0.009  0.00  0.00    -0.660 N 
ATOM      3  H   LIG    1       -1.179  -1.697  -0.065  0.00  0.00    +0.410 HD
ATOM      4  O   LIG    1       -2.403   1.132   0.132  0.00  0.00    -0.510 OA
ENDROOT
BRANCH   1  11
ATOM      5  C   LIG    1       -8.117  -2.099   1.110  0.00  0.00    -0.020 C 
ATOM      6  C   LIG    1       -7.788  -3.306   0.225  0.00  0.00    +0.030 C 
ATOM      7  C   LIG    1       -6.348  -3.746   0.499  0.00  0.00    +0.120 C 
ATOM      8  C   LIG    1       -5.442  -2.532   0.414  0.00  0.00    -0.180 A 
ATOM      9  C   LIG    1       -5.876  -1.252   0.460  0.00  0.00    -0.120 A 
ATOM     10  C   LIG    1       -4.865  -0.313   0.370  0.00  0.00    +0.120 A 
ATOM     11  C   LIG    1       -3.620  -0.848   0.243  0.00  0.00    -0.280 A 
ATOM     12  S   LIG    1       -3.744  -2.600   0.249  0.00  0.00    +0.190 S 
ATOM     13  C   LIG    1       -7.346  -0.879   0.605  0.00  0.00    +0.110 C 
BRANCH   5  15
ATOM     14  C   LIG    1       -9.966  -0.692   2.028  0.00  0.00    +0.000 C 
ATOM     15  C   LIG    1       -9.619  -1.816   1.049  0.00  0.00    +0.000 C 
ENDBRANCH   5  15
ENDBRANCH   1  11
BRANCH   2  16
ATOM     16  C   LIG    1        0.002  -0.004  -0.005  0.00  0.00    +0.070 A 
ATOM     17  C   LIG    1        0.058   1.253  -0.605  0.00  0.00    +0.100 A 
ATOM     18  C   LIG    1        1.262   1.935  -0.595  0.00  0.00    -0.020 A 
ATOM     19  C   LIG    1        2.368   1.347   0.009  0.00  0.00    +0.300 A 
ATOM     20  N   LIG    1        2.278   0.152   0.570  0.00  0.00    -0.500 NA
ATOM     21  C   LIG    1        1.146  -0.526   0.579  0.00  0.00    +0.270 A 
BRANCH  19  22
ATOM     22  N   LIG    1        3.584   2.025   0.025  0.00  0.00    -0.470 N 
ATOM     23  C   LIG    1        4.011   2.373  -1.338  0.00  0.00    +0.180 C 
ATOM     24  C   LIG    1        5.318   3.167  -1.271  0.00  0.00    +0.230 C 
ATOM     25  O   LIG    1        6.302   2.397  -0.576  0.00  0.00    -0.380 OA
ATOM     26  C   LIG    1        5.920   2.040   0.755  0.00  0.00    +0.220 C 
ATOM     27  C   LIG    1        4.619   1.235   0.709  0.00  0.00    +0.190 C 
ENDBRANCH  19  22
ENDBRANCH   2  16
TORSDOF 4
