REMARK  Name = ZINCtV00000tRP35.1
REMARK                            x       y       z     vdW  Elec       q    Type
REMARK                         _______ _______ _______ _____ _____    ______ ____
ROOT
ATOM      1  N   LIG    1       -1.093  -2.296   0.093  0.00  0.00    -0.260 NA
ATOM      2  C   LIG    1        0.063  -2.894   0.043  0.00  0.00    +0.370 C 
ENDROOT
BRANCH   2   3
ATOM      3  C   LIG    1        1.297  -2.104   0.054  0.00  0.00    -0.090 A 
ATOM      4  C   LIG    1        1.243  -0.696   0.004  0.00  0.00    +0.020 A 
ATOM      5  C   LIG    1        0.014  -0.018  -0.057  0.00  0.00    +0.030 A 
ATOM      6  C   LIG    1       -0.003   1.341  -0.104  0.00  0.00    +0.040 A 
ATOM      7  C   LIG    1        1.173   2.088  -0.093  0.00  0.00    +0.010 A 
ATOM      8  C   LIG    1        2.394   1.494  -0.036  0.00  0.00    +0.040 A 
ATOM      9  C   LIG    1        2.481   0.086   0.015  0.00  0.00    -0.070 A 
ATOM     10  C   LIG    1        3.719  -0.554   0.075  0.00  0.00    +0.110 A 
ATOM     11  C   LIG    1        3.782  -1.948   0.125  0.00  0.00    -0.070 A 
ATOM     12  C   LIG    1        5.022  -2.617   0.186  0.00  0.00    +0.050 A 
ATOM     13  C   LIG    1        5.049  -3.975   0.233  0.00  0.00    +0.000 A 
ATOM     14  C   LIG    1        3.878  -4.730   0.223  0.00  0.00    +0.050 A 
ATOM     15  C   LIG    1        2.652  -4.145   0.165  0.00  0.00    +0.000 A 
ATOM     16  C   LIG    1        2.553  -2.744   0.115  0.00  0.00    +0.020 A 
ENDBRANCH   2   3
BRANCH   1  23
ATOM     17  S   LIG    1       -1.737  -3.980   2.723  0.00  0.00    -0.560 S 
ATOM     18  C   LIG    1       -2.629  -3.793   1.274  0.00  0.00    +0.460 A 
ATOM     19  N   LIG    1       -3.819  -4.361   0.993  0.00  0.00    -0.460 N 
ATOM     20  H   LIG    1       -4.325  -4.950   1.574  0.00  0.00    +0.470 HD
ATOM     21  N   LIG    1       -4.191  -3.947  -0.294  0.00  0.00    -0.260 NA
ATOM     22  C   LIG    1       -3.258  -3.159  -0.750  0.00  0.00    +0.340 A 
ATOM     23  N   LIG    1       -2.268  -3.051   0.208  0.00  0.00    -0.360 N 
BRANCH  22  24
ATOM     24  C   LIG    1       -3.257  -2.495  -2.072  0.00  0.00    -0.050 A 
ATOM     25  C   LIG    1       -2.251  -1.585  -2.398  0.00  0.00    +0.070 A 
ATOM     26  C   LIG    1       -2.252  -0.973  -3.635  0.00  0.00    +0.040 A 
ATOM     27  C   LIG    1       -3.256  -1.252  -4.547  0.00  0.00    -0.010 A 
ATOM     28  C   LIG    1       -4.260  -2.150  -4.226  0.00  0.00    +0.040 A 
ATOM     29 CL   LIG    1       -3.255  -0.473  -6.098  0.00  0.00    -0.050 Cl
ATOM     30  C   LIG    1       -4.266  -2.772  -2.995  0.00  0.00    +0.100 A 
ENDBRANCH  22  24
ENDBRANCH   1  23
TORSDOF 3
