REMARK  Name = ZINCvU00000008UH.0
REMARK                            x       y       z     vdW  Elec       q    Type
REMARK                         _______ _______ _______ _____ _____    ______ ____
ROOT
ATOM      1  O   LIG    1        1.549  -4.684   0.662  0.00  0.00    -0.520 OA
ATOM      2  C   LIG    1        1.391  -3.912   1.588  0.00  0.00    +0.570 C 
ATOM      3  N   LIG    1        1.267  -2.591   1.351  0.00  0.00    -0.720 N 
ATOM      4  H   LIG    1        1.141  -1.975   2.090  0.00  0.00    +0.400 HD
ENDROOT
BRANCH   2   5
ATOM      5  C   LIG    1        1.333  -4.423   2.975  0.00  0.00    -0.070 A 
ATOM      6  C   LIG    1        1.270  -3.560   4.060  0.00  0.00    +0.020 A 
ATOM      7  C   LIG    1        1.211  -4.088   5.358  0.00  0.00    +0.200 A 
ATOM      8  N   LIG    1        1.224  -5.384   5.591  0.00  0.00    -0.450 NA
ATOM      9  C   LIG    1        1.289  -6.285   4.610  0.00  0.00    +0.130 A 
ATOM     10  C   LIG    1        1.301  -7.663   4.889  0.00  0.00    +0.050 A 
ATOM     11  C   LIG    1        1.367  -8.559   3.866  0.00  0.00    +0.030 A 
ATOM     12  C   LIG    1        1.424  -8.134   2.541  0.00  0.00    +0.020 A 
ATOM     13  C   LIG    1        1.413  -6.806   2.232  0.00  0.00    +0.060 A 
ATOM     14  C   LIG    1        1.346  -5.858   3.259  0.00  0.00    -0.070 A 
BRANCH   7  15
ATOM     15  C   LIG    1        1.137  -3.155   6.508  0.00  0.00    -0.060 A 
ATOM     16  C   LIG    1        1.127  -1.778   6.292  0.00  0.00    +0.020 A 
ATOM     17  C   LIG    1        1.053  -0.914   7.366  0.00  0.00    +0.010 A 
ATOM     18  C   LIG    1        1.000  -1.413   8.655  0.00  0.00    +0.030 A 
ATOM     19  C   LIG    1        1.016  -2.778   8.876  0.00  0.00    +0.010 A 
ATOM     20  C   LIG    1        1.084  -3.651   7.810  0.00  0.00    +0.070 A 
ENDBRANCH   7  15
ENDBRANCH   2   5
BRANCH   3  21
ATOM     21  C   LIG    1        1.324  -2.085  -0.023  0.00  0.00    +0.380 C 
BRANCH  21  22
ATOM     22  C   LIG    1        1.161  -0.587  -0.014  0.00  0.00    +0.050 A 
ATOM     23  C   LIG    1        2.212   0.241  -0.017  0.00  0.00    -0.050 A 
ATOM     24  S   LIG    1        1.607   1.897  -0.004  0.00  0.00    +0.110 S 
ATOM     25  C   LIG    1       -0.046   1.288   0.004  0.00  0.00    +0.120 A 
ATOM     26  N   LIG    1       -0.020  -0.014  -0.002  0.00  0.00    -0.450 NA
BRANCH  25  27
ATOM     27  C   LIG    1       -1.267   2.122   0.012  0.00  0.00    -0.030 A 
ATOM     28  C   LIG    1       -2.526   1.520   0.006  0.00  0.00    +0.070 A 
ATOM     29  C   LIG    1       -3.662   2.304   0.018  0.00  0.00    +0.010 A 
ATOM     30  C   LIG    1       -3.554   3.683   0.025  0.00  0.00    +0.030 A 
ATOM     31  C   LIG    1       -2.309   4.286   0.025  0.00  0.00    +0.010 A 
ATOM     32  C   LIG    1       -1.166   3.514   0.019  0.00  0.00    +0.020 A 
ENDBRANCH  25  27
ENDBRANCH  21  22
ENDBRANCH   3  21
TORSDOF 5
