REMARK  Name = ZINCpe000000UOFj.0
REMARK                            x       y       z     vdW  Elec       q    Type
REMARK                         _______ _______ _______ _____ _____    ______ ____
ROOT
ATOM      1  C   LIG    1        2.969  -2.753   0.787  0.00  0.00    +0.520 C 
ATOM      2  N   LIG    1        2.672  -2.928   2.090  0.00  0.00    -0.720 N 
ATOM      3  H   LIG    1        1.983  -3.560   2.349  0.00  0.00    +0.400 HD
ATOM      4  O   LIG    1        3.830  -1.963   0.462  0.00  0.00    -0.520 OA
ENDROOT
BRANCH   1   8
ATOM      5  C   LIG    1        3.356  -0.938  -2.684  0.00  0.00    +0.300 C 
ATOM      6  N   LIG    1        2.388  -1.802  -2.005  0.00  0.00    -0.600 N 
ATOM      7  C   LIG    1        2.770  -3.166  -1.646  0.00  0.00    +0.310 C 
ATOM      8  C   LIG    1        2.232  -3.539  -0.267  0.00  0.00    +0.040 C 
ATOM      9  C   LIG    1        0.761  -3.229  -0.183  0.00  0.00    -0.050 A 
ATOM     10  C   LIG    1       -0.079  -4.006   0.585  0.00  0.00    +0.010 A 
ATOM     11  C   LIG    1       -1.426  -3.697   0.665  0.00  0.00    +0.040 A 
ATOM     12  C   LIG    1       -1.937  -2.609  -0.019  0.00  0.00    +0.010 A 
ATOM     13  C   LIG    1       -1.106  -1.823  -0.792  0.00  0.00    +0.090 A 
ATOM     14  C   LIG    1        0.249  -2.135  -0.882  0.00  0.00    -0.120 A 
ATOM     15  C   LIG    1        1.160  -1.327  -1.720  0.00  0.00    +0.560 C 
ATOM     16  O   LIG    1        0.805  -0.247  -2.149  0.00  0.00    -0.530 OA
ENDBRANCH   1   8
BRANCH   2  17
ATOM     17  C   LIG    1        3.388  -2.163   3.114  0.00  0.00    +0.280 C 
BRANCH  17  18
ATOM     18  C   LIG    1        2.780  -2.455   4.487  0.00  0.00    +0.010 C 
ATOM     19  C   LIG    1        3.731  -2.890   5.603  0.00  0.00    +0.070 C 
ATOM     20  C   LIG    1        2.781  -3.908   4.966  0.00  0.00    +0.060 C 
BRANCH  18  21
ATOM     21  N   LIG    1        1.631  -1.619   4.861  0.00  0.00    -0.490 NA
ATOM     22  C   LIG    1        0.542  -1.749   3.882  0.00  0.00    +0.150 C 
ATOM     23  C   LIG    1       -0.653  -0.910   4.341  0.00  0.00    +0.220 C 
ATOM     24  O   LIG    1       -0.238   0.448   4.512  0.00  0.00    -0.380 OA
ATOM     25  C   LIG    1        0.821   0.612   5.459  0.00  0.00    +0.220 C 
ATOM     26  C   LIG    1        2.031  -0.212   5.011  0.00  0.00    +0.160 C 
ENDBRANCH  18  21
ENDBRANCH  17  18
ENDBRANCH   2  17
TORSDOF 4
