REMARK  Name = ZINCvU00000005av.0
REMARK                            x       y       z     vdW  Elec       q    Type
REMARK                         _______ _______ _______ _____ _____    ______ ____
ROOT
ATOM      1  C   LIG    1        2.558   3.819  -0.003  0.00  0.00    +0.540 C 
ATOM      2  N   LIG    1        1.313   3.303   0.007  0.00  0.00    -0.610 N 
ATOM      3  H   LIG    1        0.544   3.894   0.017  0.00  0.00    +0.430 HD
ATOM      4  O   LIG    1        3.520   3.080  -0.015  0.00  0.00    -0.480 OA
ENDROOT
BRANCH   2   5
ATOM      5  C   LIG    1        1.131   1.926   0.002  0.00  0.00    +0.280 A 
ATOM      6  N   LIG    1       -0.016   1.321   0.009  0.00  0.00    -0.500 NA
ATOM      7  C   LIG    1        0.002  -0.004   0.002  0.00  0.00    +0.120 A 
ATOM      8  C   LIG    1        1.225  -0.564  -0.013  0.00  0.00    -0.100 A 
ATOM      9  S   LIG    1        2.423   0.729  -0.017  0.00  0.00    +0.220 S 
BRANCH   7  10
ATOM     10  C   LIG    1       -1.241  -0.814   0.009  0.00  0.00    -0.000 A 
ATOM     11  C   LIG    1       -1.168  -2.205  -0.005  0.00  0.00    +0.060 A 
ATOM     12  C   LIG    1       -2.326  -2.956   0.007  0.00  0.00    +0.030 A 
ATOM     13  C   LIG    1       -3.561  -2.329   0.022  0.00  0.00    +0.070 A 
ATOM     14  C   LIG    1       -3.639  -0.944   0.030  0.00  0.00    +0.070 A 
ATOM     15  F   LIG    1       -4.846  -0.336   0.045  0.00  0.00    -0.130 F 
ATOM     16  F   LIG    1       -4.692  -3.068   0.028  0.00  0.00    -0.130 F 
ATOM     17  C   LIG    1       -2.485  -0.185   0.024  0.00  0.00    +0.060 A 
ENDBRANCH   7  10
ENDBRANCH   2   5
BRANCH   1  18
ATOM     18  C   LIG    1        2.756   5.313   0.003  0.00  0.00    +0.020 C 
ATOM     19  C   LIG    1        2.711   5.828   1.443  0.00  0.00    +0.110 C 
BRANCH  18  20
ATOM     20  S   LIG    1        4.362   5.712  -0.731  0.00  0.00    +0.090 S 
BRANCH  20  25
ATOM     21  C   LIG    1        5.385  10.895  -1.336  0.00  0.00    +0.200 C 
ATOM     22  C   LIG    1        4.710   9.591  -0.996  0.00  0.00    +0.200 A 
ATOM     23  N   LIG    1        3.531   9.448  -0.461  0.00  0.00    -0.280 NA
ATOM     24  N   LIG    1        3.261   8.200  -0.311  0.00  0.00    -0.280 NA
ATOM     25  C   LIG    1        4.266   7.471  -0.737  0.00  0.00    +0.150 A 
ATOM     26  N   LIG    1        5.223   8.336  -1.192  0.00  0.00    -0.420 N 
BRANCH  26  27
ATOM     27  C   LIG    1        6.469   8.007  -1.745  0.00  0.00    +0.100 A 
ATOM     28  C   LIG    1        7.638   8.370  -1.090  0.00  0.00    +0.030 A 
ATOM     29  C   LIG    1        8.864   8.040  -1.635  0.00  0.00    +0.040 A 
ATOM     30  C   LIG    1        8.928   7.359  -2.836  0.00  0.00    +0.040 A 
ATOM     31  C   LIG    1        7.765   7.001  -3.494  0.00  0.00    +0.040 A 
ATOM     32  C   LIG    1        6.536   7.323  -2.951  0.00  0.00    +0.030 A 
ENDBRANCH  26  27
ENDBRANCH  20  25
ENDBRANCH  18  20
ENDBRANCH   1  18
TORSDOF 6
