REMARK  Name = ZINCrg000000sCLy.0
REMARK                            x       y       z     vdW  Elec       q    Type
REMARK                         _______ _______ _______ _____ _____    ______ ____
ROOT
ATOM      1  C   LIG    1       -2.094  -4.428  -1.074  0.00  0.00    +0.240 C 
ATOM      2  C   LIG    1       -3.178  -3.351  -1.154  0.00  0.00    +0.020 C 
ATOM      3  C   LIG    1       -3.013  -2.378   0.018  0.00  0.00    +0.280 C 
ATOM      4  N   LIG    1       -1.640  -1.854   0.008  0.00  0.00    -0.610 N 
ATOM      5  C   LIG    1       -0.521  -2.806  -0.014  0.00  0.00    +0.280 C 
ATOM      6  C   LIG    1       -1.412  -0.526   0.013  0.00  0.00    +0.520 C 
ATOM      7  O   LIG    1       -2.344   0.250   0.026  0.00  0.00    -0.530 OA
ATOM      8  C   LIG    1       -0.714  -3.774  -1.180  0.00  0.00    +0.010 C 
ENDROOT
BRANCH   1  10
ATOM      9  C   LIG    1       -1.804  -6.638  -2.057  0.00  0.00    +0.600 C 
ATOM     10  N   LIG    1       -2.269  -5.379  -2.174  0.00  0.00    -0.730 N 
ATOM     11  H   LIG    1       -2.719  -5.102  -2.987  0.00  0.00    +0.400 HD
ATOM     12  O   LIG    1       -1.240  -6.986  -1.037  0.00  0.00    -0.550 OA
BRANCH   9  16
ATOM     13  C   LIG    1       -1.663 -10.799  -4.819  0.00  0.00    +0.360 C 
ATOM     14  N   LIG    1       -1.915  -9.427  -4.373  0.00  0.00    -0.360 N 
ATOM     15  C   LIG    1       -1.559  -8.910  -3.186  0.00  0.00    +0.320 A 
ATOM     16  C   LIG    1       -1.980  -7.596  -3.164  0.00  0.00    -0.300 A 
ATOM     17  C   LIG    1       -2.617  -7.341  -4.399  0.00  0.00    +0.270 A 
ATOM     18  N   LIG    1       -2.568  -8.433  -5.111  0.00  0.00    -0.290 NA
ENDBRANCH   9  16
ENDBRANCH   1  10
BRANCH   6  19
ATOM     19  C   LIG    1        0.002  -0.004   0.002  0.00  0.00    +0.040 C 
BRANCH  19  20
ATOM     20  C   LIG    1       -0.019   1.526   0.010  0.00  0.00    +0.300 C 
BRANCH  20  21
ATOM     21  N   LIG    1        1.356   2.033   0.000  0.00  0.00    -0.730 N 
ATOM     22  H   LIG    1        2.102   1.413  -0.010  0.00  0.00    +0.400 HD
ATOM     23  C   LIG    1        1.584   3.361   0.005  0.00  0.00    +0.590 C 
ATOM     24  O   LIG    1        0.648   4.139   0.018  0.00  0.00    -0.520 OA
BRANCH  23  25
ATOM     25  C   LIG    1        2.959   3.869  -0.005  0.00  0.00    -0.270 A 
ATOM     26  C   LIG    1        3.318   5.187  -0.002  0.00  0.00    +0.110 A 
ATOM     27  C   LIG    1        4.679   5.381  -0.013  0.00  0.00    +0.000 A 
ATOM     28  C   LIG    1        5.411   4.261  -0.025  0.00  0.00    -0.050 A 
ATOM     29  S   LIG    1        4.412   2.878  -0.017  0.00  0.00    +0.200 S 
ENDBRANCH  23  25
ENDBRANCH  20  21
ENDBRANCH  19  20
ENDBRANCH   6  19
TORSDOF 6
