REMARK  Name = ZINCqH0000007jvF.0
REMARK                            x       y       z     vdW  Elec       q    Type
REMARK                         _______ _______ _______ _____ _____    ______ ____
ROOT
ATOM      1  N   LIG    1        2.402   1.101  -0.015  0.00  0.00    -0.670 N 
ATOM      2  H   LIG    1        3.234   1.595  -0.088  0.00  0.00    +0.410 HD
ATOM      3  C   LIG    1        2.423  -0.243   0.079  0.00  0.00    +0.570 C 
ATOM      4  O   LIG    1        1.379  -0.868   0.086  0.00  0.00    -0.520 OA
ENDROOT
BRANCH   1   8
ATOM      5  C   LIG    1       -1.241   3.134   0.004  0.00  0.00    +0.090 A 
ATOM      6  C   LIG    1       -1.141   1.896  -0.609  0.00  0.00    -0.010 A 
ATOM      7  C   LIG    1        0.065   1.220  -0.610  0.00  0.00    +0.040 A 
ATOM      8  C   LIG    1        1.180   1.785  -0.007  0.00  0.00    +0.150 A 
ATOM      9  C   LIG    1        1.084   3.029   0.603  0.00  0.00    -0.060 A 
ATOM     10  C   LIG    1       -0.125   3.704   0.609  0.00  0.00    +0.120 A 
BRANCH   5  12
ATOM     11  C   LIG    1       -3.534   3.152  -0.629  0.00  0.00    +0.250 C 
ATOM     12  O   LIG    1       -2.430   3.796   0.010  0.00  0.00    -0.310 OA
ENDBRANCH   5  12
BRANCH  10  13
ATOM     13  O   LIG    1       -0.221   4.922   1.206  0.00  0.00    -0.300 OA
ATOM     14  C   LIG    1        0.965   5.445   1.807  0.00  0.00    +0.230 C 
ENDBRANCH  10  13
ENDBRANCH   1   8
BRANCH   3  15
ATOM     15  C   LIG    1        3.711  -0.956   0.174  0.00  0.00    -0.230 A 
ATOM     16  C   LIG    1        3.744  -2.356   0.273  0.00  0.00    +0.160 A 
ATOM     17  C   LIG    1        4.961  -2.976   0.359  0.00  0.00    -0.060 A 
ATOM     18  C   LIG    1        6.123  -2.206   0.346  0.00  0.00    +0.350 A 
ATOM     19  N   LIG    1        6.064  -0.884   0.253  0.00  0.00    -0.520 NA
ATOM     20  C   LIG    1        4.914  -0.249   0.162  0.00  0.00    +0.330 A 
BRANCH  18  21
ATOM     21  N   LIG    1        7.356  -2.830   0.433  0.00  0.00    -0.490 N 
ATOM     22  C   LIG    1        7.398  -3.763   1.581  0.00  0.00    +0.200 C 
ATOM     23  C   LIG    1        8.787  -4.257   1.881  0.00  0.00    +0.040 C 
ATOM     24  C   LIG    1        9.410  -3.344   2.958  0.00  0.00    +0.010 C 
ATOM     25  C   LIG    1        9.891  -2.084   2.402  0.00  0.00    +0.000 C 
ATOM     26  C   LIG    1        8.756  -1.260   1.759  0.00  0.00    -0.000 C 
ATOM     27  C   LIG    1        8.455  -1.839   0.403  0.00  0.00    +0.230 C 
ENDBRANCH  18  21
ENDBRANCH   3  15
TORSDOF 5
