REMARK  Name = ZINCqH0000036tfU.0
REMARK                            x       y       z     vdW  Elec       q    Type
REMARK                         _______ _______ _______ _____ _____    ______ ____
ROOT
ATOM      1  C   LIG    1       -1.256   7.540   0.465  0.00  0.00    -0.680 A 
ATOM      2  C   LIG    1       -1.223   6.212   0.079  0.00  0.00    +0.140 A 
ATOM      3  C   LIG    1       -0.012   5.559  -0.038  0.00  0.00    +0.000 A 
ATOM      4  C   LIG    1        1.172   6.235   0.232  0.00  0.00    +0.210 A 
ATOM      5  C   LIG    1        1.139   7.567   0.617  0.00  0.00    -0.130 A 
ATOM      6  C   LIG    1        2.401   8.333   0.912  0.00  0.00    +0.090 C 
ATOM      7  C   LIG    1        3.549   7.372   1.224  0.00  0.00    +0.030 C 
ATOM      8  C   LIG    1        3.639   6.327   0.110  0.00  0.00    +0.290 C 
ATOM      9  N   LIG    1        2.390   5.554   0.110  0.00  0.00    -0.550 N 
ATOM     10  C   LIG    1        2.416   4.211   0.001  0.00  0.00    +0.560 C 
ATOM     11  O   LIG    1        1.375   3.583  -0.029  0.00  0.00    -0.490 OA
ATOM     12  C   LIG    1       -0.080   8.214   0.733  0.00  0.00    +0.150 A 
ENDROOT
BRANCH  10  13
ATOM     13  C   LIG    1        3.709   3.501  -0.082  0.00  0.00    -0.080 A 
ATOM     14  C   LIG    1        4.723   3.986  -0.909  0.00  0.00    +0.040 A 
ATOM     15  C   LIG    1        5.929   3.320  -0.983  0.00  0.00    +0.090 A 
ATOM     16  C   LIG    1        6.138   2.175  -0.235  0.00  0.00    -0.190 A 
ATOM     17  C   LIG    1        5.134   1.683   0.584  0.00  0.00    +0.140 A 
ATOM     18  F   LIG    1        5.343   0.561   1.308  0.00  0.00    -0.120 F 
ATOM     19  C   LIG    1        3.922   2.342   0.666  0.00  0.00    +0.050 A 
BRANCH  16  20
ATOM     20  C   LIG    1        7.460   1.456  -0.316  0.00  0.00    +0.440 C 
ATOM     21  F   LIG    1        7.254   0.151  -0.777  0.00  0.00    -0.190 F 
ATOM     22  F   LIG    1        8.047   1.415   0.953  0.00  0.00    -0.190 F 
ENDBRANCH  16  20
ENDBRANCH  10  13
BRANCH   1  24
ATOM     23  C   LIG    1       -3.096   9.079  -1.028  0.00  0.00    -0.260 C 
ATOM     24  S   LIG    1       -2.801   8.373   0.616  0.00  0.00    +2.500 S 
ATOM     25  O   LIG    1       -2.553   9.402   1.563  0.00  0.00    -0.940 OA
ATOM     26  O   LIG    1       -3.733   7.336   0.888  0.00  0.00    -0.940 OA
ENDBRANCH   1  24
TORSDOF 3
