REMARK  Name = ZINCtV000002ADkK.0
REMARK                            x       y       z     vdW  Elec       q    Type
REMARK                         _______ _______ _______ _____ _____    ______ ____
ROOT
ATOM      1  C   LIG    1        1.163   3.571   0.010  0.00  0.00    +0.150 A 
ATOM      2  C   LIG    1        0.018   4.277   0.019  0.00  0.00    -0.120 A 
ATOM      3  S   LIG    1        0.427   5.991   0.029  0.00  0.00    +0.200 S 
ATOM      4  C   LIG    1        2.140   5.583   0.010  0.00  0.00    +0.270 A 
ATOM      5  N   LIG    1        2.275   4.293   0.002  0.00  0.00    -0.470 NA
ENDROOT
BRANCH   1   9
ATOM      6  C   LIG    1        1.211  -0.685  -0.014  0.00  0.00    +0.180 A 
ATOM      7  C   LIG    1        0.002  -0.004   0.002  0.00  0.00    -0.120 A 
ATOM      8  C   LIG    1       -0.017   1.376   0.010  0.00  0.00    +0.120 A 
ATOM      9  C   LIG    1        1.180   2.088   0.002  0.00  0.00    -0.100 A 
ATOM     10  C   LIG    1        2.398   1.401  -0.013  0.00  0.00    +0.200 A 
ATOM     11  C   LIG    1        2.408   0.017  -0.021  0.00  0.00    -0.110 A 
BRANCH   6  13
ATOM     12  C   LIG    1       -0.044  -2.704  -0.014  0.00  0.00    +0.250 C 
ATOM     13  O   LIG    1        1.223  -2.044  -0.022  0.00  0.00    -0.320 OA
ENDBRANCH   6  13
BRANCH  10  14
ATOM     14  O   LIG    1        3.569   2.090  -0.020  0.00  0.00    -0.270 OA
ATOM     15  C   LIG    1        4.774   1.322  -0.036  0.00  0.00    +0.240 C 
ENDBRANCH  10  14
ENDBRANCH   1   9
BRANCH   4  16
ATOM     16  N   LIG    1        3.183   6.499   0.004  0.00  0.00    -0.610 N 
ATOM     17  H   LIG    1        4.102   6.188  -0.007  0.00  0.00    +0.420 HD
ATOM     18  C   LIG    1        2.919   7.820   0.013  0.00  0.00    +0.590 C 
ATOM     19  O   LIG    1        1.767   8.211   0.027  0.00  0.00    -0.470 OA
BRANCH  18  20
ATOM     20  C   LIG    1        4.021   8.789   0.007  0.00  0.00    -0.240 A 
ATOM     21  C   LIG    1        3.867  10.118   0.015  0.00  0.00    +0.060 A 
ATOM     22  C   LIG    1        5.057  10.866   0.007  0.00  0.00    -0.100 A 
ATOM     23  C   LIG    1        5.221  12.272   0.012  0.00  0.00    +0.130 A 
ATOM     24  C   LIG    1        6.463  12.822   0.003  0.00  0.00    +0.000 A 
ATOM     25  C   LIG    1        7.597  12.015  -0.012  0.00  0.00    +0.150 A 
ATOM     26  C   LIG    1        7.469  10.644  -0.018  0.00  0.00    +0.020 A 
ATOM     27  F   LIG    1        8.825  12.577  -0.021  0.00  0.00    -0.120 F 
ATOM     28  C   LIG    1        6.200  10.057  -0.009  0.00  0.00    -0.090 A 
ATOM     29 CL   LIG    1        2.302  10.869   0.035  0.00  0.00    +0.000 Cl
ATOM     30  S   LIG    1        5.724   8.363  -0.006  0.00  0.00    +0.190 S 
ENDBRANCH  18  20
ENDBRANCH   4  16
TORSDOF 5
