REMARK  Name = ZINCpe000000TNLp.0
REMARK                            x       y       z     vdW  Elec       q    Type
REMARK                         _______ _______ _______ _____ _____    ______ ____
ROOT
ATOM      1  S   LIG    1        2.711   1.188  -0.018  0.00  0.00    +2.700 S 
ATOM      2  O   LIG    1        3.731   2.177   0.013  0.00  0.00    -0.940 OA
ATOM      3  O   LIG    1        2.607   0.210  -1.043  0.00  0.00    -0.930 OA
ENDROOT
BRANCH   1   6
ATOM      4  C   LIG    1       -0.052   4.118   0.024  0.00  0.00    -0.150 A 
ATOM      5  C   LIG    1        1.165   3.432   0.009  0.00  0.00    +0.260 A 
ATOM      6  C   LIG    1        1.177   2.054   0.002  0.00  0.00    -0.730 A 
ATOM      7  C   LIG    1       -0.016   1.347   0.009  0.00  0.00    +0.240 A 
ATOM      8  C   LIG    1       -1.228   2.021   0.019  0.00  0.00    +0.000 A 
ATOM      9  F   LIG    1        0.002  -0.004   0.002  0.00  0.00    -0.100 F 
ATOM     10  C   LIG    1       -1.252   3.400   0.031  0.00  0.00    +0.090 A 
ATOM     11 CL   LIG    1       -2.770   4.243   0.050  0.00  0.00    +0.010 Cl
BRANCH   4  12
ATOM     12  C   LIG    1       -0.070   5.593   0.031  0.00  0.00    +0.510 C 
ATOM     13  O   LIG    1       -1.130   6.187   0.044  0.00  0.00    -0.480 OA
BRANCH  12  14
ATOM     14  O   LIG    1        1.088   6.281   0.023  0.00  0.00    -0.350 OA
BRANCH  14  16
ATOM     15  C   LIG    1        2.400   8.333   0.020  0.00  0.00    +0.060 C 
ATOM     16  C   LIG    1        0.993   7.730   0.031  0.00  0.00    +0.200 C 
ENDBRANCH  14  16
ENDBRANCH  12  14
ENDBRANCH   4  12
ENDBRANCH   1   6
BRANCH   1  17
ATOM     17  N   LIG    1        2.823   0.357   1.411  0.00  0.00    -1.110 NA
ATOM     18  H   LIG    1        3.515   0.585   2.052  0.00  0.00    +0.430 HD
BRANCH  17  19
ATOM     19  C   LIG    1        1.879  -0.723   1.706  0.00  0.00    +0.270 C 
BRANCH  19  20
ATOM     20  C   LIG    1        2.408  -1.559   2.873  0.00  0.00    +0.290 C 
BRANCH  20  21
ATOM     21  N   LIG    1        1.463  -2.639   3.168  0.00  0.00    -1.120 NA
ATOM     22  H   LIG    1        0.563  -2.608   2.807  0.00  0.00    +0.420 HD
BRANCH  21  23
ATOM     23  S   LIG    1        1.931  -3.912   4.118  0.00  0.00    +2.610 S 
ATOM     24  O   LIG    1        3.147  -4.357   3.534  0.00  0.00    -0.950 OA
ATOM     25  O   LIG    1        0.788  -4.755   4.163  0.00  0.00    -0.950 OA
BRANCH  23  26
ATOM     26  C   LIG    1        2.240  -3.172   5.746  0.00  0.00    -0.370 C 
ATOM     27  C   LIG    1        2.685  -4.261   6.724  0.00  0.00    +0.070 C 
ENDBRANCH  23  26
ENDBRANCH  21  23
ENDBRANCH  20  21
ENDBRANCH  19  20
ENDBRANCH  17  19
ENDBRANCH   1  17
TORSDOF 10
