REMARK  Name = ZINCpe000000ZuaA.0
REMARK                            x       y       z     vdW  Elec       q    Type
REMARK                         _______ _______ _______ _____ _____    ______ ____
ROOT
ATOM      1  O   LIG    1        1.060  -0.596  -0.011  0.00  0.00    -0.500 OA
ATOM      2  C   LIG    1        0.002  -0.004   0.002  0.00  0.00    +0.530 C 
ATOM      3  N   LIG    1       -0.016   1.344   0.009  0.00  0.00    -0.610 N 
ATOM      4  C   LIG    1       -1.289   2.081   0.019  0.00  0.00    +0.280 C 
ATOM      5  C   LIG    1       -1.242   3.107   1.163  0.00  0.00    +0.170 C 
ATOM      6  N   LIG    1       -0.042   3.942   1.016  0.00  0.00    -0.540 NA
ATOM      7  C   LIG    1        1.183   3.140   1.140  0.00  0.00    +0.170 C 
ATOM      8  C   LIG    1        1.236   2.116   0.002  0.00  0.00    +0.300 C 
ENDROOT
BRANCH   2   9
ATOM      9  C   LIG    1       -1.293  -0.775   0.010  0.00  0.00    +0.150 C 
ATOM     10  C   LIG    1       -2.055  -0.520  -1.297  0.00  0.00    +0.250 C 
ATOM     11  O   LIG    1       -3.271  -1.276  -1.262  0.00  0.00    -0.300 OA
ATOM     12  C   LIG    1       -3.174  -2.572  -0.858  0.00  0.00    +0.040 A 
ATOM     13  C   LIG    1       -4.210  -3.451  -1.134  0.00  0.00    +0.030 A 
ATOM     14  C   LIG    1       -4.127  -4.769  -0.727  0.00  0.00    +0.030 A 
ATOM     15  C   LIG    1       -3.012  -5.215  -0.043  0.00  0.00    +0.030 A 
ATOM     16  C   LIG    1       -1.975  -4.345   0.234  0.00  0.00    +0.030 A 
ATOM     17  C   LIG    1       -2.051  -3.021  -0.172  0.00  0.00    +0.050 A 
ATOM     18  O   LIG    1       -1.019  -2.178   0.104  0.00  0.00    -0.280 OA
ENDBRANCH   2   9
BRANCH   6  19
ATOM     19  C   LIG    1       -0.048   5.047   1.984  0.00  0.00    +0.180 C 
BRANCH  19  20
ATOM     20  C   LIG    1       -1.203   5.998   1.666  0.00  0.00    +0.330 C 
BRANCH  20  21
ATOM     21  N   LIG    1       -1.209   7.100   2.631  0.00  0.00    -0.380 N 
ATOM     22  C   LIG    1       -1.175   8.416   2.334  0.00  0.00    +0.230 A 
ATOM     23  C   LIG    1       -1.195   9.102   3.500  0.00  0.00    -0.120 A 
ATOM     24  C   LIG    1       -1.242   8.174   4.545  0.00  0.00    +0.230 A 
ATOM     25  N   LIG    1       -1.256   6.974   4.025  0.00  0.00    -0.300 NA
ENDBRANCH  20  21
ENDBRANCH  19  20
ENDBRANCH   6  19
TORSDOF 4
