REMARK  Name = ZINCc70000004IWY.0
REMARK                            x       y       z     vdW  Elec       q    Type
REMARK                         _______ _______ _______ _____ _____    ______ ____
ROOT
ATOM      1  C   LIG    1       -1.919   2.353  -0.705  0.00  0.00    +0.140 C 
ATOM      2  C   LIG    1       -1.544   2.821   0.724  0.00  0.00    +0.050 C 
ATOM      3  C   LIG    1       -0.756   1.594   1.261  0.00  0.00    +0.170 C 
ATOM      4  C   LIG    1       -0.013   1.086   0.008  0.00  0.00    +0.190 C 
ATOM      5  F   LIG    1        0.153   1.981   2.252  0.00  0.00    -0.200 F 
ATOM      6  N   LIG    1       -0.746   1.584  -1.170  0.00  0.00    -0.510 NA
ATOM      7  C   LIG    1       -1.155   0.475  -2.043  0.00  0.00    +0.200 C 
ENDROOT
BRANCH   1  10
ATOM      8  C   LIG    1       -3.587   5.311  -2.470  0.00  0.00    +0.290 C 
ATOM      9  N   LIG    1       -3.356   4.156  -1.600  0.00  0.00    -0.630 N 
ATOM     10  C   LIG    1       -2.157   3.541  -1.600  0.00  0.00    +0.520 C 
ATOM     11  O   LIG    1       -1.269   3.945  -2.321  0.00  0.00    -0.510 OA
ATOM     12  C   LIG    1       -4.429   3.669  -0.729  0.00  0.00    +0.280 C 
ENDBRANCH   1  10
TORSDOF 1
