REMARK  Name = ZINCtV000002Mn8E.0
REMARK                            x       y       z     vdW  Elec       q    Type
REMARK                         _______ _______ _______ _____ _____    ______ ____
ROOT
ATOM      1  C   LIG    1        8.299   1.249  -0.064  0.00  0.00    +0.130 A 
ATOM      2  N   LIG    1        7.951   2.515  -0.053  0.00  0.00    -0.280 NA
ATOM      3  N   LIG    1        6.668   2.607  -0.042  0.00  0.00    -0.230 NA
ATOM      4  C   LIG    1        6.144   1.402  -0.045  0.00  0.00    +0.230 A 
ATOM      5  O   LIG    1        7.167   0.518  -0.053  0.00  0.00    -0.200 OA
ENDROOT
BRANCH   4   6
ATOM      6  C   LIG    1        4.711   1.075  -0.035  0.00  0.00    -0.120 A 
ATOM      7  C   LIG    1        3.730   1.983  -0.021  0.00  0.00    +0.030 A 
ATOM      8  C   LIG    1        2.391   1.425  -0.013  0.00  0.00    -0.080 A 
ATOM      9  C   LIG    1        1.145   2.092   0.002  0.00  0.00    +0.080 A 
ATOM     10  C   LIG    1       -0.017   1.384   0.010  0.00  0.00    +0.030 A 
ATOM     11  C   LIG    1        0.002  -0.004   0.002  0.00  0.00    +0.060 A 
ATOM     12  C   LIG    1        1.200  -0.680  -0.013  0.00  0.00    +0.060 A 
ATOM     13  C   LIG    1        2.406   0.026  -0.020  0.00  0.00    -0.130 A 
ATOM     14 CL   LIG    1        4.033   3.692  -0.014  0.00  0.00    +0.000 Cl
ATOM     15  S   LIG    1        4.067  -0.555  -0.038  0.00  0.00    +0.190 S 
ENDBRANCH   4   6
BRANCH   1  16
ATOM     16  S   LIG    1        9.945   0.621  -0.081  0.00  0.00    +0.130 S 
BRANCH  16  17
ATOM     17  C   LIG    1       10.874   2.174  -0.080  0.00  0.00    +0.090 C 
BRANCH  17  19
ATOM     18  O   LIG    1       12.736   0.731  -0.104  0.00  0.00    -0.430 OA
ATOM     19  C   LIG    1       12.351   1.876  -0.094  0.00  0.00    +0.390 C 
BRANCH  19  20
ATOM     20  C   LIG    1       13.348   3.006  -0.096  0.00  0.00    -0.090 C 
ATOM     21  C   LIG    1       13.155   3.858   1.160  0.00  0.00    +0.040 C 
ATOM     22  C   LIG    1       14.167   5.006   1.159  0.00  0.00    +0.000 C 
ATOM     23  C   LIG    1       13.953   5.872  -0.084  0.00  0.00    +0.030 C 
ATOM     24  C   LIG    1       14.147   5.020  -1.340  0.00  0.00    +0.000 C 
ATOM     25  C   LIG    1       15.566   4.449  -1.355  0.00  0.00    +0.020 C 
ATOM     26  C   LIG    1       15.780   3.582  -0.112  0.00  0.00    -0.010 C 
ATOM     27  C   LIG    1       15.586   4.434   1.143  0.00  0.00    +0.020 C 
ATOM     28  C   LIG    1       13.134   3.873  -1.338  0.00  0.00    +0.040 C 
ATOM     29  C   LIG    1       14.767   2.434  -0.111  0.00  0.00    +0.050 C 
ENDBRANCH  19  20
ENDBRANCH  17  19
ENDBRANCH  16  17
ENDBRANCH   1  16
TORSDOF 5
