REMARK  Name = ZINCqH0000006MUK.0
REMARK                            x       y       z     vdW  Elec       q    Type
REMARK                         _______ _______ _______ _____ _____    ______ ____
ROOT
ATOM      1  N   LIG    1       -5.205  -0.399  -2.992  0.00  0.00    -0.740 N 
ATOM      2  H   LIG    1       -5.533  -1.216  -2.586  0.00  0.00    +0.400 HD
ATOM      3  C   LIG    1       -4.953   0.680  -2.224  0.00  0.00    +0.730 C 
ATOM      4  N   LIG    1       -5.156   0.622  -0.893  0.00  0.00    -0.620 N 
ATOM      5  C   LIG    1       -5.650  -0.552  -0.144  0.00  0.00    +0.250 C 
ATOM      6  C   LIG    1       -6.285   0.036   1.141  0.00  0.00    +0.040 C 
ATOM      7  C   LIG    1       -5.319   1.207   1.459  0.00  0.00    +0.060 C 
ATOM      8  C   LIG    1       -4.923   1.719   0.058  0.00  0.00    +0.330 C 
ATOM      9  O   LIG    1       -4.543   1.706  -2.732  0.00  0.00    -0.580 OA
ENDROOT
BRANCH   8  10
ATOM     10  C   LIG    1       -3.467   2.107   0.046  0.00  0.00    +0.090 A 
ATOM     11  N   LIG    1       -2.500   1.270   0.033  0.00  0.00    -0.450 NA
ATOM     12  C   LIG    1       -1.245   1.759   0.018  0.00  0.00    +0.080 A 
ATOM     13  C   LIG    1       -0.013   1.076   0.008  0.00  0.00    +0.070 A 
ATOM     14  C   LIG    1        1.160   1.769   0.001  0.00  0.00    +0.030 A 
ATOM     15  C   LIG    1        1.165   3.156   0.007  0.00  0.00    +0.040 A 
ATOM     16  C   LIG    1       -0.024   3.850   0.022  0.00  0.00    +0.060 A 
ATOM     17  C   LIG    1       -1.233   3.159   0.030  0.00  0.00    -0.180 A 
ATOM     18  S   LIG    1       -2.902   3.717   0.048  0.00  0.00    +0.120 S 
ENDBRANCH   8  10
BRANCH   1  19
ATOM     19  C   LIG    1       -4.985  -0.336  -4.439  0.00  0.00    +0.340 C 
BRANCH  19  22
ATOM     20  C   LIG    1       -4.751  -3.866  -5.774  0.00  0.00    +0.320 A 
ATOM     21  C   LIG    1       -4.386  -2.655  -5.201  0.00  0.00    -0.030 A 
ATOM     22  C   LIG    1       -5.340  -1.662  -5.059  0.00  0.00    -0.030 A 
ATOM     23  C   LIG    1       -6.629  -1.914  -5.506  0.00  0.00    -0.050 A 
ATOM     24  C   LIG    1       -6.920  -3.141  -6.071  0.00  0.00    +0.300 A 
ATOM     25  N   LIG    1       -5.991  -4.069  -6.188  0.00  0.00    -0.530 NA
BRANCH  20  27
ATOM     26  C   LIG    1       -4.263  -6.070  -6.515  0.00  0.00    +0.260 C 
ATOM     27  O   LIG    1       -3.826  -4.849  -5.914  0.00  0.00    -0.310 OA
ENDBRANCH  20  27
ENDBRANCH  19  22
ENDBRANCH   1  19
TORSDOF 4
