REMARK  Name = ZINCpk00000xI0wX.0
REMARK                            x       y       z     vdW  Elec       q    Type
REMARK                         _______ _______ _______ _____ _____    ______ ____
ROOT
ATOM      1  N   LIG    1       -0.729   1.313   1.529  0.00  0.00    -0.510 NA
ATOM      2  C   LIG    1       -0.726   0.157   2.453  0.00  0.00    +0.180 C 
ATOM      3  C   LIG    1       -1.854  -0.768   1.931  0.00  0.00    +0.190 C 
ATOM      4  C   LIG    1       -2.919   0.263   1.474  0.00  0.00    +0.010 C 
ATOM      5  F   LIG    1       -2.350  -1.581   2.955  0.00  0.00    -0.200 F 
ATOM      6  C   LIG    1       -2.066   1.422   0.917  0.00  0.00    +0.180 C 
ENDROOT
BRANCH   1   7
ATOM      7  C   LIG    1       -0.370   2.551   2.234  0.00  0.00    +0.310 C 
BRANCH   7  12
ATOM      8  C   LIG    1        4.577   2.386   3.421  0.00  0.00    +0.160 C 
ATOM      9  C   LIG    1        3.073   2.292   3.451  0.00  0.00    +0.010 A 
ATOM     10  N   LIG    1        2.337   1.882   4.444  0.00  0.00    -0.360 NA
ATOM     11  O   LIG    1        1.160   1.919   4.170  0.00  0.00    +0.100 OA
ATOM     12  C   LIG    1        0.958   2.370   2.924  0.00  0.00    -0.040 A 
ATOM     13  C   LIG    1        2.182   2.625   2.405  0.00  0.00    -0.030 A 
ENDBRANCH   7  12
ENDBRANCH   1   7
BRANCH   6  14
ATOM     14  C   LIG    1       -2.704   2.762   1.288  0.00  0.00    +0.260 C 
BRANCH  14  15
ATOM     15  N   LIG    1       -3.997   2.891   0.611  0.00  0.00    -1.120 NA
ATOM     16  H   LIG    1       -4.210   2.317  -0.141  0.00  0.00    +0.420 HD
BRANCH  15  17
ATOM     17  S   LIG    1       -5.095   4.017   1.131  0.00  0.00    +2.790 S 
ATOM     18  O   LIG    1       -5.189   3.865   2.540  0.00  0.00    -0.970 OA
ATOM     19  O   LIG    1       -6.214   3.917   0.261  0.00  0.00    -0.970 OA
BRANCH  17  20
ATOM     20  N   LIG    1       -4.429   5.510   0.865  0.00  0.00    -1.000 NA
ATOM     21  C   LIG    1       -3.614   6.161   1.900  0.00  0.00    +0.280 C 
ATOM     22  C   LIG    1       -4.173   7.558   2.167  0.00  0.00    +0.020 C 
ATOM     23  C   LIG    1       -4.253   8.333   0.850  0.00  0.00    -0.020 C 
ATOM     24  C   LIG    1       -5.198   7.609  -0.113  0.00  0.00    +0.020 C 
ATOM     25  C   LIG    1       -4.783   9.743   1.120  0.00  0.00    +0.030 C 
ATOM     26  C   LIG    1       -4.646   6.211  -0.408  0.00  0.00    +0.280 C 
ENDBRANCH  17  20
ENDBRANCH  15  17
ENDBRANCH  14  15
ENDBRANCH   6  14
TORSDOF 6
