REMARK  Name = ZINCpe000000ZtGh.0
REMARK                            x       y       z     vdW  Elec       q    Type
REMARK                         _______ _______ _______ _____ _____    ______ ____
ROOT
ATOM      1  C   LIG    1        1.280   1.980   0.001  0.00  0.00    +0.190 C 
ENDROOT
BRANCH   1   3
ATOM      2  O   LIG    1        0.019   0.121  -0.723  0.00  0.00    -0.500 OA
ATOM      3  C   LIG    1        0.000   1.205  -0.180  0.00  0.00    +0.560 C 
ATOM      4  N   LIG    1       -1.166   1.720   0.257  0.00  0.00    -0.640 N 
ATOM      5  C   LIG    1       -1.590   2.950   0.943  0.00  0.00    +0.300 C 
ATOM      6  C   LIG    1       -2.965   2.780   0.277  0.00  0.00    +0.260 C 
ATOM      7  C   LIG    1       -2.574   1.296   0.264  0.00  0.00    +0.300 C 
BRANCH   6   8
ATOM      8  N   LIG    1       -4.100   3.095   1.148  0.00  0.00    -0.280 N 
ATOM      9  C   LIG    1       -4.034   3.342   2.477  0.00  0.00    +0.140 A 
ATOM     10  C   LIG    1       -5.303   3.587   2.878  0.00  0.00    +0.150 A 
ATOM     11  N   LIG    1       -6.074   3.471   1.790  0.00  0.00    -0.270 NA
ATOM     12  N   LIG    1       -5.331   3.179   0.782  0.00  0.00    -0.080 NA
ENDBRANCH   6   8
ENDBRANCH   1   3
BRANCH   1  13
ATOM     13  N   LIG    1        2.408   1.044   0.105  0.00  0.00    -0.510 NA
ATOM     14  C   LIG    1        2.220   0.118   1.229  0.00  0.00    +0.170 C 
ATOM     15  C   LIG    1        3.336  -0.930   1.220  0.00  0.00    +0.000 C 
ATOM     16  C   LIG    1        4.691  -0.227   1.335  0.00  0.00    +0.150 C 
ATOM     17  C   LIG    1        4.841   0.768   0.180  0.00  0.00    +0.050 C 
ATOM     18  C   LIG    1        3.682   1.766   0.220  0.00  0.00    +0.190 C 
BRANCH  16  19
ATOM     19  O   LIG    1        5.739  -1.196   1.270  0.00  0.00    -0.570 OA
ATOM     20  H   LIG    1        5.706  -1.859   1.973  0.00  0.00    +0.380 HD
ENDBRANCH  16  19
ENDBRANCH   1  13
BRANCH   1  21
ATOM     21  C   LIG    1        1.489   2.888  -1.184  0.00  0.00    -0.090 A 
ATOM     22  C   LIG    1        2.009   2.381  -2.361  0.00  0.00    +0.060 A 
ATOM     23  C   LIG    1        2.196   3.212  -3.449  0.00  0.00    +0.010 A 
ATOM     24  C   LIG    1        1.873   4.553  -3.357  0.00  0.00    +0.010 A 
ATOM     25  C   LIG    1        1.359   5.061  -2.179  0.00  0.00    +0.010 A 
ATOM     26  C   LIG    1        1.167   4.229  -1.093  0.00  0.00    +0.010 A 
ENDBRANCH   1  21
TORSDOF 5
