REMARK  Name = ZINCtj00000027dQ.0
REMARK                            x       y       z     vdW  Elec       q    Type
REMARK                         _______ _______ _______ _____ _____    ______ ____
ROOT
ATOM      1  N   LIG    1        2.235   8.091   0.343  0.00  0.00    -0.720 N 
ATOM      2  H   LIG    1        3.088   7.629   0.347  0.00  0.00    +0.410 HD
ATOM      3  C   LIG    1        1.089   7.389   0.243  0.00  0.00    +0.520 C 
ATOM      4  O   LIG    1        0.022   7.967   0.238  0.00  0.00    -0.490 OA
ENDROOT
BRANCH   3   5
ATOM      5  C   LIG    1        1.132   5.900   0.139  0.00  0.00    +0.500 C 
ATOM      6  N   LIG    1       -0.015   5.198   0.039  0.00  0.00    -0.630 N 
ATOM      7  H   LIG    1       -0.864   5.663  -0.024  0.00  0.00    +0.430 HD
ATOM      8  O   LIG    1        2.199   5.322   0.144  0.00  0.00    -0.490 OA
BRANCH   6   9
ATOM      9  C   LIG    1        0.021   3.801   0.025  0.00  0.00    +0.100 A 
ATOM     10  C   LIG    1        1.080   3.137  -0.580  0.00  0.00    +0.140 A 
ATOM     11  C   LIG    1        1.111   1.757  -0.591  0.00  0.00    -0.650 A 
ATOM     12  C   LIG    1        0.089   1.035  -0.002  0.00  0.00    +0.130 A 
ATOM     13  C   LIG    1       -0.970   1.693   0.597  0.00  0.00    +0.020 A 
ATOM     14  C   LIG    1       -1.004   3.074   0.617  0.00  0.00    -0.040 A 
ATOM     15  C   LIG    1       -2.156   3.789   1.275  0.00  0.00    +0.110 C 
BRANCH  11  16
ATOM     16  S   LIG    1        2.454   0.913  -1.359  0.00  0.00    +2.500 S 
ATOM     17  O   LIG    1        2.511  -0.339  -0.688  0.00  0.00    -0.930 OA
ATOM     18  O   LIG    1        3.534   1.834  -1.285  0.00  0.00    -0.930 OA
ATOM     19  C   LIG    1        1.925   0.690  -3.079  0.00  0.00    -0.250 C 
ENDBRANCH  11  16
ENDBRANCH   6   9
ENDBRANCH   3   5
BRANCH   1  20
ATOM     20  C   LIG    1        2.193   9.552   0.446  0.00  0.00    +0.320 C 
BRANCH  20  21
ATOM     21  C   LIG    1        3.618  10.107   0.421  0.00  0.00    +0.050 C 
ATOM     22  C   LIG    1        3.576  11.630   0.555  0.00  0.00    +0.110 C 
ATOM     23  C   LIG    1        4.290   9.729  -0.901  0.00  0.00    +0.100 C 
BRANCH  21  27
ATOM     24  C   LIG    1        5.849   9.721   4.032  0.00  0.00    +0.160 C 
ATOM     25  C   LIG    1        6.548   9.501   2.687  0.00  0.00    +0.070 C 
ATOM     26  C   LIG    1        5.719  10.147   1.575  0.00  0.00    +0.270 C 
ATOM     27  N   LIG    1        4.384   9.538   1.539  0.00  0.00    -0.380 N 
ATOM     28  C   LIG    1        3.680   9.807   2.799  0.00  0.00    +0.260 C 
ATOM     29  H   LIG    1        4.473   8.541   1.412  0.00  0.00    +0.420 HD
ATOM     30  C   LIG    1        4.431   9.148   3.958  0.00  0.00    +0.040 C 
BRANCH  24  32
ATOM     31  C   LIG    1        6.478   9.687   6.344  0.00  0.00    +0.230 C 
ATOM     32  O   LIG    1        6.580   9.058   5.065  0.00  0.00    -0.370 OA
ENDBRANCH  24  32
ENDBRANCH  21  27
ENDBRANCH  20  21
ENDBRANCH   1  20
TORSDOF 7
