REMARK  Name = ZINCvU000000094E.0
REMARK                            x       y       z     vdW  Elec       q    Type
REMARK                         _______ _______ _______ _____ _____    ______ ____
ROOT
ATOM      1  C   LIG    1        0.011  -0.009   0.014  0.00  0.00    +0.150 A 
ATOM      2  N   LIG    1        1.079  -0.773   0.002  0.00  0.00    -0.290 NA
ATOM      3  N   LIG    1        0.732  -2.010   0.011  0.00  0.00    -0.270 NA
ATOM      4  C   LIG    1       -0.567  -2.112   0.018  0.00  0.00    +0.200 A 
ATOM      5  N   LIG    1       -1.075  -0.841   0.020  0.00  0.00    -0.400 N 
ENDROOT
BRANCH   5   6
ATOM      6  C   LIG    1       -2.427  -0.469   0.027  0.00  0.00    +0.110 A 
ATOM      7  C   LIG    1       -3.228  -0.778   1.118  0.00  0.00    +0.030 A 
ATOM      8  C   LIG    1       -4.559  -0.406   1.124  0.00  0.00    +0.040 A 
ATOM      9  C   LIG    1       -5.095   0.264   0.040  0.00  0.00    +0.030 A 
ATOM     10  C   LIG    1       -4.301   0.569  -1.050  0.00  0.00    +0.040 A 
ATOM     11  C   LIG    1       -2.969   0.205  -1.059  0.00  0.00    +0.040 A 
ENDBRANCH   5   6
BRANCH   1  12
ATOM     12  S   LIG    1       -0.018   1.753   0.013  0.00  0.00    +0.090 S 
BRANCH  12  14
ATOM     13  C   LIG    1        2.383   1.595   1.307  0.00  0.00    +0.080 C 
ATOM     14  C   LIG    1        1.759   2.096   0.003  0.00  0.00    +0.020 C 
BRANCH  14  15
ATOM     15  C   LIG    1        1.983   3.581  -0.123  0.00  0.00    +0.540 C 
ATOM     16  N   LIG    1        3.135   4.047  -0.646  0.00  0.00    -0.660 N 
ATOM     17  H   LIG    1        3.846   3.430  -0.879  0.00  0.00    +0.420 HD
ATOM     18  O   LIG    1        1.127   4.357   0.246  0.00  0.00    -0.500 OA
BRANCH  16  19
ATOM     19  C   LIG    1        3.304   5.421  -0.853  0.00  0.00    +0.170 A 
ATOM     20  C   LIG    1        4.031   5.875  -1.944  0.00  0.00    +0.020 A 
ATOM     21  C   LIG    1        4.192   7.233  -2.149  0.00  0.00    -0.000 A 
ATOM     22  C   LIG    1        3.639   8.138  -1.261  0.00  0.00    +0.040 A 
ATOM     23  C   LIG    1        2.918   7.688  -0.169  0.00  0.00    -0.010 A 
ATOM     24 CL   LIG    1        2.226   8.827   0.943  0.00  0.00    -0.050 Cl
ATOM     25 CL   LIG    1        5.095   7.802  -3.518  0.00  0.00    -0.050 Cl
ATOM     26  C   LIG    1        2.750   6.331   0.037  0.00  0.00    +0.050 A 
ENDBRANCH  16  19
ENDBRANCH  14  15
ENDBRANCH  12  14
ENDBRANCH   1  12
BRANCH   4  27
ATOM     27  C   LIG    1       -1.362  -3.393   0.022  0.00  0.00    +0.310 C 
BRANCH  27  28
ATOM     28  N   LIG    1       -1.627  -3.809  -1.361  0.00  0.00    -0.510 NA
ATOM     29  C   LIG    1       -0.370  -3.867  -2.150  0.00  0.00    +0.170 C 
ATOM     30  C   LIG    1       -0.740  -4.789  -3.339  0.00  0.00    +0.020 C 
ATOM     31  C   LIG    1       -1.661  -5.844  -2.684  0.00  0.00    +0.010 C 
ATOM     32  C   LIG    1       -2.194  -5.175  -1.404  0.00  0.00    +0.170 C 
ENDBRANCH  27  28
ENDBRANCH   4  27
TORSDOF 7
