REMARK  Name = ZINCrH000004vDeW.0
REMARK                            x       y       z     vdW  Elec       q    Type
REMARK                         _______ _______ _______ _____ _____    ______ ____
ROOT
ATOM      1  C   LIG    1        0.751   2.659  -2.620  0.00  0.00    +0.640 C 
ATOM      2  N   LIG    1        0.658   3.999  -2.724  0.00  0.00    -0.660 N 
ATOM      3  C   LIG    1        0.183   4.749  -3.916  0.00  0.00    +0.260 C 
ATOM      4  C   LIG    1       -1.332   4.899  -3.756  0.00  0.00    +0.000 C 
ATOM      5  C   LIG    1       -1.880   5.952  -4.715  0.00  0.00    +0.020 C 
ATOM      6  C   LIG    1       -1.248   7.304  -4.365  0.00  0.00    +0.020 C 
ATOM      7  C   LIG    1        0.257   7.203  -4.612  0.00  0.00    +0.030 C 
ATOM      8  C   LIG    1        0.905   6.102  -3.795  0.00  0.00    +0.000 C 
ATOM      9  C   LIG    1        0.820   6.384  -2.281  0.00  0.00    +0.060 C 
ATOM     10  C   LIG    1        1.002   4.972  -1.675  0.00  0.00    +0.240 C 
ATOM     11  O   LIG    1        1.394   2.029  -3.438  0.00  0.00    -0.470 OA
ENDROOT
BRANCH   1  14
ATOM     12  O   LIG    1        1.536   2.759   0.052  0.00  0.00    -0.530 OA
ATOM     13  C   LIG    1        0.557   2.074  -0.187  0.00  0.00    +0.540 A 
ATOM     14  C   LIG    1        0.076   1.958  -1.517  0.00  0.00    -0.230 A 
ATOM     15  C   LIG    1       -1.046   1.169  -1.760  0.00  0.00    +0.150 A 
ATOM     16  C   LIG    1       -1.659   0.519  -0.689  0.00  0.00    -0.050 A 
ATOM     17  C   LIG    1       -1.160   0.655   0.567  0.00  0.00    +0.300 A 
ATOM     18  N   LIG    1       -0.073   1.425   0.811  0.00  0.00    -0.500 N 
BRANCH  18  19
ATOM     19  C   LIG    1        0.429   1.549   2.182  0.00  0.00    +0.340 C 
BRANCH  19  20
ATOM     20  C   LIG    1       -0.247   2.738   2.867  0.00  0.00    +0.420 C 
ATOM     21  F   LIG    1        0.040   3.910   2.158  0.00  0.00    -0.150 F 
ATOM     22  F   LIG    1        0.233   2.857   4.176  0.00  0.00    -0.180 F 
ATOM     23  F   LIG    1       -1.631   2.536   2.894  0.00  0.00    -0.180 F 
ENDBRANCH  19  20
ENDBRANCH  18  19
ENDBRANCH   1  14
BRANCH  10  24
ATOM     24  C   LIG    1        0.070   4.795  -0.474  0.00  0.00    +0.420 C 
ATOM     25  F   LIG    1       -0.732   5.932  -0.334  0.00  0.00    -0.180 F 
ATOM     26  F   LIG    1        0.832   4.615   0.685  0.00  0.00    -0.140 F 
ATOM     27  F   LIG    1       -0.742   3.674  -0.676  0.00  0.00    -0.160 F 
ENDBRANCH  10  24
TORSDOF 4
