REMARK  Name = ZINCpe000000Uf1T.1
REMARK                            x       y       z     vdW  Elec       q    Type
REMARK                         _______ _______ _______ _____ _____    ______ ____
ROOT
ATOM      1  C   LIG    1       -0.778   1.605   1.244  0.00  0.00    +0.250 C 
ATOM      2  C   LIG    1       -0.013   1.086   0.008  0.00  0.00    +0.070 C 
ATOM      3  C   LIG    1       -0.801   1.618  -1.207  0.00  0.00    +0.180 C 
ATOM      4  C   LIG    1       -1.978   2.413  -0.604  0.00  0.00    +0.160 C 
ATOM      5  N   LIG    1       -1.513   2.801   0.753  0.00  0.00    -0.470 NA
ENDROOT
BRANCH   1   8
ATOM      6  C   LIG    1        1.300   1.912   4.186  0.00  0.00    +0.290 A 
ATOM      7  N   LIG    1        0.403   1.301   3.456  0.00  0.00    -0.540 NA
ATOM      8  C   LIG    1        0.187   1.990   2.336  0.00  0.00    +0.230 A 
ATOM      9  N   LIG    1        0.951   3.050   2.336  0.00  0.00    -0.270 NA
ATOM     10  N   LIG    1        1.682   3.024   3.535  0.00  0.00    -0.480 N 
ATOM     11  H   LIG    1        2.335   3.677   3.832  0.00  0.00    +0.440 HD
BRANCH   6  13
ATOM     12  C   LIG    1        1.026   2.135   6.641  0.00  0.00    +0.040 C 
ATOM     13  C   LIG    1        1.817   1.449   5.524  0.00  0.00    +0.140 C 
ENDBRANCH   6  13
ENDBRANCH   1   8
BRANCH   3  14
ATOM     14  O   LIG    1       -1.289   0.531  -1.996  0.00  0.00    -0.560 OA
ATOM     15  H   LIG    1       -1.792   0.805  -2.775  0.00  0.00    +0.380 HD
ENDBRANCH   3  14
BRANCH   5  16
ATOM     16  C   LIG    1       -2.649   3.118   1.629  0.00  0.00    +0.210 C 
BRANCH  16  17
ATOM     17  C   LIG    1       -3.287   4.407   1.177  0.00  0.00    +0.520 C 
ATOM     18  N   LIG    1       -4.355   4.897   1.837  0.00  0.00    -0.730 N 
ATOM     19  H   LIG    1       -4.712   4.421   2.602  0.00  0.00    +0.410 HD
ATOM     20  O   LIG    1       -2.839   5.002   0.220  0.00  0.00    -0.500 OA
BRANCH  18  21
ATOM     21  C   LIG    1       -4.975   6.150   1.397  0.00  0.00    +0.280 C 
ATOM     22  C   LIG    1       -3.946   7.280   1.467  0.00  0.00    +0.040 C 
ATOM     23  C   LIG    1       -4.594   8.588   1.008  0.00  0.00    +0.020 C 
ATOM     24  C   LIG    1       -5.777   8.918   1.920  0.00  0.00    +0.020 C 
ATOM     25  C   LIG    1       -6.806   7.788   1.851  0.00  0.00    +0.020 C 
ATOM     26  C   LIG    1       -6.158   6.480   2.310  0.00  0.00    +0.050 C 
BRANCH  21  27
ATOM     27  C   LIG    1       -5.450   6.003   0.012  0.00  0.00    +0.210 C 
ATOM     28  N   LIG    1       -5.816   5.889  -1.057  0.00  0.00    -0.410 NA
ENDBRANCH  21  27
ENDBRANCH  18  21
ENDBRANCH  16  17
ENDBRANCH   5  16
TORSDOF 7
