REMARK  Name = ZINCpe000000Uf1T.0
REMARK                            x       y       z     vdW  Elec       q    Type
REMARK                         _______ _______ _______ _____ _____    ______ ____
ROOT
ATOM      1  C   LIG    1        3.690   1.752  -0.265  0.00  0.00    +0.230 C 
ATOM      2  C   LIG    1        4.777   0.794   0.270  0.00  0.00    +0.070 C 
ATOM      3  C   LIG    1        4.057  -0.088   1.310  0.00  0.00    +0.180 C 
ATOM      4  C   LIG    1        2.596   0.409   1.317  0.00  0.00    +0.160 C 
ATOM      5  N   LIG    1        2.410   1.040  -0.015  0.00  0.00    -0.460 NA
ENDROOT
BRANCH   1   9
ATOM      6  C   LIG    1        4.508   2.805  -3.645  0.00  0.00    +0.180 A 
ATOM      7  N   LIG    1        3.728   1.777  -3.842  0.00  0.00    -0.290 NA
ATOM      8  N   LIG    1        3.355   1.293  -2.711  0.00  0.00    -0.250 NA
ATOM      9  C   LIG    1        3.880   1.990  -1.740  0.00  0.00    +0.170 A 
ATOM     10  N   LIG    1        4.622   2.973  -2.306  0.00  0.00    -0.580 N 
ATOM     11  H   LIG    1        5.134   3.656  -1.845  0.00  0.00    +0.430 HD
BRANCH   6  13
ATOM     12  C   LIG    1        5.965   2.756  -5.651  0.00  0.00    +0.050 C 
ATOM     13  C   LIG    1        5.156   3.651  -4.710  0.00  0.00    +0.140 C 
ENDBRANCH   6  13
ENDBRANCH   1   9
BRANCH   3  14
ATOM     14  O   LIG    1        4.648   0.083   2.600  0.00  0.00    -0.560 OA
ATOM     15  H   LIG    1        4.236  -0.449   3.295  0.00  0.00    +0.380 HD
ENDBRANCH   3  14
BRANCH   5  16
ATOM     16  C   LIG    1        1.280   1.980   0.001  0.00  0.00    +0.210 C 
BRANCH  16  17
ATOM     17  C   LIG    1       -0.014   1.209   0.009  0.00  0.00    +0.520 C 
ATOM     18  N   LIG    1       -1.191   1.867   0.018  0.00  0.00    -0.730 N 
ATOM     19  H   LIG    1       -1.204   2.837   0.023  0.00  0.00    +0.410 HD
ATOM     20  O   LIG    1        0.002  -0.004   0.002  0.00  0.00    -0.500 OA
BRANCH  18  21
ATOM     21  C   LIG    1       -2.449   1.117   0.020  0.00  0.00    +0.280 C 
ATOM     22  C   LIG    1       -2.524   0.243  -1.234  0.00  0.00    +0.060 C 
ATOM     23  C   LIG    1       -3.839  -0.540  -1.232  0.00  0.00    +0.020 C 
ATOM     24  C   LIG    1       -5.015   0.439  -1.221  0.00  0.00    +0.020 C 
ATOM     25  C   LIG    1       -4.940   1.312   0.033  0.00  0.00    +0.020 C 
ATOM     26  C   LIG    1       -3.626   2.095   0.031  0.00  0.00    +0.050 C 
BRANCH  21  27
ATOM     27  C   LIG    1       -2.510   0.263   1.217  0.00  0.00    +0.210 C 
ATOM     28  N   LIG    1       -2.557  -0.396   2.142  0.00  0.00    -0.410 NA
ENDBRANCH  21  27
ENDBRANCH  18  21
ENDBRANCH  16  17
ENDBRANCH   5  16
TORSDOF 7
