REMARK  Name = ZINCqH0000031J37.0
REMARK                            x       y       z     vdW  Elec       q    Type
REMARK                         _______ _______ _______ _____ _____    ______ ____
ROOT
ATOM      1  C   LIG    1       -1.569   4.157  -1.359  0.00  0.00    +0.060 C 
ENDROOT
BRANCH   1   2
ATOM      2  C   LIG    1       -1.217   3.630   0.034  0.00  0.00    +0.320 C 
ATOM      3  C   LIG    1       -2.245   4.108   1.023  0.00  0.00    -0.100 A 
ATOM      4  C   LIG    1       -2.110   5.332   1.639  0.00  0.00    +0.030 A 
ATOM      5  C   LIG    1       -3.086   5.777   2.516  0.00  0.00    +0.010 A 
ATOM      6  C   LIG    1       -4.201   4.999   2.773  0.00  0.00    +0.020 A 
ATOM      7  C   LIG    1       -4.344   3.767   2.167  0.00  0.00    +0.020 A 
ATOM      8  C   LIG    1       -3.356   3.306   1.299  0.00  0.00    -0.030 A 
ATOM      9  C   LIG    1       -3.477   1.989   0.645  0.00  0.00    -0.040 C 
ATOM     10  C   LIG    1       -2.415   1.468   0.019  0.00  0.00    +0.240 C 
ATOM     11  N   LIG    1       -1.211   2.162   0.017  0.00  0.00    -0.560 N 
ATOM     12  C   LIG    1       -0.043   1.491   0.004  0.00  0.00    +0.510 C 
ATOM     13  O   LIG    1        1.007   2.099  -0.003  0.00  0.00    -0.480 OA
ATOM     14  C   LIG    1       -0.040  -0.016  -0.007  0.00  0.00    +0.100 C 
ENDBRANCH   1   2
BRANCH   1  17
ATOM     15  N   LIG    1       -0.578   4.135  -3.625  0.00  0.00    -0.670 N 
ATOM     16  H   LIG    1       -1.382   4.569  -3.950  0.00  0.00    +0.420 HD
ATOM     17  C   LIG    1       -0.481   3.775  -2.330  0.00  0.00    +0.500 C 
ATOM     18  O   LIG    1        0.480   3.143  -1.946  0.00  0.00    -0.480 OA
BRANCH  15  24
ATOM     19  C   LIG    1        0.239   3.753  -5.877  0.00  0.00    -0.220 A 
ATOM     20  C   LIG    1        1.310   3.501  -6.742  0.00  0.00    +0.090 A 
ATOM     21  C   LIG    1        2.586   3.383  -6.237  0.00  0.00    -0.030 A 
ATOM     22  C   LIG    1        2.817   3.512  -4.877  0.00  0.00    +0.070 A 
ATOM     23  C   LIG    1        1.772   3.767  -4.011  0.00  0.00    +0.000 A 
ATOM     24  C   LIG    1        0.477   3.884  -4.497  0.00  0.00    +0.220 A 
BRANCH  19  26
ATOM     25  C   LIG    1       -1.392   3.629  -7.867  0.00  0.00    +0.090 C 
ATOM     26  C   LIG    1       -1.124   3.881  -6.406  0.00  0.00    +0.400 C 
ATOM     27  O   LIG    1       -2.036   4.189  -5.667  0.00  0.00    -0.470 OA
ENDBRANCH  19  26
ENDBRANCH  15  24
ENDBRANCH   1  17
TORSDOF 4
