REMARK  Name = ZINCrD000000Cfpl.0
REMARK                            x       y       z     vdW  Elec       q    Type
REMARK                         _______ _______ _______ _____ _____    ______ ____
ROOT
ATOM      1  O   LIG    1        0.276   5.642   0.031  0.00  0.00    -0.520 OA
ATOM      2  C   LIG    1       -0.934   5.528   0.041  0.00  0.00    +0.710 C 
ATOM      3  N   LIG    1       -1.715   6.626   0.054  0.00  0.00    -0.740 N 
ATOM      4  H   LIG    1       -2.681   6.535   0.063  0.00  0.00    +0.390 HD
ATOM      5  N   LIG    1       -1.495   4.302   0.039  0.00  0.00    -0.650 N 
ATOM      6  H   LIG    1       -2.461   4.211   0.048  0.00  0.00    +0.410 HD
ENDROOT
BRANCH   3   7
ATOM      7  C   LIG    1       -1.105   7.958   0.056  0.00  0.00    +0.270 C 
ATOM      8  C   LIG    1       -0.774   8.369   1.495  0.00  0.00    +0.010 C 
ATOM      9  C   LIG    1       -2.072   8.463   2.301  0.00  0.00    +0.210 C 
ATOM     10  O   LIG    1       -2.953   9.400   1.676  0.00  0.00    -0.370 OA
ATOM     11  C   LIG    1       -3.334   9.044   0.346  0.00  0.00    +0.200 C 
ATOM     12  C   LIG    1       -2.087   8.972  -0.539  0.00  0.00    +0.030 C 
BRANCH  11  13
ATOM     13  C   LIG    1       -4.279  10.082  -0.201  0.00  0.00    -0.140 A 
ATOM     14  C   LIG    1       -5.369   9.704  -0.970  0.00  0.00    +0.060 A 
ATOM     15  C   LIG    1       -6.215  10.694  -1.447  0.00  0.00    -0.030 A 
ATOM     16  C   LIG    1       -5.940  12.015  -1.152  0.00  0.00    +0.260 A 
ATOM     17  N   LIG    1       -4.891  12.339  -0.420  0.00  0.00    -0.480 NA
ATOM     18  C   LIG    1       -4.068  11.424   0.055  0.00  0.00    +0.290 A 
ENDBRANCH  11  13
ENDBRANCH   3   7
BRANCH   5  19
ATOM     19  C   LIG    1       -0.691   3.170   0.026  0.00  0.00    +0.460 A 
ATOM     20  N   LIG    1        0.621   3.161   0.013  0.00  0.00    -0.460 NA
ATOM     21  C   LIG    1        1.057   1.891   0.002  0.00  0.00    +0.180 A 
ATOM     22  C   LIG    1       -0.013   1.076   0.008  0.00  0.00    +0.120 A 
ATOM     23  N   LIG    1       -1.130   1.880   0.017  0.00  0.00    -0.430 N 
BRANCH  23  24
ATOM     24  C   LIG    1       -2.465   1.454   0.020  0.00  0.00    +0.120 A 
ATOM     25  C   LIG    1       -3.358   1.968   0.950  0.00  0.00    +0.000 A 
ATOM     26  C   LIG    1       -4.675   1.551   0.946  0.00  0.00    +0.040 A 
ATOM     27  C   LIG    1       -5.101   0.612   0.025  0.00  0.00    +0.020 A 
ATOM     28  C   LIG    1       -4.213   0.093  -0.899  0.00  0.00    +0.040 A 
ATOM     29  C   LIG    1       -2.896   0.511  -0.904  0.00  0.00    +0.020 A 
ENDBRANCH  23  24
ENDBRANCH   5  19
TORSDOF 4
