REMARK  Name = ZINCkj000005m4RB.0
REMARK                            x       y       z     vdW  Elec       q    Type
REMARK                         _______ _______ _______ _____ _____    ______ ____
ROOT
ATOM      1  O   LIG    1        0.002  -0.004   0.002  0.00  0.00    -0.510 OA
ATOM      2  C   LIG    1       -0.014   1.209   0.009  0.00  0.00    +0.520 C 
ATOM      3  N   LIG    1        1.143   1.898   0.001  0.00  0.00    -0.610 N 
ATOM      4  C   LIG    1        1.149   3.370   0.009  0.00  0.00    +0.240 C 
ATOM      5  C   LIG    1        2.065   3.856  -1.120  0.00  0.00    +0.230 C 
ATOM      6  O   LIG    1        3.338   3.216  -1.002  0.00  0.00    -0.360 OA
ATOM      7  C   LIG    1        3.293   1.794  -1.142  0.00  0.00    +0.210 C 
ATOM      8  C   LIG    1        2.440   1.202  -0.009  0.00  0.00    +0.290 C 
ENDROOT
BRANCH   7   9
ATOM      9  C   LIG    1        4.691   1.236  -1.062  0.00  0.00    -0.130 A 
ATOM     10  C   LIG    1        5.677   1.937  -0.395  0.00  0.00    +0.080 A 
ATOM     11  C   LIG    1        6.958   1.422  -0.316  0.00  0.00    +0.010 A 
ATOM     12  C   LIG    1        7.256   0.212  -0.914  0.00  0.00    +0.060 A 
ATOM     13  C   LIG    1        6.272  -0.488  -1.586  0.00  0.00    -0.010 A 
ATOM     14  C   LIG    1        4.988   0.023  -1.661  0.00  0.00    +0.110 A 
ATOM     15  F   LIG    1        4.025  -0.660  -2.317  0.00  0.00    -0.140 F 
ENDBRANCH   7   9
BRANCH   2  16
ATOM     16  C   LIG    1       -1.330   1.944   0.019  0.00  0.00    +0.000 C 
ATOM     17  C   LIG    1       -2.503   0.943   0.019  0.00  0.00    +0.100 C 
ATOM     18  C   LIG    1       -3.270   1.224   1.329  0.00  0.00    +0.280 C 
ATOM     19  N   LIG    1       -2.927   2.629   1.670  0.00  0.00    -0.520 N 
ATOM     20  H   LIG    1       -3.074   2.799   2.654  0.00  0.00    +0.440 HD
ATOM     21  H   LIG    1       -3.474   3.270   1.115  0.00  0.00    +0.440 HD
ATOM     22  C   LIG    1       -1.486   2.746   1.329  0.00  0.00    +0.290 C 
ENDBRANCH   2  16
TORSDOF 2
