REMARK  Name = ZINCqH0000038Ldw.0
REMARK                            x       y       z     vdW  Elec       q    Type
REMARK                         _______ _______ _______ _____ _____    ______ ____
ROOT
ATOM      1  C   LIG    1       -0.535   1.266  -3.626  0.00  0.00    +0.510 C 
ATOM      2  N   LIG    1        0.053   1.380  -2.419  0.00  0.00    -0.720 N 
ATOM      3  H   LIG    1        1.018   1.317  -2.342  0.00  0.00    +0.400 HD
ATOM      4  O   LIG    1       -1.742   1.345  -3.722  0.00  0.00    -0.530 OA
ENDROOT
BRANCH   2   5
ATOM      5  C   LIG    1       -0.764   1.598  -1.223  0.00  0.00    +0.290 C 
ATOM      6  C   LIG    1       -0.013   1.086   0.008  0.00  0.00    -0.000 C 
ATOM      7  C   LIG    1       -0.742   1.586   1.262  0.00  0.00    +0.250 C 
ATOM      8  O   LIG    1       -0.656   3.011   1.294  0.00  0.00    -0.320 OA
ATOM      9  C   LIG    1       -0.982   3.693   0.165  0.00  0.00    +0.140 A 
ATOM     10  C   LIG    1       -1.251   5.054   0.266  0.00  0.00    -0.020 A 
ATOM     11  C   LIG    1       -1.577   5.783  -0.859  0.00  0.00    +0.050 A 
ATOM     12  C   LIG    1       -1.637   5.160  -2.092  0.00  0.00    -0.040 A 
ATOM     13  C   LIG    1       -1.371   3.809  -2.196  0.00  0.00    +0.060 A 
ATOM     14  C   LIG    1       -1.044   3.072  -1.070  0.00  0.00    -0.180 A 
ENDBRANCH   2   5
BRANCH   1  15
ATOM     15  C   LIG    1        0.306   1.042  -4.856  0.00  0.00    +0.050 C 
BRANCH  15  16
ATOM     16  C   LIG    1       -0.602   0.950  -6.085  0.00  0.00    +0.130 C 
BRANCH  16  23
ATOM     17  C   LIG    1        0.618   3.207  -7.945  0.00  0.00    +0.150 C 
ATOM     18  C   LIG    1        0.778   1.721  -8.136  0.00  0.00    +0.080 A 
ATOM     19  N   LIG    1        1.448   1.139  -9.098  0.00  0.00    -0.300 NA
ATOM     20  N   LIG    1        1.348  -0.248  -8.924  0.00  0.00    -0.370 N 
ATOM     21  C   LIG    1        0.602  -0.475  -7.823  0.00  0.00    +0.090 A 
ATOM     22  C   LIG    1        0.237  -1.825  -7.261  0.00  0.00    +0.130 C 
ATOM     23  C   LIG    1        0.239   0.725  -7.315  0.00  0.00    -0.240 A 
BRANCH  20  24
ATOM     24  C   LIG    1        1.948  -1.270  -9.785  0.00  0.00    +0.320 C 
BRANCH  24  25
ATOM     25  C   LIG    1        0.965  -1.641 -10.897  0.00  0.00    -0.030 C 
ATOM     26  C   LIG    1       -0.271  -2.303 -10.284  0.00  0.00    +0.020 C 
ATOM     27  C   LIG    1        1.636  -2.615 -11.867  0.00  0.00    +0.030 C 
ENDBRANCH  24  25
ENDBRANCH  20  24
ENDBRANCH  16  23
ENDBRANCH  15  16
ENDBRANCH   1  15
TORSDOF 6
