REMARK  Name = ZINCvU0000000Hov.0
REMARK                            x       y       z     vdW  Elec       q    Type
REMARK                         _______ _______ _______ _____ _____    ______ ____
ROOT
ATOM      1  C   LIG    1        7.428  -1.713  -5.349  0.00  0.00    +0.460 A 
ATOM      2  N   LIG    1        7.739  -2.600  -4.445  0.00  0.00    -0.550 NA
ATOM      3  C   LIG    1        8.575  -3.615  -4.719  0.00  0.00    +0.540 A 
ATOM      4  C   LIG    1        9.147  -3.718  -6.075  0.00  0.00    -0.220 A 
ATOM      5  C   LIG    1        8.782  -2.750  -6.993  0.00  0.00    +0.060 A 
ATOM      6  S   LIG    1        9.569  -3.055  -8.534  0.00  0.00    +0.190 S 
ATOM      7  C   LIG    1       10.378  -4.484  -7.918  0.00  0.00    -0.040 A 
ATOM      8  C   LIG    1       10.065  -4.697  -6.640  0.00  0.00    +0.010 A 
ATOM      9  O   LIG    1        8.856  -4.437  -3.862  0.00  0.00    -0.460 OA
ATOM     10  N   LIG    1        7.911  -1.757  -6.600  0.00  0.00    -0.590 N 
ATOM     11  H   LIG    1        7.646  -1.075  -7.238  0.00  0.00    +0.420 HD
ENDROOT
BRANCH   8  12
ATOM     12  C   LIG    1       10.604  -5.837  -5.860  0.00  0.00    -0.040 A 
ATOM     13  C   LIG    1       11.182  -5.618  -4.611  0.00  0.00    +0.060 A 
ATOM     14  C   LIG    1       11.678  -6.683  -3.886  0.00  0.00    +0.000 A 
ATOM     15  C   LIG    1       11.612  -7.964  -4.404  0.00  0.00    +0.010 A 
ATOM     16  C   LIG    1       11.045  -8.187  -5.646  0.00  0.00    -0.010 A 
ATOM     17  C   LIG    1       10.541  -7.130  -6.376  0.00  0.00    +0.020 A 
ENDBRANCH   8  12
BRANCH   1  18
ATOM     18  C   LIG    1        6.483  -0.600  -4.976  0.00  0.00    +0.140 C 
BRANCH  18  19
ATOM     19  S   LIG    1        5.983  -0.787  -3.243  0.00  0.00    -0.060 S 
BRANCH  19  21
ATOM     20  C   LIG    1        5.655   1.926  -3.119  0.00  0.00    +0.080 C 
ATOM     21  C   LIG    1        4.868   0.621  -2.986  0.00  0.00    -0.020 C 
BRANCH  21  22
ATOM     22  C   LIG    1        4.263   0.538  -1.608  0.00  0.00    +0.540 C 
ATOM     23  N   LIG    1        3.078   1.128  -1.355  0.00  0.00    -0.720 N 
ATOM     24  H   LIG    1        2.614   1.606  -2.061  0.00  0.00    +0.400 HD
ATOM     25  O   LIG    1        4.843  -0.060  -0.726  0.00  0.00    -0.510 OA
BRANCH  23  26
ATOM     26  C   LIG    1        2.490   1.047  -0.016  0.00  0.00    +0.330 C 
BRANCH  26  27
ATOM     27  C   LIG    1        1.175   1.783   0.000  0.00  0.00    -0.100 A 
ATOM     28  C   LIG    1       -0.013   1.076   0.008  0.00  0.00    +0.050 A 
ATOM     29  C   LIG    1       -1.219   1.751   0.017  0.00  0.00    +0.010 A 
ATOM     30  C   LIG    1       -1.239   3.133   0.030  0.00  0.00    +0.030 A 
ATOM     31  C   LIG    1       -0.052   3.841   0.022  0.00  0.00    +0.030 A 
ATOM     32  C   LIG    1        1.156   3.166   0.008  0.00  0.00    -0.020 A 
ATOM     33 CL   LIG    1        2.647   4.055  -0.001  0.00  0.00    -0.060 Cl
ENDBRANCH  26  27
ENDBRANCH  23  26
ENDBRANCH  21  22
ENDBRANCH  19  21
ENDBRANCH  18  19
ENDBRANCH   1  18
TORSDOF 7
