REMARK  Name = ZINCqH0000051D0d.1
REMARK                            x       y       z     vdW  Elec       q    Type
REMARK                         _______ _______ _______ _____ _____    ______ ____
ROOT
ATOM      1  O   LIG    1        2.153   9.046   0.047  0.00  0.00    -0.540 OA
ATOM      2  C   LIG    1        1.715   8.401   0.981  0.00  0.00    +0.560 C 
ATOM      3  N   LIG    1        1.012   7.274   0.750  0.00  0.00    -0.610 N 
ATOM      4  C   LIG    1        0.688   6.861  -0.623  0.00  0.00    +0.280 C 
ATOM      5  C   LIG    1       -0.824   6.641  -0.728  0.00  0.00    +0.030 C 
ATOM      6  C   LIG    1       -1.267   5.647   0.348  0.00  0.00    +0.070 C 
ATOM      7  C   LIG    1       -0.958   6.221   1.733  0.00  0.00    +0.030 C 
ATOM      8  C   LIG    1        0.553   6.436   1.866  0.00  0.00    +0.270 C 
ENDROOT
BRANCH   2   9
ATOM      9  C   LIG    1        1.953   8.851   2.365  0.00  0.00    -0.140 A 
ATOM     10  C   LIG    1        1.591  10.150   2.757  0.00  0.00    +0.140 A 
ATOM     11  N   LIG    1        1.012  11.206   2.099  0.00  0.00    -0.580 N 
ATOM     12  H   LIG    1        0.742  11.200   1.167  0.00  0.00    +0.420 HD
ATOM     13  C   LIG    1        0.872  12.267   2.949  0.00  0.00    +0.080 A 
ATOM     14  C   LIG    1        1.348  11.937   4.164  0.00  0.00    -0.170 A 
ATOM     15  C   LIG    1        1.364  12.855   5.359  0.00  0.00    +0.090 C 
ATOM     16  C   LIG    1        1.150  14.292   4.869  0.00  0.00    +0.020 C 
ATOM     17  C   LIG    1       -0.061  14.333   3.933  0.00  0.00    +0.030 C 
ATOM     18  C   LIG    1        0.281  13.619   2.620  0.00  0.00    +0.100 C 
ATOM     19  C   LIG    1        1.827  10.560   4.083  0.00  0.00    -0.100 A 
ATOM     20  C   LIG    1        2.414   9.677   4.991  0.00  0.00    +0.080 A 
ATOM     21  C   LIG    1        2.763   8.405   4.591  0.00  0.00    -0.020 A 
ATOM     22  C   LIG    1        2.534   7.988   3.292  0.00  0.00    +0.060 A 
ENDBRANCH   2   9
BRANCH   6  23
ATOM     23  C   LIG    1       -2.749   5.402   0.226  0.00  0.00    -0.020 A 
ATOM     24  C   LIG    1       -3.684   6.301  -0.136  0.00  0.00    +0.150 A 
ATOM     25  N   LIG    1       -4.876   5.686  -0.127  0.00  0.00    -0.490 NA
ATOM     26  C   LIG    1       -4.716   4.442   0.234  0.00  0.00    +0.390 A 
ATOM     27  N   LIG    1       -3.403   4.223   0.461  0.00  0.00    -0.570 N 
ATOM     28  H   LIG    1       -2.999   3.386   0.739  0.00  0.00    +0.420 HD
ENDBRANCH   6  23
TORSDOF 2
