REMARK  Name = ZINCqH0000051D0d.0
REMARK                            x       y       z     vdW  Elec       q    Type
REMARK                         _______ _______ _______ _____ _____    ______ ____
ROOT
ATOM      1  O   LIG    1       -1.914   5.579  -4.338  0.00  0.00    -0.540 OA
ATOM      2  C   LIG    1       -2.022   6.556  -3.622  0.00  0.00    +0.570 C 
ATOM      3  N   LIG    1       -2.420   7.733  -4.144  0.00  0.00    -0.600 N 
ATOM      4  C   LIG    1       -2.804   7.832  -5.559  0.00  0.00    +0.270 C 
ATOM      5  C   LIG    1       -4.204   8.457  -5.643  0.00  0.00    +0.030 C 
ATOM      6  C   LIG    1       -4.206   9.793  -4.896  0.00  0.00    +0.090 C 
ATOM      7  C   LIG    1       -3.873   9.556  -3.422  0.00  0.00    +0.030 C 
ATOM      8  C   LIG    1       -2.474   8.942  -3.311  0.00  0.00    +0.280 C 
ENDROOT
BRANCH   2   9
ATOM      9  C   LIG    1       -1.718   6.453  -2.182  0.00  0.00    -0.150 A 
ATOM     10  C   LIG    1       -2.313   5.469  -1.372  0.00  0.00    +0.150 A 
ATOM     11  N   LIG    1       -3.204   4.480  -1.646  0.00  0.00    -0.580 N 
ATOM     12  H   LIG    1       -3.587   4.301  -2.519  0.00  0.00    +0.420 HD
ATOM     13  C   LIG    1       -3.481   3.773  -0.504  0.00  0.00    +0.070 A 
ATOM     14  C   LIG    1       -2.781   4.284   0.530  0.00  0.00    -0.160 A 
ATOM     15  C   LIG    1       -2.839   3.759   1.942  0.00  0.00    +0.100 C 
ATOM     16  C   LIG    1       -4.083   2.874   2.082  0.00  0.00    +0.020 C 
ATOM     17  C   LIG    1       -4.118   1.864   0.931  0.00  0.00    +0.030 C 
ATOM     18  C   LIG    1       -4.420   2.596  -0.381  0.00  0.00    +0.100 C 
ATOM     19  C   LIG    1       -2.005   5.391   0.011  0.00  0.00    -0.110 A 
ATOM     20  C   LIG    1       -1.107   6.282   0.607  0.00  0.00    +0.090 A 
ATOM     21  C   LIG    1       -0.534   7.243  -0.210  0.00  0.00    -0.030 A 
ATOM     22  C   LIG    1       -0.825   7.330  -1.557  0.00  0.00    +0.060 A 
ENDBRANCH   2   9
BRANCH   6  23
ATOM     23  C   LIG    1       -5.568  10.428  -5.007  0.00  0.00    +0.010 A 
ATOM     24  C   LIG    1       -6.746   9.776  -5.032  0.00  0.00    +0.120 A 
ATOM     25  N   LIG    1       -7.724  10.728  -5.137  0.00  0.00    -0.570 N 
ATOM     26  H   LIG    1       -8.680  10.569  -5.176  0.00  0.00    +0.420 HD
ATOM     27  C   LIG    1       -7.109  11.929  -5.182  0.00  0.00    +0.400 A 
ATOM     28  N   LIG    1       -5.820  11.742  -5.104  0.00  0.00    -0.490 NA
ENDBRANCH   6  23
TORSDOF 2
