REMARK  Name = ZINCvU0000000JiH.0
REMARK                            x       y       z     vdW  Elec       q    Type
REMARK                         _______ _______ _______ _____ _____    ______ ____
ROOT
ATOM      1  C   LIG    1        1.790   1.338  -0.831  0.00  0.00    +0.560 C 
ATOM      2  N   LIG    1        2.825   1.705  -0.050  0.00  0.00    -0.590 N 
ATOM      3  O   LIG    1        1.445   0.173  -0.875  0.00  0.00    -0.520 OA
ENDROOT
BRANCH   1   7
ATOM      4  C   LIG    1       -0.273   4.254  -3.142  0.00  0.00    -0.140 A 
ATOM      5  C   LIG    1        0.133   3.055  -3.731  0.00  0.00    +0.070 A 
ATOM      6  C   LIG    1        0.796   2.108  -2.981  0.00  0.00    +0.060 A 
ATOM      7  C   LIG    1        1.072   2.352  -1.635  0.00  0.00    -0.090 A 
ATOM      8  C   LIG    1        0.671   3.553  -1.046  0.00  0.00    +0.030 A 
ATOM      9  C   LIG    1        0.004   4.498  -1.794  0.00  0.00    +0.080 A 
BRANCH   4  11
ATOM     10  O   LIG    1       -1.164   6.385  -3.499  0.00  0.00    -0.440 OA
ATOM     11  C   LIG    1       -0.990   5.268  -3.945  0.00  0.00    +0.440 C 
BRANCH  11  12
ATOM     12  C   LIG    1       -1.493   4.924  -5.290  0.00  0.00    -0.160 A 
ATOM     13  C   LIG    1       -1.534   5.894  -6.295  0.00  0.00    +0.060 A 
ATOM     14  C   LIG    1       -2.001   5.565  -7.549  0.00  0.00    +0.000 A 
ATOM     15  C   LIG    1       -2.438   4.278  -7.813  0.00  0.00    +0.040 A 
ATOM     16  C   LIG    1       -2.405   3.313  -6.822  0.00  0.00    +0.000 A 
ATOM     17  C   LIG    1       -1.936   3.627  -5.563  0.00  0.00    +0.060 A 
ENDBRANCH  11  12
ENDBRANCH   4  11
ENDBRANCH   1   7
BRANCH   2  18
ATOM     18  C   LIG    1        3.151   3.124   0.114  0.00  0.00    +0.320 C 
BRANCH  18  19
ATOM     19  C   LIG    1        3.424   3.412   1.568  0.00  0.00    -0.110 A 
ATOM     20  C   LIG    1        2.373   3.635   2.438  0.00  0.00    +0.020 A 
ATOM     21  C   LIG    1        2.623   3.894   3.772  0.00  0.00    +0.000 A 
ATOM     22  C   LIG    1        3.925   3.941   4.235  0.00  0.00    +0.010 A 
ATOM     23  C   LIG    1        4.976   3.723   3.364  0.00  0.00    +0.010 A 
ATOM     24  C   LIG    1        4.726   3.459   2.030  0.00  0.00    +0.010 A 
ENDBRANCH  18  19
ENDBRANCH   2  18
BRANCH   2  25
ATOM     25  C   LIG    1        3.624   0.686   0.634  0.00  0.00    +0.340 C 
BRANCH  25  26
ATOM     26  C   LIG    1        4.769   0.267  -0.252  0.00  0.00    -0.110 A 
ATOM     27  C   LIG    1        4.611  -0.787  -1.132  0.00  0.00    +0.030 A 
ATOM     28  C   LIG    1        5.659  -1.169  -1.948  0.00  0.00    +0.000 A 
ATOM     29  C   LIG    1        6.868  -0.504  -1.877  0.00  0.00    +0.010 A 
ATOM     30  C   LIG    1        7.028   0.547  -0.993  0.00  0.00    +0.000 A 
ATOM     31  C   LIG    1        5.978   0.932  -0.180  0.00  0.00    +0.010 A 
ENDBRANCH  25  26
ENDBRANCH   2  25
TORSDOF 7
