REMARK  Name = ZINCnE00000ej4QU.0
REMARK                            x       y       z     vdW  Elec       q    Type
REMARK                         _______ _______ _______ _____ _____    ______ ____
ROOT
ATOM      1  N   LIG    1       -6.234   1.359  -0.134  0.00  0.00    -0.490 N 
ATOM      2  C   LIG    1       -6.735   1.732   1.166  0.00  0.00    +0.160 C 
ATOM      3  C   LIG    1       -6.393   3.192   1.519  0.00  0.00    +0.010 C 
ATOM      4  C   LIG    1       -4.959   3.575   1.097  0.00  0.00    +0.010 C 
ATOM      5  C   LIG    1       -3.952   2.495   1.387  0.00  0.00    +0.000 C 
ATOM      6  C   LIG    1       -3.813   1.594   0.139  0.00  0.00    -0.010 C 
ATOM      7  C   LIG    1       -4.935   0.670   0.018  0.00  0.00    +0.190 C 
ENDROOT
BRANCH   1  15
ATOM      8  C   LIG    1       -9.072  -4.323   1.261  0.00  0.00    +0.130 C 
ATOM      9  C   LIG    1       -8.547  -3.017   0.723  0.00  0.00    +0.180 A 
ATOM     10  N   LIG    1       -8.973  -2.590  -0.443  0.00  0.00    -0.470 NA
ATOM     11  C   LIG    1       -8.534  -1.441  -0.966  0.00  0.00    +0.320 A 
ATOM     12  N   LIG    1       -8.964  -1.026  -2.163  0.00  0.00    -0.480 NA
ATOM     13  C   LIG    1       -8.546   0.100  -2.696  0.00  0.00    +0.340 A 
ATOM     14  C   LIG    1       -7.635   0.923  -2.051  0.00  0.00    -0.020 A 
ATOM     15  C   LIG    1       -7.144   0.559  -0.806  0.00  0.00    +0.180 A 
ATOM     16  C   LIG    1       -7.599  -0.658  -0.247  0.00  0.00    -0.190 A 
ATOM     17  C   LIG    1       -7.149  -1.103   1.005  0.00  0.00    +0.100 A 
ATOM     18  C   LIG    1       -7.633  -2.291   1.480  0.00  0.00    -0.040 A 
ENDBRANCH   1  15
BRANCH   6  19
ATOM     19  C   LIG    1       -2.514   0.792   0.244  0.00  0.00    +0.030 C 
BRANCH  19  20
ATOM     20  C   LIG    1       -1.322   1.751   0.247  0.00  0.00    -0.060 C 
BRANCH  20  21
ATOM     21  C   LIG    1       -0.043   0.961   0.350  0.00  0.00    +0.490 C 
ATOM     22  O   LIG    1        1.031   1.538   0.363  0.00  0.00    -0.710 OA
ATOM     23  O   LIG    1       -0.081  -0.256   0.415  0.00  0.00    -0.700 OA
ENDBRANCH  20  21
ENDBRANCH  19  20
ENDBRANCH   6  19
TORSDOF 4
