REMARK  Name = ZINCrH00000No4Si.0
REMARK                            x       y       z     vdW  Elec       q    Type
REMARK                         _______ _______ _______ _____ _____    ______ ____
ROOT
ATOM      1  N   LIG    1        0.589  -0.319  -0.991  0.00  0.00    -0.530 NA
ENDROOT
BRANCH   1   2
ATOM      2  C   LIG    1        1.160  -1.660  -0.807  0.00  0.00    +0.220 C 
BRANCH   2   3
ATOM      3  C   LIG    1        2.460  -1.554  -0.007  0.00  0.00    +0.060 C 
BRANCH   3   7
ATOM      4  C   LIG    1        4.896  -4.384   0.837  0.00  0.00    +0.290 C 
ATOM      5  N   LIG    1        4.269  -3.063   0.748  0.00  0.00    -0.740 N 
ATOM      6  H   LIG    1        4.691  -2.297   1.167  0.00  0.00    +0.400 HD
ATOM      7  C   LIG    1        3.105  -2.913   0.085  0.00  0.00    +0.510 C 
ATOM      8  O   LIG    1        2.578  -3.871  -0.439  0.00  0.00    -0.540 OA
ENDBRANCH   3   7
ENDBRANCH   2   3
ENDBRANCH   1   2
BRANCH   1   9
ATOM      9  C   LIG    1       -0.016   0.171   0.255  0.00  0.00    +0.230 C 
BRANCH   9  10
ATOM     10  C   LIG    1       -0.369   1.628   0.102  0.00  0.00    -0.100 C 
ATOM     11  C   LIG    1       -1.595   1.978  -0.264  0.00  0.00    +0.000 C 
ATOM     12  C   LIG    1        0.672   2.687   0.360  0.00  0.00    +0.080 C 
BRANCH  11  13
ATOM     13  C   LIG    1       -1.906   3.396  -0.541  0.00  0.00    -0.070 A 
ATOM     14  C   LIG    1       -0.978   4.202  -1.200  0.00  0.00    +0.060 A 
ATOM     15  C   LIG    1       -1.275   5.525  -1.456  0.00  0.00    -0.010 A 
ATOM     16  C   LIG    1       -2.490   6.056  -1.061  0.00  0.00    +0.050 A 
ATOM     17  C   LIG    1       -3.418   5.267  -0.407  0.00  0.00    -0.060 A 
ATOM     18  C   LIG    1       -3.137   3.936  -0.147  0.00  0.00    +0.110 A 
BRANCH  18  19
ATOM     19  O   LIG    1       -4.050   3.158   0.490  0.00  0.00    -0.320 OA
BRANCH  19  20
ATOM     20  C   LIG    1       -5.283   3.777   0.862  0.00  0.00    +0.590 C 
ATOM     21  F   LIG    1       -5.930   4.253  -0.284  0.00  0.00    -0.200 F 
ATOM     22  F   LIG    1       -5.027   4.844   1.729  0.00  0.00    -0.200 F 
ENDBRANCH  19  20
ENDBRANCH  18  19
ENDBRANCH  11  13
ENDBRANCH   9  10
ENDBRANCH   1   9
BRANCH   1  23
ATOM     23  C   LIG    1       -0.387  -0.309  -2.089  0.00  0.00    +0.290 C 
BRANCH  23  24
ATOM     24  C   LIG    1        0.337  -0.426  -3.406  0.00  0.00    +0.060 A 
ATOM     25  N   LIG    1        0.525  -1.528  -4.050  0.00  0.00    -0.470 NA
ATOM     26  C   LIG    1        1.177  -1.452  -5.193  0.00  0.00    +0.210 A 
ATOM     27  C   LIG    1        1.568  -0.219  -5.526  0.00  0.00    -0.080 A 
ATOM     28  S   LIG    1        1.034   0.882  -4.259  0.00  0.00    +0.140 S 
ENDBRANCH  23  24
ENDBRANCH   1  23
TORSDOF 10
