REMARK  Name = ZINCrH00000No4SI.1
REMARK                            x       y       z     vdW  Elec       q    Type
REMARK                         _______ _______ _______ _____ _____    ______ ____
ROOT
ATOM      1  N   LIG    1        3.355   4.010   1.332  0.00  0.00    -0.530 NA
ATOM      2  C   LIG    1        1.992   3.623   1.723  0.00  0.00    +0.180 C 
ATOM      3  C   LIG    1        1.724   4.090   3.155  0.00  0.00    +0.180 C 
ATOM      4  N   LIG    1        1.897   5.547   3.233  0.00  0.00    -0.540 NA
ATOM      5  C   LIG    1        3.260   5.934   2.842  0.00  0.00    +0.180 C 
ATOM      6  C   LIG    1        3.528   5.467   1.409  0.00  0.00    +0.190 C 
ENDROOT
BRANCH   1   7
ATOM      7  C   LIG    1        3.678   3.512  -0.012  0.00  0.00    +0.230 C 
BRANCH   7  11
ATOM      8  C   LIG    1        4.190  -0.759   0.114  0.00  0.00    +0.130 A 
ATOM      9  C   LIG    1        3.066  -0.194  -0.418  0.00  0.00    +0.010 A 
ATOM     10  C   LIG    1        2.907   1.189  -0.455  0.00  0.00    +0.030 A 
ATOM     11  C   LIG    1        3.869   2.018   0.038  0.00  0.00    -0.060 A 
ATOM     12  C   LIG    1        5.039   1.474   0.593  0.00  0.00    -0.070 A 
ATOM     13  C   LIG    1        6.055   2.299   1.112  0.00  0.00    +0.100 A 
ATOM     14  C   LIG    1        7.166   1.700   1.635  0.00  0.00    -0.040 A 
ATOM     15  C   LIG    1        7.268   0.311   1.644  0.00  0.00    +0.290 A 
ATOM     16  N   LIG    1        6.319  -0.453   1.160  0.00  0.00    -0.460 NA
ATOM     17  C   LIG    1        5.208   0.069   0.634  0.00  0.00    +0.100 A 
BRANCH   8  18
ATOM     18  O   LIG    1        4.327  -2.110   0.142  0.00  0.00    -0.480 OA
ATOM     19  H   LIG    1        3.981  -2.524   0.944  0.00  0.00    +0.390 HD
ENDBRANCH   8  18
ENDBRANCH   7  11
ENDBRANCH   1   7
BRANCH   4  20
ATOM     20  C   LIG    1        1.574   6.045   4.577  0.00  0.00    +0.210 C 
BRANCH  20  21
ATOM     21  C   LIG    1        0.279   5.430   5.042  0.00  0.00    -0.020 C 
ATOM     22  C   LIG    1        0.233   4.775   6.194  0.00  0.00    +0.000 C 
BRANCH  22  23
ATOM     23  C   LIG    1       -1.037   4.172   6.651  0.00  0.00    -0.060 A 
ATOM     24  C   LIG    1       -2.190   4.295   5.875  0.00  0.00    +0.010 A 
ATOM     25  C   LIG    1       -3.370   3.724   6.303  0.00  0.00    +0.000 A 
ATOM     26  C   LIG    1       -3.415   3.041   7.506  0.00  0.00    +0.000 A 
ATOM     27  C   LIG    1       -2.277   2.921   8.283  0.00  0.00    +0.000 A 
ATOM     28  C   LIG    1       -1.089   3.482   7.862  0.00  0.00    +0.010 A 
ENDBRANCH  22  23
ENDBRANCH  20  21
ENDBRANCH   4  20
TORSDOF 6
