REMARK  Name = ZINCkj00000dDw9X.0
REMARK                            x       y       z     vdW  Elec       q    Type
REMARK                         _______ _______ _______ _____ _____    ______ ____
ROOT
ATOM      1  C   LIG    1       -2.104   1.844  -0.815  0.00  0.00    +0.170 C 
ATOM      2  C   LIG    1       -0.684   1.561  -1.383  0.00  0.00    +0.040 C 
ATOM      3  C   LIG    1        0.091   1.073  -0.141  0.00  0.00    +0.190 C 
ATOM      4  N   LIG    1       -0.614   1.587   1.048  0.00  0.00    -0.430 N 
ATOM      5  C   LIG    1       -1.773   2.386   0.598  0.00  0.00    +0.210 C 
ENDROOT
BRANCH   4   6
ATOM      6  C   LIG    1        0.235   2.344   1.839  0.00  0.00    +0.450 A 
ATOM      7  N   LIG    1        0.989   1.736   2.742  0.00  0.00    -0.480 NA
ATOM      8  C   LIG    1        1.814   2.429   3.511  0.00  0.00    +0.330 A 
ATOM      9  C   LIG    1        1.874   3.808   3.369  0.00  0.00    +0.000 A 
ATOM     10  C   LIG    1        1.065   4.411   2.416  0.00  0.00    +0.340 A 
ATOM     11  F   LIG    1        2.701   4.546   4.141  0.00  0.00    -0.110 F 
ATOM     12  N   LIG    1        0.267   3.658   1.677  0.00  0.00    -0.520 NA
ENDBRANCH   4   6
BRANCH   1  14
ATOM     13  C   LIG    1       -4.205   2.772  -1.502  0.00  0.00    +0.230 C 
ATOM     14  O   LIG    1       -2.780   2.831  -1.596  0.00  0.00    -0.370 OA
ENDBRANCH   1  14
BRANCH   3  15
ATOM     15  C   LIG    1        1.521   1.616  -0.174  0.00  0.00    +0.230 C 
BRANCH  15  16
ATOM     16  N   LIG    1        2.276   0.944  -1.240  0.00  0.00    -0.390 N 
ATOM     17  C   LIG    1        1.672   1.245  -2.563  0.00  0.00    +0.260 C 
ATOM     18  C   LIG    1        2.834   0.977  -3.552  0.00  0.00    +0.080 C 
ATOM     19  C   LIG    1        4.071   1.492  -2.780  0.00  0.00    +0.070 C 
ATOM     20  C   LIG    1        3.656   1.471  -1.297  0.00  0.00    +0.250 C 
ATOM     21  H   LIG    1        2.290  -0.053  -1.081  0.00  0.00    +0.430 HD
ENDBRANCH  15  16
ENDBRANCH   3  15
TORSDOF 4
