REMARK  Name = ZINCrD00000F5LzI.0
REMARK                            x       y       z     vdW  Elec       q    Type
REMARK                         _______ _______ _______ _____ _____    ______ ____
ROOT
ATOM      1  C   LIG    1       -9.648  -0.589   0.675  0.00  0.00    -0.670 A 
ATOM      2  C   LIG    1       -9.675   0.794   0.684  0.00  0.00    +0.120 A 
ATOM      3  C   LIG    1       -8.501   1.511   0.579  0.00  0.00    +0.030 A 
ATOM      4  C   LIG    1       -7.282   0.836   0.464  0.00  0.00    -0.020 A 
ATOM      5  C   LIG    1       -7.264  -0.562   0.450  0.00  0.00    +0.020 A 
ATOM      6  C   LIG    1       -8.445  -1.265   0.561  0.00  0.00    +0.120 A 
ENDROOT
BRANCH   1   7
ATOM      7  S   LIG    1      -11.153  -1.496   0.809  0.00  0.00    +2.690 S 
ATOM      8  O   LIG    1      -12.085  -0.633   1.446  0.00  0.00    -0.950 OA
ATOM      9  O   LIG    1      -10.806  -2.777   1.318  0.00  0.00    -0.950 OA
BRANCH   7  10
ATOM     10  N   LIG    1      -11.716  -1.741  -0.728  0.00  0.00    -1.000 NA
BRANCH  10  12
ATOM     11  C   LIG    1      -12.380  -4.024  -1.303  0.00  0.00    +0.010 C 
ATOM     12  C   LIG    1      -11.316  -2.937  -1.474  0.00  0.00    +0.280 C 
ENDBRANCH  10  12
BRANCH  10  13
ATOM     13  C   LIG    1      -12.616  -0.761  -1.343  0.00  0.00    +0.290 C 
ATOM     14  C   LIG    1      -11.800   0.218  -2.190  0.00  0.00    +0.010 C 
ENDBRANCH  10  13
ENDBRANCH   7  10
ENDBRANCH   1   7
BRANCH   4  15
ATOM     15  C   LIG    1       -6.025   1.593   0.352  0.00  0.00    +0.120 C 
ATOM     16  C   LIG    1       -4.851   0.939   0.241  0.00  0.00    -0.060 C 
BRANCH  16  17
ATOM     17  C   LIG    1       -3.601   1.692   0.130  0.00  0.00    +0.550 C 
ATOM     18  N   LIG    1       -2.428   1.038   0.019  0.00  0.00    -0.670 N 
ATOM     19  H   LIG    1       -2.417   0.072  -0.064  0.00  0.00    +0.410 HD
ATOM     20  O   LIG    1       -3.621   2.909   0.137  0.00  0.00    -0.520 OA
BRANCH  18  21
ATOM     21  C   LIG    1       -1.224   1.754   0.023  0.00  0.00    +0.110 A 
ATOM     22  C   LIG    1       -1.107   2.912   0.781  0.00  0.00    +0.060 A 
ATOM     23  C   LIG    1        0.082   3.613   0.789  0.00  0.00    +0.010 A 
ATOM     24  C   LIG    1        1.158   3.164   0.038  0.00  0.00    +0.120 A 
ATOM     25  C   LIG    1        1.040   2.010  -0.723  0.00  0.00    -0.060 A 
ATOM     26  C   LIG    1       -0.148   1.308  -0.733  0.00  0.00    +0.030 A 
BRANCH  24  27
ATOM     27  O   LIG    1        2.329   3.856   0.047  0.00  0.00    -0.320 OA
ATOM     28  C   LIG    1        3.395   3.336  -0.750  0.00  0.00    +0.250 C 
ENDBRANCH  24  27
ENDBRANCH  18  21
ENDBRANCH  16  17
ENDBRANCH   4  15
TORSDOF 8
