REMARK  Name = ZINCrH000004rnzX.0
REMARK                            x       y       z     vdW  Elec       q    Type
REMARK                         _______ _______ _______ _____ _____    ______ ____
ROOT
ATOM      1  C   LIG    1        0.178   1.133   0.206  0.00  0.00    +0.100 C 
ATOM      2  C   LIG    1       -0.631   1.467   1.433  0.00  0.00    +0.010 A 
ATOM      3  C   LIG    1       -0.010   1.566   2.663  0.00  0.00    +0.020 A 
ATOM      4  C   LIG    1       -0.748   1.873   3.790  0.00  0.00    +0.080 A 
ATOM      5  C   LIG    1       -2.117   2.081   3.685  0.00  0.00    +0.120 A 
ATOM      6  C   LIG    1       -2.739   1.980   2.447  0.00  0.00    +0.100 A 
ATOM      7  C   LIG    1       -1.994   1.679   1.324  0.00  0.00    -0.660 A 
ENDROOT
BRANCH   5   8
ATOM      8  N   LIG    1       -2.869   2.391   4.824  0.00  0.00    -0.680 N 
ATOM      9  H   LIG    1       -3.782   2.075   4.903  0.00  0.00    +0.410 HD
ATOM     10  C   LIG    1       -2.323   3.130   5.810  0.00  0.00    +0.510 C 
ATOM     11  O   LIG    1       -1.216   3.604   5.671  0.00  0.00    -0.520 OA
BRANCH  10  12
ATOM     12  C   LIG    1       -3.089   3.366   7.086  0.00  0.00    +0.070 C 
BRANCH  12  13
ATOM     13  C   LIG    1       -2.251   4.228   8.032  0.00  0.00    +0.090 C 
BRANCH  13  14
ATOM     14  C   LIG    1       -3.017   4.464   9.308  0.00  0.00    -0.090 A 
ATOM     15  C   LIG    1       -3.847   5.564   9.423  0.00  0.00    +0.000 A 
ATOM     16  C   LIG    1       -4.553   5.778  10.592  0.00  0.00    +0.000 A 
ATOM     17  C   LIG    1       -4.422   4.898  11.650  0.00  0.00    +0.000 A 
ATOM     18  C   LIG    1       -3.588   3.801  11.537  0.00  0.00    +0.000 A 
ATOM     19  C   LIG    1       -2.886   3.584  10.366  0.00  0.00    +0.000 A 
ENDBRANCH  13  14
ENDBRANCH  12  13
ENDBRANCH  10  12
ENDBRANCH   5   8
BRANCH   7  20
ATOM     20  S   LIG    1       -2.780   1.559  -0.248  0.00  0.00    +2.690 S 
ATOM     21  O   LIG    1       -1.958   2.268  -1.164  0.00  0.00    -0.950 OA
ATOM     22  O   LIG    1       -4.151   1.866  -0.035  0.00  0.00    -0.950 OA
BRANCH  20  23
ATOM     23  N   LIG    1       -2.723  -0.032  -0.704  0.00  0.00    -0.990 NA
ATOM     24  C   LIG    1       -1.663  -0.517  -1.598  0.00  0.00    +0.290 C 
ATOM     25  C   LIG    1       -0.972  -1.716  -0.931  0.00  0.00    +0.010 C 
ATOM     26  C   LIG    1       -2.024  -2.770  -0.574  0.00  0.00    +0.020 C 
ATOM     27  C   LIG    1       -3.025  -2.177   0.419  0.00  0.00    +0.010 C 
ATOM     28  C   LIG    1       -3.736  -0.984  -0.228  0.00  0.00    +0.290 C 
ENDBRANCH  20  23
ENDBRANCH   7  20
TORSDOF 6
