REMARK  Name = ZINCpe000000U98Z.0
REMARK                            x       y       z     vdW  Elec       q    Type
REMARK                         _______ _______ _______ _____ _____    ______ ____
ROOT
ATOM      1  N   LIG    1       -1.335  -0.847   0.220  0.00  0.00    -0.730 N 
ATOM      2  H   LIG    1       -2.015  -0.216  -0.063  0.00  0.00    +0.400 HD
ATOM      3  C   LIG    1       -1.693  -2.056   0.696  0.00  0.00    +0.710 C 
ATOM      4  N   LIG    1       -2.996  -2.354   0.868  0.00  0.00    -0.630 N 
ATOM      5  C   LIG    1       -4.041  -1.411   0.446  0.00  0.00    +0.280 C 
ATOM      6  C   LIG    1       -5.021  -2.150  -0.478  0.00  0.00    +0.030 C 
ATOM      7  C   LIG    1       -5.549  -3.395   0.239  0.00  0.00    +0.240 C 
ATOM      8  C   LIG    1       -4.385  -4.335   0.556  0.00  0.00    +0.030 C 
ATOM      9  C   LIG    1       -3.398  -3.624   1.488  0.00  0.00    +0.310 C 
ATOM     10  O   LIG    1       -0.840  -2.878   0.969  0.00  0.00    -0.580 OA
ENDROOT
BRANCH   7  11
ATOM     11  N   LIG    1       -6.511  -4.084  -0.625  0.00  0.00    -0.460 N 
ATOM     12  C   LIG    1       -7.827  -4.331  -0.340  0.00  0.00    +0.110 A 
ATOM     13  C   LIG    1       -8.340  -4.982  -1.401  0.00  0.00    +0.140 A 
ATOM     14  N   LIG    1       -7.364  -5.130  -2.309  0.00  0.00    -0.490 NA
ATOM     15  C   LIG    1       -6.268  -4.588  -1.853  0.00  0.00    +0.380 A 
ENDBRANCH   7  11
BRANCH   1  16
ATOM     16  C   LIG    1        0.082  -0.485   0.131  0.00  0.00    +0.260 C 
BRANCH  16  17
ATOM     17  C   LIG    1        0.221   1.015   0.177  0.00  0.00    +0.520 C 
ATOM     18  N   LIG    1        1.364   1.572   0.624  0.00  0.00    -0.610 N 
ATOM     19  C   LIG    1        2.526   0.740   0.976  0.00  0.00    +0.250 C 
ATOM     20  C   LIG    1        3.759   1.309   0.256  0.00  0.00    +0.220 C 
ATOM     21  O   LIG    1        3.867   2.705   0.545  0.00  0.00    -0.380 OA
ATOM     22  C   LIG    1        2.767   3.488   0.076  0.00  0.00    +0.220 C 
ATOM     23  C   LIG    1        1.485   3.030   0.781  0.00  0.00    +0.260 C 
ATOM     24  O   LIG    1       -0.693   1.720  -0.194  0.00  0.00    -0.530 OA
ENDBRANCH  16  17
BRANCH  16  26
ATOM     25  C   LIG    1        0.634  -2.541  -1.178  0.00  0.00    +0.030 C 
ATOM     26  C   LIG    1        0.660  -1.011  -1.185  0.00  0.00    +0.010 C 
ENDBRANCH  16  26
ENDBRANCH   1  16
TORSDOF 4
