REMARK  Name = ZINCpe000027pGS8.0
REMARK                            x       y       z     vdW  Elec       q    Type
REMARK                         _______ _______ _______ _____ _____    ______ ____
ROOT
ATOM      1  C   LIG    1       -4.309   4.426   8.798  0.00  0.00    +0.110 C 
ATOM      2  C   LIG    1       -4.427   5.603   7.793  0.00  0.00    +0.080 C 
ATOM      3  C   LIG    1       -3.738   5.048   6.529  0.00  0.00    +0.260 C 
ATOM      4  N   LIG    1       -3.773   3.581   6.621  0.00  0.00    -0.610 N 
ATOM      5  C   LIG    1       -3.254   2.725   5.718  0.00  0.00    +0.620 C 
ATOM      6  O   LIG    1       -3.342   1.524   5.898  0.00  0.00    -0.550 OA
ATOM      7  C   LIG    1       -4.475   3.201   7.860  0.00  0.00    +0.250 C 
ENDROOT
BRANCH   5   8
ATOM      8  C   LIG    1       -2.584   3.239   4.521  0.00  0.00    -0.320 A 
ATOM      9  C   LIG    1       -1.996   2.475   3.494  0.00  0.00    +0.170 A 
ATOM     10  C   LIG    1       -1.865   1.096   3.288  0.00  0.00    +0.050 A 
ATOM     11  C   LIG    1       -1.228   0.646   2.168  0.00  0.00    +0.090 A 
ATOM     12  C   LIG    1       -0.718   1.572   1.248  0.00  0.00    -0.130 A 
ATOM     13  C   LIG    1       -0.851   2.899   1.470  0.00  0.00    +0.140 A 
ATOM     14  C   LIG    1       -0.291   3.881   0.473  0.00  0.00    +0.150 C 
ATOM     15  C   LIG    1       -0.013   1.086   0.008  0.00  0.00    +0.140 C 
ATOM     16  N   LIG    1       -1.490   3.357   2.582  0.00  0.00    -0.260 N 
ATOM     17  N   LIG    1       -1.762   4.653   3.039  0.00  0.00    -0.320 NA
ATOM     18  C   LIG    1       -2.404   4.590   4.177  0.00  0.00    +0.310 A 
ENDBRANCH   5   8
BRANCH   1  19
ATOM     19  O   LIG    1       -3.029   4.421   9.433  0.00  0.00    -0.540 OA
ATOM     20  H   LIG    1       -2.909   3.704  10.070  0.00  0.00    +0.380 HD
ENDBRANCH   1  19
BRANCH   1  21
ATOM     21  C   LIG    1       -5.433   4.476   9.835  0.00  0.00    +0.270 C 
BRANCH  21  23
ATOM     22  C   LIG    1       -6.173   3.192  11.769  0.00  0.00    +0.550 C 
ATOM     23  N   LIG    1       -5.290   3.353  10.764  0.00  0.00    -0.730 N 
ATOM     24  H   LIG    1       -4.559   2.724  10.657  0.00  0.00    +0.400 HD
ATOM     25  O   LIG    1       -7.090   3.980  11.904  0.00  0.00    -0.540 OA
BRANCH  22  27
ATOM     26  C   LIG    1       -6.902   1.907  13.694  0.00  0.00    +0.150 C 
ATOM     27  C   LIG    1       -6.029   2.064  12.703  0.00  0.00    -0.090 C 
ENDBRANCH  22  27
ENDBRANCH  21  23
ENDBRANCH   1  21
TORSDOF 5
