REMARK  Name = ZINCtV000002AO7k.0
REMARK                            x       y       z     vdW  Elec       q    Type
REMARK                         _______ _______ _______ _____ _____    ______ ____
ROOT
ATOM      1  C   LIG    1        5.803   2.801  -0.139  0.00  0.00    +0.140 C 
ATOM      2  C   LIG    1        4.872   1.823   0.044  0.00  0.00    -0.010 C 
ENDROOT
BRANCH   2   3
ATOM      3  C   LIG    1        5.246   0.408  -0.125  0.00  0.00    +0.160 A 
ATOM      4  N   LIG    1        4.442  -0.592   0.030  0.00  0.00    -0.440 NA
ATOM      5  C   LIG    1        4.932  -1.828  -0.164  0.00  0.00    +0.080 A 
ATOM      6  C   LIG    1        4.266  -3.070  -0.062  0.00  0.00    +0.080 A 
ATOM      7  C   LIG    1        4.933  -4.234  -0.293  0.00  0.00    +0.030 A 
ATOM      8  C   LIG    1        6.278  -4.226  -0.631  0.00  0.00    +0.040 A 
ATOM      9  C   LIG    1        6.955  -3.031  -0.738  0.00  0.00    +0.060 A 
ATOM     10  C   LIG    1        6.290  -1.830  -0.506  0.00  0.00    -0.170 A 
ATOM     11  S   LIG    1        6.852  -0.161  -0.560  0.00  0.00    +0.070 S 
ENDBRANCH   2   3
BRANCH   2  12
ATOM     12  C   LIG    1        3.490   2.181   0.411  0.00  0.00    +0.170 A 
ATOM     13  N   LIG    1        2.437   1.836  -0.253  0.00  0.00    -0.440 NA
ATOM     14  C   LIG    1        1.241   2.239   0.209  0.00  0.00    +0.080 A 
ATOM     15  C   LIG    1       -0.043   1.996  -0.328  0.00  0.00    +0.080 A 
ATOM     16  C   LIG    1       -1.153   2.495   0.282  0.00  0.00    +0.030 A 
ATOM     17  C   LIG    1       -1.049   3.241   1.447  0.00  0.00    +0.040 A 
ATOM     18  C   LIG    1        0.189   3.494   1.994  0.00  0.00    +0.050 A 
ATOM     19  C   LIG    1        1.338   2.997   1.382  0.00  0.00    -0.170 A 
ATOM     20  S   LIG    1        3.039   3.137   1.816  0.00  0.00    +0.080 S 
ENDBRANCH   2  12
BRANCH   1  24
ATOM     21  C   LIG    1        4.626   6.877  -0.109  0.00  0.00    +0.130 A 
ATOM     22  C   LIG    1        3.729   5.899  -0.518  0.00  0.00    -0.060 A 
ATOM     23  C   LIG    1        4.109   4.575  -0.535  0.00  0.00    +0.070 A 
ATOM     24  C   LIG    1        5.398   4.211  -0.128  0.00  0.00    -0.110 A 
ATOM     25  C   LIG    1        6.302   5.199   0.284  0.00  0.00    +0.080 A 
ATOM     26  C   LIG    1        5.915   6.524   0.292  0.00  0.00    +0.070 A 
BRANCH  21  28
ATOM     27  C   LIG    1        2.914   8.473  -0.522  0.00  0.00    +0.250 C 
ATOM     28  O   LIG    1        4.248   8.182  -0.100  0.00  0.00    -0.300 OA
ENDBRANCH  21  28
BRANCH  26  29
ATOM     29  O   LIG    1        6.789   7.486   0.691  0.00  0.00    -0.480 OA
ATOM     30  H   LIG    1        7.326   7.852  -0.025  0.00  0.00    +0.390 HD
ENDBRANCH  26  29
ENDBRANCH   1  24
TORSDOF 5
