REMARK  Name = ZINCvU0000000Gr4.0
REMARK                            x       y       z     vdW  Elec       q    Type
REMARK                         _______ _______ _______ _____ _____    ______ ____
ROOT
ATOM      1  C   LIG    1        0.186   6.067  -1.169  0.00  0.00    +0.160 A 
ATOM      2  C   LIG    1       -0.470   7.255  -1.175  0.00  0.00    -0.150 A 
ATOM      3  C   LIG    1        0.470   8.258  -1.673  0.00  0.00    -0.070 A 
ATOM      4  C   LIG    1        0.385   9.633  -1.902  0.00  0.00    +0.020 A 
ATOM      5  C   LIG    1        1.468  10.307  -2.394  0.00  0.00    -0.010 A 
ATOM      6  C   LIG    1        2.651   9.636  -2.668  0.00  0.00    +0.030 A 
ATOM      7  C   LIG    1        2.757   8.279  -2.449  0.00  0.00    +0.000 A 
ATOM      8  C   LIG    1        1.669   7.572  -1.950  0.00  0.00    +0.110 A 
ATOM      9  N   LIG    1        1.468   6.246  -1.634  0.00  0.00    -0.580 N 
ATOM     10  H   LIG    1        2.131   5.544  -1.727  0.00  0.00    +0.420 HD
ENDROOT
BRANCH   1  14
ATOM     11  C   LIG    1       -1.476   2.359   0.086  0.00  0.00    +0.110 A 
ATOM     12  C   LIG    1       -1.732   3.514   0.810  0.00  0.00    -0.030 A 
ATOM     13  C   LIG    1       -1.194   4.719   0.405  0.00  0.00    +0.030 A 
ATOM     14  C   LIG    1       -0.391   4.777  -0.734  0.00  0.00    -0.040 A 
ATOM     15  C   LIG    1       -0.128   3.613  -1.460  0.00  0.00    -0.020 A 
ATOM     16  C   LIG    1       -0.674   2.410  -1.052  0.00  0.00    +0.110 A 
BRANCH  11  18
ATOM     17  C   LIG    1       -2.820   1.194   1.664  0.00  0.00    +0.240 C 
ATOM     18  O   LIG    1       -2.007   1.174   0.489  0.00  0.00    -0.300 OA
ENDBRANCH  11  18
BRANCH  16  19
ATOM     19  O   LIG    1       -0.424   1.276  -1.760  0.00  0.00    -0.300 OA
ATOM     20  C   LIG    1        0.406   1.402  -2.916  0.00  0.00    +0.230 C 
ENDBRANCH  16  19
ENDBRANCH   1  14
BRANCH   2  21
ATOM     21  C   LIG    1       -1.895   7.495  -0.747  0.00  0.00    +0.130 C 
BRANCH  21  22
ATOM     22  C   LIG    1       -1.907   8.230   0.569  0.00  0.00    -0.090 A 
ATOM     23  C   LIG    1       -1.193   9.405   0.709  0.00  0.00    +0.060 A 
ATOM     24  C   LIG    1       -1.208  10.084   1.913  0.00  0.00    -0.010 A 
ATOM     25  C   LIG    1       -1.930   9.580   2.982  0.00  0.00    +0.110 A 
ATOM     26  C   LIG    1       -2.640   8.400   2.842  0.00  0.00    -0.010 A 
ATOM     27  F   LIG    1       -1.941  10.239   4.161  0.00  0.00    -0.140 F 
ATOM     28  C   LIG    1       -2.628   7.726   1.635  0.00  0.00    +0.060 A 
ENDBRANCH  21  22
BRANCH  21  29
ATOM     29  C   LIG    1       -2.611   8.334  -1.807  0.00  0.00    +0.270 C 
BRANCH  29  30
ATOM     30  N   LIG    1       -2.471   7.690  -3.115  0.00  0.00    -0.020 N 
ATOM     31  O   LIG    1       -1.389   7.256  -3.468  0.00  0.00    -0.120 OA
ATOM     32  O   LIG    1       -3.436   7.589  -3.851  0.00  0.00    -0.180 OA
ENDBRANCH  29  30
ENDBRANCH  21  29
ENDBRANCH   2  21
TORSDOF 7
