REMARK  Name = ZINCrD0000071snP.0
REMARK                            x       y       z     vdW  Elec       q    Type
REMARK                         _______ _______ _______ _____ _____    ______ ____
ROOT
ATOM      1  C   LIG    1       -7.130   3.451   1.328  0.00  0.00    +0.530 C 
ATOM      2  O   LIG    1       -8.111   2.735   1.325  0.00  0.00    -0.500 OA
ENDROOT
BRANCH   1   8
ATOM      3  N   LIG    1       -2.099   1.077   1.278  0.00  0.00    -0.380 N 
ATOM      4  N   LIG    1       -2.462  -0.273   1.259  0.00  0.00    -0.230 NA
ATOM      5  C   LIG    1       -3.759  -0.390   1.270  0.00  0.00    +0.310 A 
ATOM      6  C   LIG    1       -4.322   0.957   1.288  0.00  0.00    -0.240 A 
ATOM      7  C   LIG    1       -5.622   1.467   1.300  0.00  0.00    +0.240 A 
ATOM      8  C   LIG    1       -5.780   2.854   1.316  0.00  0.00    -0.230 A 
ATOM      9  C   LIG    1       -4.642   3.672   1.319  0.00  0.00    +0.410 A 
ATOM     10  N   LIG    1       -3.433   3.161   1.308  0.00  0.00    -0.510 NA
ATOM     11  C   LIG    1       -3.228   1.848   1.292  0.00  0.00    +0.340 A 
BRANCH   3  13
ATOM     12  C   LIG    1       -0.003   1.100   0.019  0.00  0.00    +0.050 C 
ATOM     13  C   LIG    1       -0.726   1.586   1.277  0.00  0.00    +0.270 C 
ATOM     14  C   LIG    1        0.009   1.073   2.517  0.00  0.00    +0.050 C 
ENDBRANCH   3  13
ENDBRANCH   1   8
BRANCH   1  15
ATOM     15  O   LIG    1       -7.273   4.791   1.343  0.00  0.00    -0.320 OA
BRANCH  15  16
ATOM     16  C   LIG    1       -8.630   5.308   1.355  0.00  0.00    +0.200 C 
ATOM     17  C   LIG    1       -9.099   5.475   2.802  0.00  0.00    +0.070 C 
BRANCH  16  18
ATOM     18  C   LIG    1       -8.664   6.644   0.659  0.00  0.00    +0.520 C 
ATOM     19  N   LIG    1       -9.826   7.317   0.548  0.00  0.00    -0.670 N 
ATOM     20  H   LIG    1      -10.652   6.912   0.857  0.00  0.00    +0.420 HD
ATOM     21  O   LIG    1       -7.645   7.114   0.198  0.00  0.00    -0.490 OA
BRANCH  19  22
ATOM     22  C   LIG    1       -9.841   8.600  -0.011  0.00  0.00    +0.170 A 
ATOM     23  C   LIG    1      -10.727   9.556   0.468  0.00  0.00    -0.010 A 
ATOM     24  C   LIG    1      -10.737  10.824  -0.081  0.00  0.00    +0.070 A 
ATOM     25  C   LIG    1       -9.874  11.138  -1.115  0.00  0.00    -0.030 A 
ATOM     26  C   LIG    1       -8.993  10.185  -1.599  0.00  0.00    +0.120 A 
ATOM     27  F   LIG    1       -8.151  10.495  -2.609  0.00  0.00    -0.130 F 
ATOM     28  C   LIG    1       -8.975   8.916  -1.049  0.00  0.00    -0.010 A 
ENDBRANCH  19  22
ENDBRANCH  16  18
ENDBRANCH  15  16
ENDBRANCH   1  15
TORSDOF 6
