REMARK  Name = ZINCpe00000bcT7X.0
REMARK                            x       y       z     vdW  Elec       q    Type
REMARK                         _______ _______ _______ _____ _____    ______ ____
ROOT
ATOM      1  C   LIG    1       -6.595   3.404  -2.527  0.00  0.00    +0.520 C 
ATOM      2  N   LIG    1       -6.934   4.707  -2.591  0.00  0.00    -0.620 N 
ATOM      3  C   LIG    1       -6.389   5.677  -1.630  0.00  0.00    +0.310 C 
ATOM      4  C   LIG    1       -5.802   6.859  -2.418  0.00  0.00    +0.210 C 
ATOM      5  N   LIG    1       -6.826   7.393  -3.326  0.00  0.00    -0.470 N 
ATOM      6  C   LIG    1       -7.223   6.394  -4.327  0.00  0.00    +0.210 C 
ATOM      7  C   LIG    1       -7.864   5.194  -3.621  0.00  0.00    +0.290 C 
ATOM      8  O   LIG    1       -5.778   3.030  -1.712  0.00  0.00    -0.530 OA
ENDROOT
BRANCH   1  13
ATOM      9  C   LIG    1       -9.256  -1.140  -3.853  0.00  0.00    +0.550 C 
ATOM     10  N   LIG    1       -8.620   0.027  -4.080  0.00  0.00    -0.610 N 
ATOM     11  C   LIG    1       -9.367   1.291  -4.120  0.00  0.00    +0.290 C 
ATOM     12  C   LIG    1       -8.717   2.274  -3.135  0.00  0.00    +0.040 C 
ATOM     13  C   LIG    1       -7.230   2.413  -3.467  0.00  0.00    -0.010 C 
ATOM     14  C   LIG    1       -6.543   1.054  -3.316  0.00  0.00    +0.050 C 
ATOM     15  C   LIG    1       -7.168   0.057  -4.297  0.00  0.00    +0.280 C 
ATOM     16  O   LIG    1       -8.617  -2.168  -3.734  0.00  0.00    -0.540 OA
BRANCH   9  18
ATOM     17  C   LIG    1      -11.358  -2.332  -3.624  0.00  0.00    +0.140 C 
ATOM     18  C   LIG    1      -10.723  -1.170  -3.751  0.00  0.00    -0.090 C 
ENDBRANCH   9  18
ENDBRANCH   1  13
BRANCH   5  19
ATOM     19  C   LIG    1       -6.391   8.559  -3.934  0.00  0.00    +0.360 A 
ATOM     20  C   LIG    1       -5.970   9.646  -3.165  0.00  0.00    -0.100 A 
ATOM     21  C   LIG    1       -5.541  10.784  -3.818  0.00  0.00    +0.340 A 
ATOM     22  N   LIG    1       -5.552  10.813  -5.143  0.00  0.00    -0.540 NA
ATOM     23  C   LIG    1       -5.960   9.772  -5.841  0.00  0.00    +0.350 A 
ATOM     24  C   LIG    1       -5.955   9.851  -7.346  0.00  0.00    +0.170 C 
ATOM     25  N   LIG    1       -6.373   8.664  -5.260  0.00  0.00    -0.560 NA
ENDBRANCH   5  19
TORSDOF 3
