REMARK  Name = ZINCpe00000y5R7a.0
REMARK                            x       y       z     vdW  Elec       q    Type
REMARK                         _______ _______ _______ _____ _____    ______ ____
ROOT
ATOM      1  S   LIG    1        2.439   4.691   4.018  0.00  0.00    +2.720 S 
ATOM      2  O   LIG    1        2.679   5.505   2.878  0.00  0.00    -0.960 OA
ATOM      3  O   LIG    1        3.481   4.151   4.820  0.00  0.00    -0.950 OA
ENDROOT
BRANCH   1   7
ATOM      4  C   LIG    1       -0.169   8.967   5.044  0.00  0.00    +0.080 C 
ATOM      5  C   LIG    1        0.957   7.950   5.306  0.00  0.00    +0.120 C 
ATOM      6  C   LIG    1        0.632   6.669   4.531  0.00  0.00    +0.270 C 
ATOM      7  N   LIG    1        1.481   5.580   5.032  0.00  0.00    -1.000 NA
ATOM      8  C   LIG    1        1.439   5.312   6.480  0.00  0.00    +0.290 C 
ATOM      9  C   LIG    1        1.762   6.616   7.209  0.00  0.00    +0.090 C 
ATOM     10  C   LIG    1        3.279   6.867   7.217  0.00  0.00    -0.010 C 
ATOM     11  C   LIG    1        3.741   6.397   8.616  0.00  0.00    +0.200 C 
ATOM     12  O   LIG    1        2.607   5.741   9.218  0.00  0.00    -0.370 OA
ATOM     13  C   LIG    1        1.440   6.428   8.714  0.00  0.00    +0.240 C 
ATOM     14  C   LIG    1        2.265   8.545   4.777  0.00  0.00    +0.020 C 
ATOM     15  O   LIG    1        1.030   7.708   6.702  0.00  0.00    -0.360 OA
ENDBRANCH   1   7
BRANCH   1  16
ATOM     16  C   LIG    1        1.480   3.323   3.460  0.00  0.00    -0.820 A 
ATOM     17  C   LIG    1        0.696   3.297   2.358  0.00  0.00    +0.360 A 
ATOM     18  N   LIG    1        0.134   2.072   2.281  0.00  0.00    -0.350 N 
ATOM     19  N   LIG    1        0.584   1.322   3.376  0.00  0.00    -0.280 NA
ATOM     20  C   LIG    1        1.395   2.071   4.078  0.00  0.00    +0.340 A 
BRANCH  18  21
ATOM     21  C   LIG    1       -0.788   1.610   1.241  0.00  0.00    +0.250 C 
ATOM     22  C   LIG    1       -0.013   1.086   0.008  0.00  0.00    +0.020 C 
ATOM     23  C   LIG    1       -0.808   1.621  -1.198  0.00  0.00    +0.220 C 
ATOM     24  O   LIG    1       -1.946   2.329  -0.680  0.00  0.00    -0.360 OA
ATOM     25  C   LIG    1       -1.587   2.797   0.638  0.00  0.00    +0.220 C 
ENDBRANCH  18  21
ENDBRANCH   1  16
TORSDOF 3
