REMARK  Name = ZINCpe00000FU8V1.0
REMARK                            x       y       z     vdW  Elec       q    Type
REMARK                         _______ _______ _______ _____ _____    ______ ____
ROOT
ATOM      1  C   LIG    1       -1.359   2.187   0.020  0.00  0.00    +0.180 C 
ATOM      2  C   LIG    1       -0.018   1.499   0.010  0.00  0.00    +0.090 C 
ATOM      3  N   LIG    1        1.022   2.227   0.004  0.00  0.00    -0.220 NA
ATOM      4  N   LIG    1        2.321   1.694  -0.019  0.00  0.00    -0.420 N 
ATOM      5  C   LIG    1        2.446   0.349  -0.304  0.00  0.00    +0.500 A 
ATOM      6  N   LIG    1        3.520  -0.343  -0.605  0.00  0.00    -0.500 NA
ATOM      7  C   LIG    1        3.190  -1.607  -0.817  0.00  0.00    +0.350 A 
ATOM      8  C   LIG    1        1.802  -1.726  -0.636  0.00  0.00    -0.160 A 
ATOM      9  C   LIG    1        1.165  -2.972  -0.802  0.00  0.00    +0.600 A 
ATOM     10  N   LIG    1        1.960  -4.017  -1.139  0.00  0.00    -0.550 N 
ATOM     11  C   LIG    1        3.284  -3.893  -1.308  0.00  0.00    +0.710 A 
ATOM     12  O   LIG    1        3.924  -4.882  -1.609  0.00  0.00    -0.540 OA
ATOM     13  C   LIG    1        1.347  -5.335  -1.324  0.00  0.00    +0.350 C 
ATOM     14  O   LIG    1       -0.037  -3.103  -0.650  0.00  0.00    -0.510 OA
ATOM     15  N   LIG    1        3.943  -2.720  -1.161  0.00  0.00    -0.510 N 
ATOM     16  C   LIG    1        5.393  -2.630  -1.357  0.00  0.00    +0.350 C 
ATOM     17  N   LIG    1        1.351  -0.478  -0.307  0.00  0.00    -0.450 N 
ATOM     18  C   LIG    1        0.002  -0.004   0.002  0.00  0.00    +0.350 C 
ENDROOT
BRANCH   4  19
ATOM     19  C   LIG    1        3.494   2.530   0.248  0.00  0.00    +0.410 C 
BRANCH  19  20
ATOM     20  C   LIG    1        3.996   3.119  -1.046  0.00  0.00    -0.120 A 
ATOM     21  C   LIG    1        4.942   2.443  -1.792  0.00  0.00    +0.040 A 
ATOM     22  C   LIG    1        5.398   2.981  -2.981  0.00  0.00    -0.010 A 
ATOM     23  C   LIG    1        4.916   4.201  -3.418  0.00  0.00    +0.010 A 
ATOM     24  C   LIG    1        3.973   4.880  -2.668  0.00  0.00    -0.010 A 
ATOM     25  C   LIG    1        3.513   4.339  -1.482  0.00  0.00    +0.030 A 
ENDBRANCH  19  20
ENDBRANCH   4  19
TORSDOF 2
