REMARK  Name = ZINCqH0000032hf2.0
REMARK                            x       y       z     vdW  Elec       q    Type
REMARK                         _______ _______ _______ _____ _____    ______ ____
ROOT
ATOM      1  N   LIG    1       -0.754   1.970  -1.159  0.00  0.00    -0.590 N 
ATOM      2  C   LIG    1       -0.363   1.602  -2.395  0.00  0.00    +0.530 C 
ATOM      3  O   LIG    1       -1.035   1.903  -3.359  0.00  0.00    -0.540 OA
ENDROOT
BRANCH   1   5
ATOM      4  C   LIG    1        0.421   2.720   0.850  0.00  0.00    +0.030 C 
ATOM      5  C   LIG    1       -0.004   1.512   0.013  0.00  0.00    +0.230 C 
ATOM      6  C   LIG    1       -0.890   0.593   0.857  0.00  0.00    +0.020 C 
ENDBRANCH   1   5
BRANCH   2   7
ATOM      7  C   LIG    1        0.910   0.816  -2.580  0.00  0.00    +0.060 C 
BRANCH   7   8
ATOM      8  C   LIG    1        1.186   0.637  -4.074  0.00  0.00    +0.040 C 
BRANCH   8   9
ATOM      9  C   LIG    1        2.478  -0.161  -4.262  0.00  0.00    +0.110 C 
BRANCH   9  10
ATOM     10  C   LIG    1        2.750  -0.338  -5.734  0.00  0.00    -0.170 A 
ATOM     11  C   LIG    1        3.460   0.500  -6.490  0.00  0.00    +0.000 A 
ATOM     12  C   LIG    1        3.577   0.129  -7.819  0.00  0.00    +0.010 A 
ATOM     13  C   LIG    1        2.961  -1.009  -8.141  0.00  0.00    -0.060 A 
ATOM     14  S   LIG    1        2.185  -1.684  -6.715  0.00  0.00    +0.090 S 
ENDBRANCH   9  10
ENDBRANCH   8   9
ENDBRANCH   7   8
ENDBRANCH   2   7
BRANCH   1  15
ATOM     15  C   LIG    1       -1.929   2.829  -0.988  0.00  0.00    +0.390 C 
BRANCH  15  16
ATOM     16  C   LIG    1       -1.502   4.274  -1.010  0.00  0.00    +0.430 A 
ATOM     17  N   LIG    1       -0.235   4.542  -1.162  0.00  0.00    -0.580 NA
ATOM     18  C   LIG    1        0.222   5.808  -1.197  0.00  0.00    +0.530 A 
ATOM     19  C   LIG    1       -0.754   6.902  -1.046  0.00  0.00    -0.210 A 
ATOM     20  C   LIG    1       -0.372   8.242  -1.065  0.00  0.00    +0.110 A 
ATOM     21  C   LIG    1       -1.331   9.221  -0.920  0.00  0.00    -0.010 A 
ATOM     22  C   LIG    1       -2.665   8.881  -0.755  0.00  0.00    +0.080 A 
ATOM     23  C   LIG    1       -3.058   7.559  -0.735  0.00  0.00    -0.020 A 
ATOM     24  C   LIG    1       -2.108   6.558  -0.880  0.00  0.00    +0.180 A 
ATOM     25  O   LIG    1        1.409   6.043  -1.345  0.00  0.00    -0.480 OA
ATOM     26  N   LIG    1       -2.447   5.220  -0.867  0.00  0.00    -0.620 N 
ATOM     27  H   LIG    1       -3.375   4.960  -0.753  0.00  0.00    +0.420 HD
ENDBRANCH  15  16
ENDBRANCH   1  15
TORSDOF 7
