REMARK  Name = ZINCrD00000l4Teb.0
REMARK                            x       y       z     vdW  Elec       q    Type
REMARK                         _______ _______ _______ _____ _____    ______ ____
ROOT
ATOM      1  C   LIG    1       -2.853   3.421  -1.442  0.00  0.00    +0.450 C 
ENDROOT
BRANCH   1   2
ATOM      2  N   LIG    1       -1.831   2.736  -0.647  0.00  0.00    -0.580 N 
ATOM      3  C   LIG    1       -1.804   2.719   0.691  0.00  0.00    +0.710 C 
ATOM      4  N   LIG    1       -0.760   2.019   1.175  0.00  0.00    -0.720 N 
ATOM      5  H   LIG    1       -0.542   1.874   2.109  0.00  0.00    +0.440 HD
ATOM      6  C   LIG    1       -0.019   1.520   0.010  0.00  0.00    +0.130 C 
ATOM      7  C   LIG    1        0.002  -0.004   0.002  0.00  0.00    +0.050 C 
ATOM      8  C   LIG    1        0.746  -0.499  -1.242  0.00  0.00    +0.020 C 
ATOM      9  C   LIG    1        2.175   0.048  -1.230  0.00  0.00    +0.010 C 
ATOM     10  C   LIG    1        2.139   1.577  -1.244  0.00  0.00    +0.030 C 
ATOM     11  C   LIG    1        1.400   2.079  -0.000  0.00  0.00    +0.010 C 
ATOM     12  C   LIG    1        1.345   3.608  -0.022  0.00  0.00    +0.020 C 
ATOM     13  O   LIG    1       -2.629   3.273   1.390  0.00  0.00    -0.540 OA
ATOM     14  C   LIG    1       -0.799   2.043  -1.173  0.00  0.00    +0.540 C 
ATOM     15  O   LIG    1       -0.551   1.875  -2.348  0.00  0.00    -0.440 OA
ENDBRANCH   1   2
BRANCH   1  19
ATOM     16  C   LIG    1       -5.843   1.309  -1.646  0.00  0.00    +0.060 A 
ATOM     17  N   LIG    1       -5.143   1.009  -2.712  0.00  0.00    -0.320 NA
ATOM     18  O   LIG    1       -4.121   1.653  -2.764  0.00  0.00    +0.120 OA
ATOM     19  C   LIG    1       -3.995   2.476  -1.713  0.00  0.00    -0.070 A 
ATOM     20  C   LIG    1       -5.095   2.298  -0.947  0.00  0.00    +0.000 A 
BRANCH  16  26
ATOM     21  C   LIG    1       -7.763  -0.238  -2.045  0.00  0.00    +0.150 A 
ATOM     22  C   LIG    1       -8.985  -0.771  -1.664  0.00  0.00    -0.080 A 
ATOM     23  C   LIG    1       -9.594  -0.343  -0.500  0.00  0.00    +0.060 A 
ATOM     24  C   LIG    1       -8.990   0.619   0.291  0.00  0.00    -0.030 A 
ATOM     25  C   LIG    1       -7.771   1.153  -0.072  0.00  0.00    +0.080 A 
ATOM     26  C   LIG    1       -7.151   0.733  -1.246  0.00  0.00    -0.060 A 
BRANCH  21  28
ATOM     27  C   LIG    1       -7.848  -1.653  -3.953  0.00  0.00    +0.240 C 
ATOM     28  O   LIG    1       -7.164  -0.658  -3.189  0.00  0.00    -0.290 OA
ENDBRANCH  21  28
ENDBRANCH  16  26
ENDBRANCH   1  19
TORSDOF 4
