REMARK  Name = ZINCrD000003Hdx4.0
REMARK                            x       y       z     vdW  Elec       q    Type
REMARK                         _______ _______ _______ _____ _____    ______ ____
ROOT
ATOM      1  N   LIG    1       -1.191   1.870   0.018  0.00  0.00    -0.690 N 
ATOM      2  H   LIG    1       -1.196   2.839  -0.023  0.00  0.00    +0.410 HD
ATOM      3  C   LIG    1       -0.027   1.208   0.174  0.00  0.00    +0.710 C 
ATOM      4  N   LIG    1        1.139   1.884   0.161  0.00  0.00    -0.720 N 
ATOM      5  H   LIG    1        1.141   2.847   0.043  0.00  0.00    +0.400 HD
ATOM      6  O   LIG    1       -0.028   0.002   0.322  0.00  0.00    -0.550 OA
ENDROOT
BRANCH   1  10
ATOM      7  C   LIG    1       -4.765  -0.248  -0.292  0.00  0.00    -0.660 A 
ATOM      8  C   LIG    1       -4.749   0.992   0.319  0.00  0.00    +0.130 A 
ATOM      9  C   LIG    1       -3.566   1.697   0.423  0.00  0.00    -0.020 A 
ATOM     10  C   LIG    1       -2.391   1.158  -0.086  0.00  0.00    +0.220 A 
ATOM     11  C   LIG    1       -2.412  -0.085  -0.704  0.00  0.00    +0.010 A 
ATOM     12  C   LIG    1       -3.597  -0.787  -0.800  0.00  0.00    +0.130 A 
BRANCH   7  14
ATOM     13  C   LIG    1       -7.080  -0.684  -1.981  0.00  0.00    -0.280 C 
ATOM     14  S   LIG    1       -6.277  -1.145  -0.422  0.00  0.00    +2.390 S 
ATOM     15  O   LIG    1       -5.988  -2.530  -0.291  0.00  0.00    -0.900 OA
ATOM     16  N   LIG    1       -7.171  -0.743   0.705  0.00  0.00    -1.220 NA
ATOM     17  H   LIG    1       -7.475   0.176   0.779  0.00  0.00    +0.380 HD
ENDBRANCH   7  14
ENDBRANCH   1  10
BRANCH   4  18
ATOM     18  C   LIG    1        2.405   1.165   0.325  0.00  0.00    +0.270 C 
ATOM     19  C   LIG    1        3.579   2.000  -0.236  0.00  0.00    +0.070 C 
ATOM     20  C   LIG    1        4.707   1.670   0.766  0.00  0.00    +0.280 C 
ATOM     21  N   LIG    1        4.027   1.295   2.012  0.00  0.00    -0.580 N 
ATOM     22  C   LIG    1        2.734   1.001   1.793  0.00  0.00    +0.510 C 
ATOM     23  O   LIG    1        1.947   0.653   2.647  0.00  0.00    -0.490 OA
BRANCH  21  24
ATOM     24  C   LIG    1        4.646   1.250   3.267  0.00  0.00    +0.150 A 
ATOM     25  C   LIG    1        5.242   0.077   3.707  0.00  0.00    +0.040 A 
ATOM     26  C   LIG    1        5.856   0.037   4.944  0.00  0.00    +0.030 A 
ATOM     27  C   LIG    1        5.868   1.162   5.748  0.00  0.00    +0.040 A 
ATOM     28  C   LIG    1        5.271   2.332   5.316  0.00  0.00    +0.030 A 
ATOM     29  C   LIG    1        4.660   2.380   4.077  0.00  0.00    -0.030 A 
ATOM     30 CL   LIG    1        3.910   3.848   3.534  0.00  0.00    -0.060 Cl
ENDBRANCH  21  24
ENDBRANCH   4  18
TORSDOF 4
