REMARK  Name = ZINCrg00000SjSy2.0
REMARK                            x       y       z     vdW  Elec       q    Type
REMARK                         _______ _______ _______ _____ _____    ______ ____
ROOT
ATOM      1  N   LIG    1       -2.572   4.228   0.159  0.00  0.00    -0.520 NA
ATOM      2  C   LIG    1       -3.077   3.955  -1.193  0.00  0.00    +0.190 C 
ATOM      3  C   LIG    1       -4.596   4.152  -1.217  0.00  0.00    +0.310 C 
ATOM      4  N   LIG    1       -4.902   5.494  -0.699  0.00  0.00    -0.580 N 
ATOM      5  C   LIG    1       -4.316   5.892   0.591  0.00  0.00    +0.300 C 
ATOM      6  C   LIG    1       -2.808   5.626   0.543  0.00  0.00    +0.180 C 
ENDROOT
BRANCH   4   7
ATOM      7  C   LIG    1       -5.721   6.365  -1.410  0.00  0.00    +0.430 A 
ATOM      8  N   LIG    1       -5.888   7.594  -0.981  0.00  0.00    -0.340 NA
ATOM      9  N   LIG    1       -6.702   8.485  -1.682  0.00  0.00    -0.240 N 
ATOM     10  C   LIG    1       -7.345   8.076  -2.825  0.00  0.00    +0.150 A 
ATOM     11  C   LIG    1       -7.169   6.756  -3.281  0.00  0.00    +0.190 A 
ATOM     12  N   LIG    1       -8.038   9.114  -3.267  0.00  0.00    -0.230 NA
ATOM     13  N   LIG    1       -7.859  10.112  -2.474  0.00  0.00    -0.200 NA
ATOM     14  C   LIG    1       -7.054   9.775  -1.497  0.00  0.00    +0.100 A 
ATOM     15  C   LIG    1       -6.367   5.914  -2.578  0.00  0.00    +0.000 A 
BRANCH  14  16
ATOM     16  C   LIG    1       -6.602  10.667  -0.370  0.00  0.00    +0.580 C 
ATOM     17  F   LIG    1       -5.276  11.058  -0.588  0.00  0.00    -0.160 F 
ATOM     18  F   LIG    1       -6.689   9.970   0.840  0.00  0.00    -0.160 F 
ATOM     19  F   LIG    1       -7.420  11.801  -0.315  0.00  0.00    -0.150 F 
ENDBRANCH  14  16
ENDBRANCH   4   7
BRANCH   1  20
ATOM     20  C   LIG    1       -1.148   3.885   0.269  0.00  0.00    +0.220 C 
BRANCH  20  23
ATOM     21  N   LIG    1        0.254   1.850   0.173  0.00  0.00    -0.730 N 
ATOM     22  H   LIG    1        1.029   2.414   0.319  0.00  0.00    +0.400 HD
ATOM     23  C   LIG    1       -0.976   2.397   0.108  0.00  0.00    +0.510 C 
ATOM     24  O   LIG    1       -1.944   1.691  -0.079  0.00  0.00    -0.520 OA
BRANCH  21  25
ATOM     25  C   LIG    1        0.421   0.403   0.017  0.00  0.00    +0.260 C 
BRANCH  25  27
ATOM     26  C   LIG    1        2.405   0.361   1.535  0.00  0.00    +0.020 C 
ATOM     27  C   LIG    1        1.905   0.046   0.124  0.00  0.00    -0.030 C 
ATOM     28  C   LIG    1        2.094  -1.445  -0.163  0.00  0.00    +0.030 C 
ENDBRANCH  25  27
ENDBRANCH  21  25
ENDBRANCH  20  23
ENDBRANCH   1  20
TORSDOF 6
