REMARK  Name = ZINCrg00000PunvX.0
REMARK                            x       y       z     vdW  Elec       q    Type
REMARK                         _______ _______ _______ _____ _____    ______ ____
ROOT
ATOM      1  C   LIG    1       -6.113   2.892   0.072  0.00  0.00    -0.130 C 
ATOM      2  C   LIG    1       -5.900   1.580   0.829  0.00  0.00    +0.060 C 
ATOM      3  C   LIG    1       -5.914   1.587  -0.702  0.00  0.00    +0.050 C 
ENDROOT
BRANCH   1   7
ATOM      4  C   LIG    1       -9.432   6.227  -0.378  0.00  0.00    +0.510 C 
ATOM      5  N   LIG    1       -8.471   5.290  -0.255  0.00  0.00    -0.640 N 
ATOM      6  C   LIG    1       -7.611   4.830   0.852  0.00  0.00    +0.290 C 
ATOM      7  C   LIG    1       -7.518   3.497   0.088  0.00  0.00    +0.150 C 
ATOM      8  C   LIG    1       -7.858   4.309  -1.175  0.00  0.00    +0.290 C 
ATOM      9  O   LIG    1       -9.743   6.907   0.577  0.00  0.00    -0.490 OA
BRANCH   4  11
ATOM     10  C   LIG    1      -11.508   7.034  -1.469  0.00  0.00    +0.100 C 
ATOM     11  C   LIG    1      -10.122   6.429  -1.703  0.00  0.00    +0.290 C 
ATOM     12  F   LIG    1      -10.254   5.198  -2.353  0.00  0.00    -0.190 F 
ATOM     13  F   LIG    1       -9.363   7.296  -2.496  0.00  0.00    -0.180 F 
ENDBRANCH   4  11
BRANCH   7  14
ATOM     14  O   LIG    1       -8.527   2.553   0.453  0.00  0.00    -0.520 OA
ATOM     15  H   LIG    1       -9.422   2.919   0.468  0.00  0.00    +0.390 HD
ENDBRANCH   7  14
ENDBRANCH   1   7
BRANCH   1  16
ATOM     16  C   LIG    1       -4.961   3.899   0.067  0.00  0.00    +0.320 C 
BRANCH  16  17
ATOM     17  N   LIG    1       -3.685   3.181   0.052  0.00  0.00    -0.720 N 
ATOM     18  H   LIG    1       -3.674   2.211   0.047  0.00  0.00    +0.400 HD
ATOM     19  C   LIG    1       -2.525   3.868   0.045  0.00  0.00    +0.560 C 
ATOM     20  O   LIG    1       -2.538   5.083   0.051  0.00  0.00    -0.530 OA
BRANCH  19  21
ATOM     21  C   LIG    1       -1.236   3.143   0.030  0.00  0.00    -0.110 A 
ATOM     22  C   LIG    1       -1.218   1.748   0.017  0.00  0.00    +0.030 A 
ATOM     23  C   LIG    1       -0.013   1.076   0.008  0.00  0.00    +0.080 A 
ATOM     24  C   LIG    1        1.177   1.782   0.000  0.00  0.00    -0.100 A 
ATOM     25  C   LIG    1        1.167   3.168   0.008  0.00  0.00    +0.100 A 
ATOM     26  F   LIG    1        2.332   3.851   0.001  0.00  0.00    -0.130 F 
ATOM     27  C   LIG    1       -0.034   3.852   0.023  0.00  0.00    +0.060 A 
BRANCH  24  28
ATOM     28  C   LIG    1        2.489   1.041  -0.016  0.00  0.00    +0.250 C 
BRANCH  28  29
ATOM     29  O   LIG    1        2.241  -0.366  -0.020  0.00  0.00    -0.570 OA
ATOM     30  H   LIG    1        3.043  -0.907  -0.031  0.00  0.00    +0.390 HD
ENDBRANCH  28  29
ENDBRANCH  24  28
ENDBRANCH  19  21
ENDBRANCH  16  17
ENDBRANCH   1  16
TORSDOF 8
