REMARK  Name = ZINCkj00000OW1HU.0
REMARK                            x       y       z     vdW  Elec       q    Type
REMARK                         _______ _______ _______ _____ _____    ______ ____
ROOT
ATOM      1  C   LIG    1        0.303  -3.180   0.422  0.00  0.00    +0.620 C 
ATOM      2  N   LIG    1       -0.920  -3.706   0.632  0.00  0.00    -0.620 N 
ATOM      3  C   LIG    1       -1.794  -3.188   1.696  0.00  0.00    +0.310 C 
ATOM      4  C   LIG    1       -3.174  -2.898   1.087  0.00  0.00    +0.170 C 
ATOM      5  N   LIG    1       -3.678  -4.107   0.425  0.00  0.00    -0.500 N 
ATOM      6  C   LIG    1       -2.813  -4.454  -0.710  0.00  0.00    +0.160 C 
ATOM      7  C   LIG    1       -3.407  -5.649  -1.459  0.00  0.00    +0.110 C 
ATOM      8  H   LIG    1       -3.687  -4.870   1.085  0.00  0.00    +0.430 HD
ATOM      9  H   LIG    1       -4.616  -3.941   0.092  0.00  0.00    +0.430 HD
ATOM     10  C   LIG    1       -3.056  -1.767   0.063  0.00  0.00    +0.090 C 
ATOM     11  C   LIG    1       -1.417  -4.818  -0.193  0.00  0.00    +0.340 C 
ATOM     12  O   LIG    1        1.013  -3.625  -0.459  0.00  0.00    -0.490 OA
ENDROOT
BRANCH   1  17
ATOM     13  C   LIG    1        0.624  -0.617   1.039  0.00  0.00    +0.240 A 
ATOM     14  N   LIG    1        1.220  -0.051   2.053  0.00  0.00    -0.380 NA
ATOM     15  O   LIG    1        1.680  -0.859   2.821  0.00  0.00    +0.110 OA
ATOM     16  C   LIG    1        1.477  -2.123   2.442  0.00  0.00    +0.090 A 
ATOM     17  C   LIG    1        0.779  -2.067   1.261  0.00  0.00    -0.270 A 
BRANCH  16  18
ATOM     18  C   LIG    1        1.925  -3.366   3.167  0.00  0.00    +0.030 C 
ATOM     19  C   LIG    1        2.514  -3.192   4.569  0.00  0.00    +0.070 C 
ATOM     20  C   LIG    1        3.427  -3.548   3.394  0.00  0.00    +0.080 C 
ENDBRANCH  16  18
BRANCH  13  22
ATOM     21  C   LIG    1       -0.017   1.425   0.010  0.00  0.00    +0.280 C 
ATOM     22  O   LIG    1        0.002  -0.004   0.002  0.00  0.00    -0.280 OA
ENDBRANCH  13  22
ENDBRANCH   1  17
TORSDOF 3
