REMARK  Name = ZINCtV00000L6kwU.0
REMARK                            x       y       z     vdW  Elec       q    Type
REMARK                         _______ _______ _______ _____ _____    ______ ____
ROOT
ATOM      1  C   LIG    1        3.152   2.673  -1.747  0.00  0.00    +0.210 A 
ATOM      2  C   LIG    1        4.119   1.980  -2.471  0.00  0.00    -0.020 A 
ATOM      3  C   LIG    1        5.418   2.433  -2.495  0.00  0.00    +0.130 A 
ATOM      4  C   LIG    1        5.767   3.590  -1.792  0.00  0.00    -0.150 A 
ATOM      5  C   LIG    1        4.794   4.284  -1.066  0.00  0.00    +0.200 A 
ATOM      6  C   LIG    1        3.495   3.829  -1.051  0.00  0.00    -0.060 A 
ENDROOT
BRANCH   1  11
ATOM      7  C   LIG    1       -2.033   0.622  -2.583  0.00  0.00    +0.030 C 
ATOM      8  C   LIG    1       -0.589   1.080  -2.799  0.00  0.00    -0.030 C 
ATOM      9  C   LIG    1        0.344   0.280  -1.884  0.00  0.00    +0.050 C 
ATOM     10  C   LIG    1        1.778   0.785  -2.060  0.00  0.00    +0.180 C 
ATOM     11  N   LIG    1        1.840   2.213  -1.725  0.00  0.00    -0.480 N 
ATOM     12  C   LIG    1        0.989   3.006  -2.621  0.00  0.00    +0.200 C 
ATOM     13  C   LIG    1       -0.469   2.568  -2.462  0.00  0.00    +0.060 C 
ENDBRANCH   1  11
BRANCH   4  14
ATOM     14  C   LIG    1        7.159   4.078  -1.816  0.00  0.00    +0.560 C 
ATOM     15  N   LIG    1        8.096   3.409  -2.517  0.00  0.00    -0.670 N 
ATOM     16  H   LIG    1        7.848   2.627  -3.035  0.00  0.00    +0.420 HD
ATOM     17  O   LIG    1        7.461   5.085  -1.204  0.00  0.00    -0.480 OA
BRANCH  15  18
ATOM     18  C   LIG    1        9.426   3.842  -2.497  0.00  0.00    +0.190 A 
ATOM     19  C   LIG    1       10.161   3.888  -3.676  0.00  0.00    -0.040 A 
ATOM     20  C   LIG    1       11.474   4.322  -3.654  0.00  0.00    -0.000 A 
ATOM     21  C   LIG    1       12.060   4.699  -2.458  0.00  0.00    +0.080 A 
ATOM     22  C   LIG    1       11.333   4.649  -1.282  0.00  0.00    -0.000 A 
ATOM     23 CL   LIG    1       12.072   5.124   0.215  0.00  0.00    -0.010 Cl
ATOM     24 CL   LIG    1       12.391   4.386  -5.127  0.00  0.00    -0.020 Cl
ATOM     25 CL   LIG    1        9.429   3.408  -5.175  0.00  0.00    -0.020 Cl
ATOM     26  C   LIG    1       10.017   4.222  -1.299  0.00  0.00    -0.030 A 
ATOM     27 CL   LIG    1        9.105   4.161   0.177  0.00  0.00    +0.010 Cl
ENDBRANCH  15  18
ENDBRANCH   4  14
BRANCH   6  28
ATOM     28  N   LIG    1        2.463   4.566  -0.287  0.00  0.00    +0.030 N 
ATOM     29  O   LIG    1        1.312   4.167  -0.278  0.00  0.00    -0.120 OA
ATOM     30  O   LIG    1        2.765   5.570   0.332  0.00  0.00    -0.180 OA
ENDBRANCH   6  28
TORSDOF 4
