REMARK  Name = ZINCnE000001LGwu.1
REMARK                            x       y       z     vdW  Elec       q    Type
REMARK                         _______ _______ _______ _____ _____    ______ ____
ROOT
ATOM      1  C   LIG    1       -1.716   2.474  -1.392  0.00  0.00    +0.470 C 
ATOM      2  N   LIG    1       -2.863   3.142  -1.628  0.00  0.00    -0.660 NA
ATOM      3  O   LIG    1       -0.994   2.164  -2.315  0.00  0.00    -0.590 OA
ENDROOT
BRANCH   2   4
ATOM      4  C   LIG    1       -3.216   3.474  -2.927  0.00  0.00    +0.410 A 
ATOM      5  N   LIG    1       -4.287   4.109  -3.257  0.00  0.00    -0.550 NA
ATOM      6  C   LIG    1       -4.492   4.359  -4.566  0.00  0.00    +0.130 A 
ATOM      7  C   LIG    1       -5.576   5.031  -5.179  0.00  0.00    +0.140 A 
ATOM      8  C   LIG    1       -5.611   5.192  -6.546  0.00  0.00    -0.090 A 
ATOM      9  C   LIG    1       -4.586   4.700  -7.340  0.00  0.00    +0.000 A 
ATOM     10  C   LIG    1       -3.522   4.043  -6.763  0.00  0.00    +0.020 A 
ATOM     11  C   LIG    1       -3.469   3.870  -5.381  0.00  0.00    -0.210 A 
ATOM     12  S   LIG    1       -2.263   3.096  -4.355  0.00  0.00    -0.020 S 
BRANCH   7  13
ATOM     13  O   LIG    1       -6.589   5.519  -4.415  0.00  0.00    -0.300 OA
ATOM     14  C   LIG    1       -7.653   6.186  -5.097  0.00  0.00    +0.220 C 
ENDBRANCH   7  13
ENDBRANCH   2   4
BRANCH   1  15
ATOM     15  C   LIG    1       -1.331   2.113   0.020  0.00  0.00    +0.110 C 
BRANCH  15  21
ATOM     16  C   LIG    1        1.176   2.086   0.002  0.00  0.00    +0.140 A 
ATOM     17  C   LIG    1        2.385   1.405  -0.013  0.00  0.00    -0.090 A 
ATOM     18  C   LIG    1        2.398   0.024  -0.021  0.00  0.00    +0.030 A 
ATOM     19  C   LIG    1        1.208  -0.680  -0.013  0.00  0.00    -0.040 A 
ATOM     20  C   LIG    1        0.002  -0.004   0.002  0.00  0.00    +0.050 A 
ATOM     21  C   LIG    1       -0.017   1.377   0.010  0.00  0.00    -0.080 A 
BRANCH  16  23
ATOM     22  C   LIG    1        2.426   4.108   0.001  0.00  0.00    +0.230 C 
ATOM     23  O   LIG    1        1.160   3.445   0.010  0.00  0.00    -0.310 OA
ENDBRANCH  16  23
ENDBRANCH  15  21
ENDBRANCH   1  15
TORSDOF 5
