REMARK  Name = ZINCvU0000000JMU.0
REMARK                            x       y       z     vdW  Elec       q    Type
REMARK                         _______ _______ _______ _____ _____    ______ ____
ROOT
ATOM      1  N   LIG    1       -2.458   3.824   0.045  0.00  0.00    -0.440 N 
ATOM      2  C   LIG    1       -3.136   4.205   1.146  0.00  0.00    +0.470 A 
ATOM      3  N   LIG    1       -4.257   4.834   0.738  0.00  0.00    -0.400 N 
ATOM      4  N   LIG    1       -4.256   4.834  -0.663  0.00  0.00    -0.240 NA
ATOM      5  S   LIG    1       -2.661   3.937   2.769  0.00  0.00    -0.550 S 
ATOM      6  C   LIG    1       -3.172   4.232  -1.066  0.00  0.00    +0.310 A 
ENDROOT
BRANCH   6   7
ATOM      7  C   LIG    1       -2.775   4.018  -2.475  0.00  0.00    -0.030 A 
ATOM      8  C   LIG    1       -1.586   3.353  -2.774  0.00  0.00    +0.090 A 
ATOM      9  C   LIG    1       -1.220   3.156  -4.090  0.00  0.00    +0.050 A 
ATOM     10  C   LIG    1       -2.031   3.617  -5.113  0.00  0.00    +0.000 A 
ATOM     11  C   LIG    1       -3.212   4.279  -4.824  0.00  0.00    +0.060 A 
ATOM     12 CL   LIG    1       -1.564   3.366  -6.766  0.00  0.00    -0.040 Cl
ATOM     13  C   LIG    1       -3.591   4.476  -3.511  0.00  0.00    +0.010 A 
ATOM     14 CL   LIG    1       -5.076   5.300  -3.149  0.00  0.00    -0.010 Cl
ENDBRANCH   6   7
BRANCH   1  20
ATOM     15  C   LIG    1       -0.041   3.845   0.023  0.00  0.00    -0.040 A 
ATOM     16  C   LIG    1        1.161   3.166   0.008  0.00  0.00    +0.030 A 
ATOM     17  C   LIG    1        1.176   1.783   0.000  0.00  0.00    +0.050 A 
ATOM     18  C   LIG    1       -0.013   1.076   0.008  0.00  0.00    +0.030 A 
ATOM     19  C   LIG    1       -1.218   1.749   0.017  0.00  0.00    +0.040 A 
ATOM     20  C   LIG    1       -1.236   3.138   0.030  0.00  0.00    +0.110 A 
BRANCH  15  22
ATOM     21  C   LIG    1        0.672   5.863   1.276  0.00  0.00    +0.050 C 
ATOM     22  C   LIG    1       -0.056   5.352   0.030  0.00  0.00    +0.000 C 
ATOM     23  C   LIG    1        0.648   5.875  -1.223  0.00  0.00    +0.030 C 
ENDBRANCH  15  22
ENDBRANCH   1  20
BRANCH   3  24
ATOM     24  C   LIG    1       -5.288   5.414   1.603  0.00  0.00    +0.550 C 
BRANCH  24  25
ATOM     25  N   LIG    1       -5.161   6.878   1.602  0.00  0.00    -0.520 NA
ATOM     26  C   LIG    1       -5.795   7.460   0.412  0.00  0.00    +0.170 C 
ATOM     27  C   LIG    1       -5.773   8.986   0.517  0.00  0.00    +0.040 C 
ATOM     28  C   LIG    1       -4.323   9.464   0.630  0.00  0.00    -0.020 C 
ATOM     29  C   LIG    1       -3.671   8.806   1.849  0.00  0.00    +0.180 C 
ATOM     30  C   LIG    1       -3.754   7.284   1.707  0.00  0.00    +0.200 C 
BRANCH  29  31
ATOM     31  O   LIG    1       -2.301   9.204   1.931  0.00  0.00    -0.560 OA
ATOM     32  H   LIG    1       -2.173  10.158   2.020  0.00  0.00    +0.380 HD
ENDBRANCH  29  31
ENDBRANCH  24  25
ENDBRANCH   3  24
TORSDOF 6
