REMARK  Name = ZINCrD0000075jY4.0
REMARK                            x       y       z     vdW  Elec       q    Type
REMARK                         _______ _______ _______ _____ _____    ______ ____
ROOT
ATOM      1  C   LIG    1       -1.329  -2.791  -1.352  0.00  0.00    +0.520 C 
ATOM      2  O   LIG    1       -1.661  -2.106  -2.299  0.00  0.00    -0.500 OA
ENDROOT
BRANCH   1   3
ATOM      3  C   LIG    1       -0.862  -4.175  -1.570  0.00  0.00    -0.100 A 
ATOM      4  C   LIG    1       -0.475  -4.963  -0.484  0.00  0.00    +0.070 A 
ATOM      5  C   LIG    1       -0.045  -6.258  -0.690  0.00  0.00    +0.030 A 
ATOM      6  C   LIG    1        0.015  -6.777  -1.970  0.00  0.00    +0.030 A 
ATOM      7  C   LIG    1       -0.363  -5.999  -3.059  0.00  0.00    +0.140 A 
ATOM      8  C   LIG    1       -0.802  -4.699  -2.862  0.00  0.00    +0.090 A 
BRANCH   7   9
ATOM      9  N   LIG    1       -0.300  -6.528  -4.352  0.00  0.00    -0.670 N 
ATOM     10  H   LIG    1       -0.474  -7.471  -4.499  0.00  0.00    +0.410 HD
ATOM     11  C   LIG    1        0.004  -5.728  -5.393  0.00  0.00    +0.590 C 
ATOM     12  O   LIG    1        0.316  -4.568  -5.199  0.00  0.00    -0.500 OA
BRANCH  11  13
ATOM     13  C   LIG    1       -0.043  -6.255  -6.760  0.00  0.00    -0.280 A 
ATOM     14  C   LIG    1        0.241  -5.546  -7.893  0.00  0.00    +0.120 A 
ATOM     15  C   LIG    1        0.118  -6.287  -9.044  0.00  0.00    +0.000 A 
ATOM     16  C   LIG    1       -0.255  -7.560  -8.862  0.00  0.00    -0.050 A 
ATOM     17  S   LIG    1       -0.467  -7.902  -7.204  0.00  0.00    +0.200 S 
ENDBRANCH  11  13
ENDBRANCH   7   9
ENDBRANCH   1   3
BRANCH   1  18
ATOM     18  O   LIG    1       -1.387  -2.288  -0.104  0.00  0.00    -0.320 OA
BRANCH  18  19
ATOM     19  C   LIG    1       -1.855  -0.920   0.035  0.00  0.00    +0.240 C 
BRANCH  19  20
ATOM     20  C   LIG    1       -2.541  -0.757   1.367  0.00  0.00    -0.100 A 
ATOM     21  C   LIG    1       -2.022  -1.371   2.491  0.00  0.00    +0.050 A 
ATOM     22  C   LIG    1       -2.650  -1.218   3.714  0.00  0.00    +0.010 A 
ATOM     23  C   LIG    1       -3.801  -0.458   3.810  0.00  0.00    +0.020 A 
ATOM     24  C   LIG    1       -4.322   0.151   2.684  0.00  0.00    +0.010 A 
ATOM     25  C   LIG    1       -3.693   0.002   1.462  0.00  0.00    +0.030 A 
ENDBRANCH  19  20
BRANCH  19  29
ATOM     26  N   LIG    1       -0.887   1.355  -0.041  0.00  0.00    -0.840 N 
ATOM     27  H   LIG    1       -1.789   1.706   0.008  0.00  0.00    +0.400 HD
ATOM     28  H   LIG    1       -0.132   1.962  -0.092  0.00  0.00    +0.410 HD
ATOM     29  C   LIG    1       -0.682   0.022  -0.044  0.00  0.00    +0.510 C 
ATOM     30  O   LIG    1        0.446  -0.417  -0.111  0.00  0.00    -0.520 OA
ENDBRANCH  19  29
ENDBRANCH  18  19
ENDBRANCH   1  18
TORSDOF 7
