REMARK  Name = ZINCrg000000opHi.0
REMARK                            x       y       z     vdW  Elec       q    Type
REMARK                         _______ _______ _______ _____ _____    ______ ____
ROOT
ATOM      1  C   LIG    1       -1.690   3.224   5.832  0.00  0.00    +0.340 C 
ENDROOT
BRANCH   1   5
ATOM      2  C   LIG    1       -4.224   4.182   9.140  0.00  0.00    -0.120 A 
ATOM      3  C   LIG    1       -3.810   2.865   8.933  0.00  0.00    +0.080 A 
ATOM      4  C   LIG    1       -2.992   2.563   7.864  0.00  0.00    +0.040 A 
ATOM      5  C   LIG    1       -2.583   3.562   6.998  0.00  0.00    -0.090 A 
ATOM      6  C   LIG    1       -2.986   4.869   7.201  0.00  0.00    +0.030 A 
ATOM      7  C   LIG    1       -3.808   5.184   8.263  0.00  0.00    +0.040 A 
BRANCH   2  10
ATOM      8  N   LIG    1       -5.499   5.785  10.482  0.00  0.00    -0.720 N 
ATOM      9  H   LIG    1       -5.211   6.484   9.873  0.00  0.00    +0.400 HD
ATOM     10  C   LIG    1       -5.100   4.513  10.285  0.00  0.00    +0.560 C 
ATOM     11  O   LIG    1       -5.460   3.638  11.047  0.00  0.00    -0.530 OA
BRANCH   8  12
ATOM     12  C   LIG    1       -6.367   6.114  11.616  0.00  0.00    +0.230 C 
ATOM     13  C   LIG    1       -7.827   5.871  11.227  0.00  0.00    +0.020 C 
BRANCH  12  15
ATOM     14  C   LIG    1       -4.750   7.800  12.501  0.00  0.00    +0.020 C 
ATOM     15  C   LIG    1       -6.177   7.584  11.994  0.00  0.00    +0.020 C 
ENDBRANCH  12  15
ENDBRANCH   8  12
ENDBRANCH   2  10
ENDBRANCH   1   5
BRANCH   1  16
ATOM     16  N   LIG    1       -2.514   2.888   4.668  0.00  0.00    -0.690 N 
ATOM     17  H   LIG    1       -3.479   2.842   4.753  0.00  0.00    +0.420 HD
BRANCH  16  18
ATOM     18  C   LIG    1       -1.923   2.639   3.464  0.00  0.00    +0.540 A 
ATOM     19  C   LIG    1       -0.530   2.575   3.357  0.00  0.00    -0.320 A 
ATOM     20  C   LIG    1        0.041   2.309   2.083  0.00  0.00    +0.590 A 
ATOM     21  N   LIG    1       -0.771   2.139   1.020  0.00  0.00    -0.560 N 
ATOM     22  C   LIG    1       -2.106   2.206   1.154  0.00  0.00    +0.710 A 
ATOM     23  O   LIG    1       -2.809   2.042   0.175  0.00  0.00    -0.520 OA
ATOM     24  C   LIG    1       -0.189   1.870  -0.297  0.00  0.00    +0.350 C 
ATOM     25  O   LIG    1        1.249   2.241   1.952  0.00  0.00    -0.510 OA
ATOM     26  N   LIG    1       -2.685   2.450   2.342  0.00  0.00    -0.540 N 
ATOM     27  C   LIG    1       -4.145   2.515   2.439  0.00  0.00    +0.360 C 
BRANCH  19  28
ATOM     28  C   LIG    1        0.302   2.767   4.506  0.00  0.00    +0.300 C 
ATOM     29  N   LIG    1        0.963   2.920   5.418  0.00  0.00    -0.440 NA
ENDBRANCH  19  28
ENDBRANCH  16  18
ENDBRANCH   1  16
TORSDOF 7
