REMARK  Name = ZINCrD00000hQ62w.0
REMARK                            x       y       z     vdW  Elec       q    Type
REMARK                         _______ _______ _______ _____ _____    ______ ____
ROOT
ATOM      1  C   LIG    1       -2.083   3.731   6.672  0.00  0.00    -0.140 A 
ATOM      2  C   LIG    1       -0.833   3.719   7.293  0.00  0.00    +0.070 A 
ATOM      3  C   LIG    1        0.287   3.328   6.587  0.00  0.00    +0.020 A 
ATOM      4  C   LIG    1        0.178   2.946   5.264  0.00  0.00    +0.100 A 
ATOM      5  C   LIG    1       -1.065   2.954   4.633  0.00  0.00    -0.040 A 
ATOM      6  C   LIG    1       -2.197   3.353   5.335  0.00  0.00    +0.130 A 
ENDROOT
BRANCH   5   7
ATOM      7  C   LIG    1       -1.180   2.544   3.211  0.00  0.00    +0.220 A 
ATOM      8  N   LIG    1       -2.276   2.505   2.500  0.00  0.00    -0.340 NA
ATOM      9  O   LIG    1       -2.029   2.133   1.372  0.00  0.00    +0.130 OA
ATOM     10  C   LIG    1       -0.722   1.881   1.250  0.00  0.00    +0.090 A 
ATOM     11  N   LIG    1       -0.169   2.141   2.408  0.00  0.00    -0.410 NA
BRANCH  10  12
ATOM     12  C   LIG    1       -0.017   1.395   0.010  0.00  0.00    +0.590 C 
ATOM     13  F   LIG    1       -0.694   1.858  -1.124  0.00  0.00    -0.150 F 
ATOM     14  F   LIG    1        1.296   1.879  -0.000  0.00  0.00    -0.140 F 
ATOM     15  F   LIG    1        0.002  -0.004   0.002  0.00  0.00    -0.150 F 
ENDBRANCH  10  12
ENDBRANCH   5   7
BRANCH   1  17
ATOM     16  O   LIG    1       -4.370   4.160   6.887  0.00  0.00    -0.530 OA
ATOM     17  C   LIG    1       -3.282   4.150   7.429  0.00  0.00    +0.560 C 
ATOM     18  N   LIG    1       -3.169   4.522   8.720  0.00  0.00    -0.720 N 
ATOM     19  H   LIG    1       -2.301   4.514   9.152  0.00  0.00    +0.400 HD
BRANCH  18  20
ATOM     20  C   LIG    1       -4.357   4.937   9.469  0.00  0.00    +0.290 C 
BRANCH  20  21
ATOM     21  C   LIG    1       -3.956   5.304  10.899  0.00  0.00    -0.050 C 
ATOM     22  C   LIG    1       -4.530   4.454  12.035  0.00  0.00    +0.040 C 
ATOM     23  C   LIG    1       -5.039   5.877  11.811  0.00  0.00    -0.110 C 
ATOM     24  C   LIG    1       -6.446   6.051  11.229  0.00  0.00    +0.040 C 
ATOM     25  C   LIG    1       -6.584   7.490  10.717  0.00  0.00    +0.210 C 
ATOM     26  O   LIG    1       -6.250   8.400  11.766  0.00  0.00    -0.380 OA
ATOM     27  C   LIG    1       -4.891   8.329  12.201  0.00  0.00    +0.210 C 
ATOM     28  C   LIG    1       -4.628   6.952  12.822  0.00  0.00    +0.040 C 
ENDBRANCH  20  21
ENDBRANCH  18  20
ENDBRANCH   1  17
TORSDOF 5
