REMARK  Name = ZINCrD0000072WZp.0
REMARK                            x       y       z     vdW  Elec       q    Type
REMARK                         _______ _______ _______ _____ _____    ______ ____
ROOT
ATOM      1  C   LIG    1       -0.210   1.218  -2.367  0.00  0.00    +0.530 C 
ATOM      2  O   LIG    1        0.789   0.532  -2.428  0.00  0.00    -0.480 OA
ENDROOT
BRANCH   1   3
ATOM      3  C   LIG    1       -0.875   1.674  -3.613  0.00  0.00    +0.150 A 
ATOM      4  C   LIG    1       -0.360   1.319  -4.861  0.00  0.00    +0.010 A 
ATOM      5  C   LIG    1       -1.017   1.769  -5.999  0.00  0.00    +0.350 A 
ATOM      6  N   LIG    1       -2.100   2.513  -5.867  0.00  0.00    -0.480 NA
ATOM      7  C   LIG    1       -2.565   2.834  -4.667  0.00  0.00    +0.360 A 
ATOM      8  N   LIG    1       -1.973   2.421  -3.558  0.00  0.00    -0.430 NA
BRANCH   7   9
ATOM      9  C   LIG    1       -3.785   3.673  -4.565  0.00  0.00    +0.160 A 
ATOM     10  C   LIG    1       -4.421   4.109  -5.724  0.00  0.00    +0.030 A 
ATOM     11  C   LIG    1       -5.559   4.891  -5.614  0.00  0.00    +0.060 A 
ATOM     12  C   LIG    1       -6.022   5.211  -4.347  0.00  0.00    -0.010 A 
ATOM     13  C   LIG    1       -5.340   4.743  -3.237  0.00  0.00    +0.260 A 
ATOM     14  N   LIG    1       -4.264   3.996  -3.371  0.00  0.00    -0.440 NA
ENDBRANCH   7   9
ENDBRANCH   1   3
BRANCH   1  15
ATOM     15  O   LIG    1       -0.715   1.567  -1.168  0.00  0.00    -0.320 OA
BRANCH  15  16
ATOM     16  C   LIG    1       -0.013   1.086   0.008  0.00  0.00    +0.310 C 
BRANCH  16  21
ATOM     17  C   LIG    1       -0.885   1.689   3.643  0.00  0.00    -0.120 A 
ATOM     18  C   LIG    1       -2.032   2.476   3.520  0.00  0.00    +0.100 A 
ATOM     19  C   LIG    1       -2.509   2.803   2.268  0.00  0.00    +0.020 A 
ATOM     20  C   LIG    1       -1.854   2.352   1.134  0.00  0.00    +0.110 A 
ATOM     21  C   LIG    1       -0.718   1.572   1.248  0.00  0.00    -0.100 A 
ATOM     22  C   LIG    1       -0.232   1.232   2.495  0.00  0.00    +0.020 A 
ATOM     23 CL   LIG    1        1.190   0.247   2.636  0.00  0.00    -0.020 Cl
BRANCH  17  24
ATOM     24  C   LIG    1       -0.369   1.335   4.981  0.00  0.00    +0.500 C 
ATOM     25  O   LIG    1        0.629   0.650   5.085  0.00  0.00    -0.480 OA
BRANCH  24  27
ATOM     26  C   LIG    1       -0.440   1.386   7.367  0.00  0.00    +0.280 C 
ATOM     27  O   LIG    1       -1.004   1.772   6.085  0.00  0.00    -0.360 OA
ENDBRANCH  24  27
ENDBRANCH  17  24
ENDBRANCH  16  21
ENDBRANCH  15  16
ENDBRANCH   1  15
TORSDOF 7
