REMARK  Name = ZINCrH000004pxXE.0
REMARK                            x       y       z     vdW  Elec       q    Type
REMARK                         _______ _______ _______ _____ _____    ______ ____
ROOT
ATOM      1  C   LIG    1       -3.570   8.088  -0.514  0.00  0.00    +0.510 C 
ATOM      2  N   LIG    1       -2.473   8.860  -0.642  0.00  0.00    -0.670 N 
ATOM      3  H   LIG    1       -1.619   8.548  -0.306  0.00  0.00    +0.420 HD
ATOM      4  O   LIG    1       -4.621   8.441  -1.006  0.00  0.00    -0.480 OA
ENDROOT
BRANCH   2   5
ATOM      5  C   LIG    1       -2.567  10.112  -1.261  0.00  0.00    +0.150 A 
ATOM      6  C   LIG    1       -1.458  10.658  -1.895  0.00  0.00    +0.020 A 
ATOM      7  C   LIG    1       -1.547  11.892  -2.512  0.00  0.00    +0.050 A 
ATOM      8  C   LIG    1       -2.736  12.594  -2.493  0.00  0.00    +0.010 A 
ATOM      9  C   LIG    1       -3.853  12.056  -1.854  0.00  0.00    -0.020 A 
ATOM     10  C   LIG    1       -3.765  10.809  -1.237  0.00  0.00    +0.080 A 
BRANCH   9  11
ATOM     11  C   LIG    1       -5.129  12.806  -1.833  0.00  0.00    +0.290 A 
ATOM     12  N   LIG    1       -6.328  12.306  -1.619  0.00  0.00    -0.310 NA
ATOM     13  N   LIG    1       -7.217  13.231  -1.669  0.00  0.00    -0.040 NA
ATOM     14  N   LIG    1       -6.666  14.370  -1.913  0.00  0.00    -0.080 NA
ATOM     15  N   LIG    1       -5.284  14.139  -2.024  0.00  0.00    -0.350 N 
BRANCH  15  16
ATOM     16  C   LIG    1       -4.235  15.127  -2.292  0.00  0.00    +0.210 C 
ATOM     17  C   LIG    1       -4.631  16.605  -2.258  0.00  0.00    +0.090 C 
ATOM     18  C   LIG    1       -4.331  15.923  -3.595  0.00  0.00    +0.060 C 
ENDBRANCH  15  16
ENDBRANCH   9  11
ENDBRANCH   2   5
BRANCH   1  20
ATOM     19  C   LIG    1       -2.469   5.867  -0.433  0.00  0.00    +0.060 C 
ATOM     20  C   LIG    1       -3.491   6.786   0.240  0.00  0.00    +0.180 C 
BRANCH  20  21
ATOM     21  O   LIG    1       -4.773   6.155   0.237  0.00  0.00    -0.280 OA
BRANCH  21  22
ATOM     22  C   LIG    1       -5.109   5.434   1.339  0.00  0.00    +0.130 A 
ATOM     23  C   LIG    1       -4.177   5.232   2.348  0.00  0.00    -0.060 A 
ATOM     24  C   LIG    1       -4.520   4.499   3.467  0.00  0.00    +0.070 A 
ATOM     25  C   LIG    1       -5.792   3.966   3.583  0.00  0.00    -0.070 A 
ATOM     26  C   LIG    1       -6.720   4.161   2.576  0.00  0.00    +0.070 A 
ATOM     27 CL   LIG    1       -6.220   3.045   4.991  0.00  0.00    -0.070 Cl
ATOM     28  C   LIG    1       -6.383   4.898   1.458  0.00  0.00    +0.010 A 
ENDBRANCH  21  22
ENDBRANCH  20  21
ENDBRANCH   1  20
TORSDOF 6
