REMARK  Name = ZINCrD000000BIO7.0
REMARK                            x       y       z     vdW  Elec       q    Type
REMARK                         _______ _______ _______ _____ _____    ______ ____
ROOT
ATOM      1  O   LIG    1        6.241   2.242  -3.366  0.00  0.00    -0.520 OA
ATOM      2  C   LIG    1        5.277   2.024  -4.068  0.00  0.00    +0.530 C 
ATOM      3  N   LIG    1        5.423   1.935  -5.405  0.00  0.00    -0.720 N 
ATOM      4  H   LIG    1        4.651   1.760  -5.966  0.00  0.00    +0.410 HD
ENDROOT
BRANCH   3   5
ATOM      5  C   LIG    1        6.746   2.102  -6.010  0.00  0.00    +0.290 C 
ATOM      6  C   LIG    1        6.589   2.579  -7.456  0.00  0.00    +0.010 C 
ATOM      7  C   LIG    1        7.951   2.463  -8.152  0.00  0.00    +0.260 C 
ATOM      8  O   LIG    1        8.309   1.081  -8.215  0.00  0.00    -0.310 OA
ATOM      9  C   LIG    1        8.216   0.349  -7.074  0.00  0.00    +0.140 A 
ATOM     10  C   LIG    1        8.882  -0.870  -7.013  0.00  0.00    -0.020 A 
ATOM     11  C   LIG    1        8.806  -1.647  -5.874  0.00  0.00    +0.050 A 
ATOM     12  C   LIG    1        8.065  -1.211  -4.790  0.00  0.00    -0.040 A 
ATOM     13  C   LIG    1        7.404   0.000  -4.847  0.00  0.00    +0.060 A 
ATOM     14  C   LIG    1        7.479   0.784  -5.987  0.00  0.00    -0.180 A 
ENDBRANCH   3   5
BRANCH   2  15
ATOM     15  C   LIG    1        3.915   1.852  -3.446  0.00  0.00    -0.010 C 
ATOM     16  C   LIG    1        3.413   0.398  -3.605  0.00  0.00    +0.070 C 
ATOM     17  C   LIG    1        2.689   0.110  -2.308  0.00  0.00    +0.520 C 
ATOM     18  N   LIG    1        3.021   1.025  -1.380  0.00  0.00    -0.620 N 
ATOM     19  O   LIG    1        1.920  -0.811  -2.131  0.00  0.00    -0.510 OA
ATOM     20  C   LIG    1        3.987   1.994  -1.909  0.00  0.00    +0.300 C 
BRANCH  18  21
ATOM     21  C   LIG    1        2.490   1.047  -0.015  0.00  0.00    +0.370 C 
BRANCH  21  22
ATOM     22  C   LIG    1        1.182   1.796   0.003  0.00  0.00    -0.090 A 
ATOM     23  C   LIG    1        0.734   2.432  -1.139  0.00  0.00    +0.030 A 
ATOM     24  C   LIG    1       -0.463   3.123  -1.121  0.00  0.00    +0.020 A 
ATOM     25  C   LIG    1       -1.218   3.170   0.036  0.00  0.00    +0.020 A 
ATOM     26  C   LIG    1       -0.771   2.534   1.179  0.00  0.00    +0.030 A 
ATOM     27  C   LIG    1        0.430   1.847   1.163  0.00  0.00    -0.030 A 
ATOM     28 CL   LIG    1        0.992   1.048   2.598  0.00  0.00    -0.060 Cl
ENDBRANCH  21  22
ENDBRANCH  18  21
ENDBRANCH   2  15
TORSDOF 4
