REMARK  Name = ZINCpk00000y6xEG.1
REMARK                            x       y       z     vdW  Elec       q    Type
REMARK                         _______ _______ _______ _____ _____    ______ ____
ROOT
ATOM      1  C   LIG    1        0.750   0.086  -2.351  0.00  0.00    +0.160 C 
ATOM      2  C   LIG    1        2.096   0.746  -2.046  0.00  0.00    +0.030 C 
ATOM      3  C   LIG    1        1.897   2.061  -1.313  0.00  0.00    +0.030 C 
ATOM      4  C   LIG    1        1.324   1.903   0.083  0.00  0.00    +0.010 C 
ATOM      5  C   LIG    1       -0.113   1.380   0.027  0.00  0.00    +0.290 C 
ATOM      6  N   LIG    1       -0.078  -0.090  -0.030  0.00  0.00    -0.600 N 
ATOM      7  C   LIG    1        0.322  -0.714  -1.139  0.00  0.00    +0.520 C 
ATOM      8  O   LIG    1        0.342  -1.926  -1.177  0.00  0.00    -0.520 OA
ENDROOT
BRANCH   1   9
ATOM      9  N   LIG    1       -0.253   1.120  -2.639  0.00  0.00    -0.670 NA
ATOM     10  H   LIG    1       -1.180   0.800  -2.402  0.00  0.00    +0.350 HD
BRANCH   9  11
ATOM     11  C   LIG    1       -0.185   1.542  -4.045  0.00  0.00    +0.250 C 
BRANCH  11  15
ATOM     12  C   LIG    1       -3.073   4.480  -4.759  0.00  0.00    +0.320 A 
ATOM     13  N   LIG    1       -1.869   4.846  -4.367  0.00  0.00    -0.520 NA
ATOM     14  C   LIG    1       -0.929   3.944  -4.132  0.00  0.00    +0.340 A 
ATOM     15  C   LIG    1       -1.226   2.601  -4.302  0.00  0.00    -0.200 A 
ATOM     16  C   LIG    1       -2.501   2.256  -4.721  0.00  0.00    +0.320 A 
ATOM     17  N   LIG    1       -3.391   3.212  -4.931  0.00  0.00    -0.520 NA
BRANCH  12  19
ATOM     18  C   LIG    1       -4.043   5.979  -6.479  0.00  0.00    +0.050 C 
ATOM     19  C   LIG    1       -4.114   5.539  -5.016  0.00  0.00    +0.120 C 
ENDBRANCH  12  19
ENDBRANCH  11  15
ENDBRANCH   9  11
ENDBRANCH   1   9
BRANCH   6  20
ATOM     20  C   LIG    1       -0.484  -0.873   1.140  0.00  0.00    +0.460 C 
BRANCH  20  21
ATOM     21  C   LIG    1       -1.963  -1.156   1.066  0.00  0.00    +0.160 A 
ATOM     22  N   LIG    1       -2.532  -2.192   0.500  0.00  0.00    -0.460 NA
ATOM     23  C   LIG    1       -3.854  -2.022   0.679  0.00  0.00    +0.170 A 
ATOM     24  N   LIG    1       -4.018  -0.911   1.333  0.00  0.00    -0.380 NA
ATOM     25  C   LIG    1       -4.945  -2.948   0.207  0.00  0.00    +0.210 C 
ATOM     26  O   LIG    1       -2.943  -0.401   1.570  0.00  0.00    +0.080 OA
ENDBRANCH  20  21
ENDBRANCH   6  20
TORSDOF 6
