REMARK  Name = ZINCrD000000CYOZ.0
REMARK                            x       y       z     vdW  Elec       q    Type
REMARK                         _______ _______ _______ _____ _____    ______ ____
ROOT
ATOM      1  N   LIG    1       -0.351   1.769  -0.404  0.00  0.00    -0.720 N 
ATOM      2  H   LIG    1       -1.264   2.088  -0.329  0.00  0.00    +0.410 HD
ENDROOT
BRANCH   1   5
ATOM      3  O   LIG    1        1.066   1.995  -2.911  0.00  0.00    -0.480 OA
ATOM      4  C   LIG    1        0.998   2.898  -2.104  0.00  0.00    +0.500 C 
ATOM      5  C   LIG    1        0.742   2.720  -0.624  0.00  0.00    +0.250 C 
ATOM      6  C   LIG    1        0.339   4.130  -0.133  0.00  0.00    +0.070 C 
ATOM      7  C   LIG    1        1.013   5.035  -1.188  0.00  0.00    +0.270 C 
ATOM      8  N   LIG    1        1.138   4.206  -2.393  0.00  0.00    -0.560 N 
BRANCH   8   9
ATOM      9  C   LIG    1        1.376   4.709  -3.676  0.00  0.00    +0.180 A 
ATOM     10  C   LIG    1        1.479   3.842  -4.756  0.00  0.00    +0.010 A 
ATOM     11  C   LIG    1        1.713   4.341  -6.022  0.00  0.00    +0.060 A 
ATOM     12  C   LIG    1        1.845   5.704  -6.216  0.00  0.00    +0.000 A 
ATOM     13  C   LIG    1        1.744   6.571  -5.143  0.00  0.00    -0.010 A 
ATOM     14 CL   LIG    1        1.911   8.281  -5.391  0.00  0.00    -0.060 Cl
ATOM     15  C   LIG    1        1.503   6.078  -3.874  0.00  0.00    -0.010 A 
ENDBRANCH   8   9
ENDBRANCH   1   5
BRANCH   1  16
ATOM     16  C   LIG    1       -0.078   0.402  -0.307  0.00  0.00    +0.240 A 
ATOM     17  C   LIG    1        1.209  -0.068  -0.530  0.00  0.00    -0.060 A 
ATOM     18  C   LIG    1        1.476  -1.420  -0.429  0.00  0.00    +0.050 A 
ATOM     19  C   LIG    1        0.461  -2.305  -0.116  0.00  0.00    -0.050 A 
ATOM     20  C   LIG    1       -0.823  -1.840   0.102  0.00  0.00    +0.050 A 
ATOM     21  C   LIG    1       -1.096  -0.490   0.008  0.00  0.00    -0.150 A 
BRANCH  21  22
ATOM     22  C   LIG    1       -2.495   0.015   0.246  0.00  0.00    +0.230 C 
BRANCH  22  23
ATOM     23  N   LIG    1       -2.565   0.662   1.563  0.00  0.00    -0.530 NA
ATOM     24  C   LIG    1       -2.503  -0.335   2.642  0.00  0.00    +0.150 C 
ATOM     25  C   LIG    1       -2.518   0.384   3.994  0.00  0.00    +0.220 C 
ATOM     26  O   LIG    1       -3.688   1.202   4.080  0.00  0.00    -0.390 OA
ATOM     27  C   LIG    1       -3.781   2.184   3.044  0.00  0.00    +0.230 C 
ATOM     28  C   LIG    1       -3.778   1.484   1.683  0.00  0.00    +0.130 C 
ENDBRANCH  22  23
ENDBRANCH  21  22
ENDBRANCH   1  16
TORSDOF 5
