REMARK  Name = ZINCqH00000h3xxH.0
REMARK                            x       y       z     vdW  Elec       q    Type
REMARK                         _______ _______ _______ _____ _____    ______ ____
ROOT
ATOM      1  N   LIG    1       -3.208  -3.081  -0.428  0.00  0.00    -0.680 NA
ATOM      2  H   LIG    1       -3.429  -2.215  -0.896  0.00  0.00    +0.350 HD
ENDROOT
BRANCH   1   3
ATOM      3  C   LIG    1       -4.430  -3.817  -0.077  0.00  0.00    +0.290 C 
BRANCH   3   7
ATOM      4  N   LIG    1       -6.664  -3.787  -2.982  0.00  0.00    -0.320 N 
ATOM      5  C   LIG    1       -6.107  -5.010  -3.134  0.00  0.00    +0.230 A 
ATOM      6  C   LIG    1       -5.227  -5.190  -2.121  0.00  0.00    -0.080 A 
ATOM      7  C   LIG    1       -5.253  -4.044  -1.319  0.00  0.00    +0.090 A 
ATOM      8  N   LIG    1       -6.111  -3.202  -1.836  0.00  0.00    -0.280 NA
BRANCH   4  13
ATOM      9  F   LIG    1      -10.446  -1.506  -6.295  0.00  0.00    -0.130 F 
ATOM     10  C   LIG    1       -9.520  -2.064  -5.484  0.00  0.00    +0.090 A 
ATOM     11  C   LIG    1       -9.060  -1.369  -4.379  0.00  0.00    +0.020 A 
ATOM     12  C   LIG    1       -8.114  -1.938  -3.549  0.00  0.00    +0.060 A 
ATOM     13  C   LIG    1       -7.625  -3.208  -3.824  0.00  0.00    +0.150 A 
ATOM     14  C   LIG    1       -8.084  -3.901  -4.935  0.00  0.00    +0.030 A 
ATOM     15  C   LIG    1       -9.034  -3.331  -5.760  0.00  0.00    +0.030 A 
ENDBRANCH   4  13
ENDBRANCH   3   7
ENDBRANCH   1   3
BRANCH   1  16
ATOM     16  C   LIG    1       -2.379  -2.840   0.760  0.00  0.00    +0.240 C 
BRANCH  16  17
ATOM     17  C   LIG    1       -1.137  -2.085   0.362  0.00  0.00    -0.070 A 
ATOM     18  C   LIG    1        0.001  -2.775  -0.008  0.00  0.00    +0.070 A 
ATOM     19  C   LIG    1        1.144  -2.085  -0.372  0.00  0.00    -0.030 A 
ATOM     20  C   LIG    1        1.148  -0.698  -0.367  0.00  0.00    +0.060 A 
ATOM     21  O   LIG    1        2.281  -0.032  -0.722  0.00  0.00    -0.300 OA
ATOM     22  C   LIG    1        2.135   1.351  -1.064  0.00  0.00    +0.230 C 
ATOM     23  C   LIG    1        1.254   2.018   0.001  0.00  0.00    +0.230 C 
ATOM     24  O   LIG    1       -0.016   1.357   0.009  0.00  0.00    -0.300 OA
ATOM     25  C   LIG    1        0.002  -0.004   0.002  0.00  0.00    +0.060 A 
ATOM     26 CL   LIG    1        2.572  -2.956  -0.835  0.00  0.00    -0.050 Cl
ATOM     27  C   LIG    1       -1.139  -0.702   0.368  0.00  0.00    +0.040 A 
ENDBRANCH  16  17
ENDBRANCH   1  16
TORSDOF 5
