REMARK  Name = ZINCpk00000y6wa0.0
REMARK                            x       y       z     vdW  Elec       q    Type
REMARK                         _______ _______ _______ _____ _____    ______ ____
ROOT
ATOM      1  C   LIG    1       -2.842   3.394   1.477  0.00  0.00    +0.520 C 
ATOM      2  N   LIG    1       -3.384   3.780   2.649  0.00  0.00    -0.720 N 
ATOM      3  H   LIG    1       -2.985   3.493   3.486  0.00  0.00    +0.410 HD
ATOM      4  O   LIG    1       -3.340   3.752   0.431  0.00  0.00    -0.540 OA
ENDROOT
BRANCH   2   5
ATOM      5  C   LIG    1       -4.576   4.632   2.660  0.00  0.00    +0.230 C 
ATOM      6  C   LIG    1       -5.858   3.769   2.671  0.00  0.00    +0.020 C 
ATOM      7  C   LIG    1       -6.559   4.156   3.992  0.00  0.00    +0.210 C 
ATOM      8  O   LIG    1       -5.500   4.648   4.841  0.00  0.00    -0.350 OA
ATOM      9  C   LIG    1       -4.654   5.437   3.976  0.00  0.00    +0.270 C 
BRANCH   9  10
ATOM     10  C   LIG    1       -3.281   5.589   4.580  0.00  0.00    +0.230 A 
ATOM     11  N   LIG    1       -2.563   6.681   4.568  0.00  0.00    -0.300 NA
ATOM     12  N   LIG    1       -1.363   6.384   5.236  0.00  0.00    -0.480 N 
ATOM     13  H   LIG    1       -0.621   6.988   5.393  0.00  0.00    +0.450 HD
ATOM     14  C   LIG    1       -1.449   5.097   5.614  0.00  0.00    +0.500 A 
ATOM     15  N   LIG    1       -2.607   4.633   5.218  0.00  0.00    -0.530 NA
ENDBRANCH   9  10
ENDBRANCH   2   5
BRANCH   1  16
ATOM     16  C   LIG    1       -1.616   2.517   1.466  0.00  0.00    +0.040 C 
BRANCH  16  17
ATOM     17  C   LIG    1       -1.208   2.228   0.020  0.00  0.00    +0.330 C 
BRANCH  17  27
ATOM     18  C   LIG    1        1.714   3.241   0.003  0.00  0.00    +0.190 C 
ATOM     19  C   LIG    1        1.276   1.799  -0.001  0.00  0.00    +0.280 A 
ATOM     20  N   LIG    1        2.081   0.776  -0.014  0.00  0.00    -0.490 NA
ATOM     21  C   LIG    1        1.358  -0.373  -0.013  0.00  0.00    +0.050 A 
ATOM     22  C   LIG    1        1.701  -1.728  -0.023  0.00  0.00    +0.060 A 
ATOM     23  C   LIG    1        0.720  -2.679  -0.018  0.00  0.00    +0.000 A 
ATOM     24  C   LIG    1       -0.618  -2.315  -0.004  0.00  0.00    +0.030 A 
ATOM     25  C   LIG    1       -0.981  -0.984   0.006  0.00  0.00    +0.010 A 
ATOM     26  C   LIG    1        0.002  -0.004   0.002  0.00  0.00    +0.050 A 
ATOM     27  N   LIG    1       -0.017   1.376   0.010  0.00  0.00    -0.490 N 
ENDBRANCH  17  27
ENDBRANCH  16  17
ENDBRANCH   1  16
TORSDOF 5
