REMARK  Name = ZINCpk00000y6wa0.1
REMARK                            x       y       z     vdW  Elec       q    Type
REMARK                         _______ _______ _______ _____ _____    ______ ____
ROOT
ATOM      1  C   LIG    1       -0.387  -0.209  -0.395  0.00  0.00    +0.530 C 
ATOM      2  N   LIG    1       -0.271   1.103  -0.107  0.00  0.00    -0.700 N 
ATOM      3  H   LIG    1        0.602   1.483   0.077  0.00  0.00    +0.420 HD
ATOM      4  O   LIG    1       -1.479  -0.685  -0.625  0.00  0.00    -0.550 OA
ENDROOT
BRANCH   2   5
ATOM      5  C   LIG    1       -1.462   1.955  -0.079  0.00  0.00    +0.240 C 
ATOM      6  C   LIG    1       -1.534   2.740   1.250  0.00  0.00    +0.020 C 
ATOM      7  C   LIG    1       -1.474   4.221   0.814  0.00  0.00    +0.210 C 
ATOM      8  O   LIG    1       -0.821   4.201  -0.474  0.00  0.00    -0.350 OA
ATOM      9  C   LIG    1       -1.368   3.054  -1.160  0.00  0.00    +0.250 C 
BRANCH   9  10
ATOM     10  C   LIG    1       -0.447   2.619  -2.271  0.00  0.00    +0.180 A 
ATOM     11  N   LIG    1        0.812   2.295  -2.150  0.00  0.00    -0.270 NA
ATOM     12  N   LIG    1        1.288   1.971  -3.300  0.00  0.00    -0.290 NA
ATOM     13  C   LIG    1        0.356   2.083  -4.208  0.00  0.00    +0.390 A 
ATOM     14  N   LIG    1       -0.771   2.497  -3.581  0.00  0.00    -0.570 N 
ATOM     15  H   LIG    1       -1.634   2.671  -3.987  0.00  0.00    +0.430 HD
ENDBRANCH   9  10
ENDBRANCH   2   5
BRANCH   1  16
ATOM     16  C   LIG    1        0.839  -1.084  -0.430  0.00  0.00    +0.050 C 
BRANCH  16  17
ATOM     17  C   LIG    1        0.432  -2.518  -0.778  0.00  0.00    +0.330 C 
BRANCH  17  27
ATOM     18  C   LIG    1        2.174  -3.055  -3.276  0.00  0.00    +0.190 C 
ATOM     19  C   LIG    1        2.405  -3.620  -1.898  0.00  0.00    +0.290 A 
ATOM     20  N   LIG    1        3.382  -4.414  -1.572  0.00  0.00    -0.490 NA
ATOM     21  C   LIG    1        3.290  -4.736  -0.256  0.00  0.00    +0.050 A 
ATOM     22  C   LIG    1        4.053  -5.538   0.595  0.00  0.00    +0.070 A 
ATOM     23  C   LIG    1        3.698  -5.668   1.908  0.00  0.00    +0.000 A 
ATOM     24  C   LIG    1        2.583  -5.011   2.408  0.00  0.00    +0.030 A 
ATOM     25  C   LIG    1        1.815  -4.214   1.586  0.00  0.00    +0.010 A 
ATOM     26  C   LIG    1        2.161  -4.069   0.249  0.00  0.00    +0.050 A 
ATOM     27  N   LIG    1        1.625  -3.369  -0.812  0.00  0.00    -0.490 N 
ENDBRANCH  17  27
ENDBRANCH  16  17
ENDBRANCH   1  16
TORSDOF 5
