REMARK  Name = ZINCpe000000V0CO.0
REMARK                            x       y       z     vdW  Elec       q    Type
REMARK                         _______ _______ _______ _____ _____    ______ ____
ROOT
ATOM      1  C   LIG    1       -0.749   7.040   0.114  0.00  0.00    +0.590 C 
ATOM      2  N   LIG    1        0.088   5.986   0.062  0.00  0.00    -0.610 N 
ATOM      3  C   LIG    1        0.548   5.450  -1.229  0.00  0.00    +0.300 C 
ATOM      4  C   LIG    1        0.302   3.937  -1.243  0.00  0.00    +0.180 C 
ATOM      5  N   LIG    1        0.927   3.331  -0.061  0.00  0.00    -0.490 N 
ATOM      6  C   LIG    1        0.319   3.831   1.179  0.00  0.00    +0.180 C 
ATOM      7  C   LIG    1        0.567   5.339   1.293  0.00  0.00    +0.290 C 
ATOM      8  O   LIG    1       -1.080   7.605  -0.911  0.00  0.00    -0.530 OA
ENDROOT
BRANCH   5   9
ATOM      9  C   LIG    1        0.866   1.937  -0.121  0.00  0.00    +0.030 A 
ATOM     10  C   LIG    1       -0.360   1.287  -0.186  0.00  0.00    +0.230 A 
ATOM     11  N   LIG    1       -0.421  -0.028  -0.243  0.00  0.00    -0.480 NA
ATOM     12  C   LIG    1        0.665  -0.775  -0.242  0.00  0.00    +0.260 A 
ATOM     13  C   LIG    1        1.922  -0.202  -0.180  0.00  0.00    -0.030 A 
ATOM     14  C   LIG    1        2.034   1.177  -0.118  0.00  0.00    -0.010 A 
ATOM     15  C   LIG    1        3.386   1.839  -0.049  0.00  0.00    +0.120 C 
ENDBRANCH   5   9
BRANCH   1  18
ATOM     16  C   LIG    1       -1.398   8.073   3.583  0.00  0.00    -0.570 A 
ATOM     17  C   LIG    1       -0.527   7.590   2.683  0.00  0.00    +0.120 A 
ATOM     18  C   LIG    1       -1.263   7.509   1.413  0.00  0.00    -0.260 A 
ATOM     19  C   LIG    1       -2.519   7.965   1.687  0.00  0.00    +0.320 A 
ATOM     20  O   LIG    1       -2.578   8.289   2.982  0.00  0.00    -0.120 OA
BRANCH  16  21
ATOM     21  S   LIG    1       -1.047   8.374   5.284  0.00  0.00    +2.720 S 
ATOM     22  O   LIG    1        0.050   7.536   5.622  0.00  0.00    -0.930 OA
ATOM     23  O   LIG    1       -2.294   8.335   5.964  0.00  0.00    -0.930 OA
BRANCH  21  25
ATOM     24  C   LIG    1       -1.391  11.049   5.082  0.00  0.00    +0.300 C 
ATOM     25  N   LIG    1       -0.499   9.932   5.402  0.00  0.00    -1.110 NA
ATOM     26  H   LIG    1        0.413  10.106   5.683  0.00  0.00    +0.420 HD
ENDBRANCH  21  25
ENDBRANCH  16  21
ENDBRANCH   1  18
TORSDOF 4
