REMARK  Name = ZINCqH0000038AqX.0
REMARK                            x       y       z     vdW  Elec       q    Type
REMARK                         _______ _______ _______ _____ _____    ______ ____
ROOT
ATOM      1  C   LIG    1        1.514   3.314   0.005  0.00  0.00    +0.610 C 
ATOM      2  N   LIG    1        2.791   3.746  -0.005  0.00  0.00    -0.700 N 
ATOM      3  H   LIG    1        3.519   3.106  -0.015  0.00  0.00    +0.400 HD
ATOM      4  O   LIG    1        0.600   4.117   0.018  0.00  0.00    -0.510 OA
ENDROOT
BRANCH   1   7
ATOM      5  C   LIG    1       -1.291   2.105   0.020  0.00  0.00    +0.180 C 
ATOM      6  C   LIG    1       -0.016   1.302   0.009  0.00  0.00    +0.170 A 
ATOM      7  C   LIG    1        1.227   1.877   0.000  0.00  0.00    -0.310 A 
ATOM      8  S   LIG    1        2.419   0.579  -0.018  0.00  0.00    +0.190 S 
ATOM      9  C   LIG    1        1.168  -0.586  -0.012  0.00  0.00    +0.100 A 
ATOM     10  N   LIG    1        0.002  -0.004   0.002  0.00  0.00    -0.470 NA
BRANCH   9  11
ATOM     11  C   LIG    1        1.380  -2.049  -0.022  0.00  0.00    -0.030 A 
ATOM     12  C   LIG    1        2.675  -2.569  -0.042  0.00  0.00    +0.060 A 
ATOM     13  C   LIG    1        2.866  -3.935  -0.045  0.00  0.00    +0.030 A 
ATOM     14  C   LIG    1        1.776  -4.790  -0.040  0.00  0.00    -0.020 A 
ATOM     15  C   LIG    1        0.489  -4.279  -0.025  0.00  0.00    +0.030 A 
ATOM     16 CL   LIG    1        2.025  -6.508  -0.051  0.00  0.00    -0.060 Cl
ATOM     17  C   LIG    1        0.285  -2.915  -0.016  0.00  0.00    +0.100 A 
ENDBRANCH   9  11
ENDBRANCH   1   7
BRANCH   2  18
ATOM     18  C   LIG    1        3.078   5.183  -0.000  0.00  0.00    +0.300 C 
BRANCH  18  19
ATOM     19  C   LIG    1        4.433   5.426  -0.612  0.00  0.00    -0.100 A 
ATOM     20  C   LIG    1        5.483   4.572  -0.329  0.00  0.00    +0.010 A 
ATOM     21  C   LIG    1        6.725   4.793  -0.894  0.00  0.00    +0.020 A 
ATOM     22  C   LIG    1        6.920   5.872  -1.735  0.00  0.00    +0.020 A 
ATOM     23  C   LIG    1        5.872   6.729  -2.014  0.00  0.00    +0.020 A 
ATOM     24  C   LIG    1        4.628   6.506  -1.452  0.00  0.00    +0.030 A 
ENDBRANCH  18  19
BRANCH  18  25
ATOM     25  C   LIG    1        3.068   5.692   1.418  0.00  0.00    +0.510 C 
ATOM     26  O   LIG    1        2.843   4.931   2.334  0.00  0.00    -0.530 OA
ATOM     27  N   LIG    1        3.309   6.995   1.667  0.00  0.00    -0.850 N 
ATOM     28  H   LIG    1        3.303   7.323   2.580  0.00  0.00    +0.410 HD
ATOM     29  H   LIG    1        3.489   7.604   0.934  0.00  0.00    +0.400 HD
ENDBRANCH  18  25
ENDBRANCH   2  18
TORSDOF 5
