REMARK  Name = ZINCrD00000hQ48v.0
REMARK                            x       y       z     vdW  Elec       q    Type
REMARK                         _______ _______ _______ _____ _____    ______ ____
ROOT
ATOM      1  C   LIG    1        8.090   7.759  -1.041  0.00  0.00    -0.100 C 
ATOM      2  C   LIG    1        7.392   7.315  -2.108  0.00  0.00    +0.140 C 
ENDROOT
BRANCH   2   3
ATOM      3  C   LIG    1        6.174   6.516  -1.908  0.00  0.00    -0.120 A 
ATOM      4  C   LIG    1        5.449   6.054  -3.013  0.00  0.00    +0.090 A 
ATOM      5  C   LIG    1        4.309   5.306  -2.820  0.00  0.00    -0.010 A 
ATOM      6  C   LIG    1        3.878   5.010  -1.532  0.00  0.00    +0.140 A 
ATOM      7  C   LIG    1        4.592   5.471  -0.432  0.00  0.00    -0.080 A 
ATOM      8  C   LIG    1        5.736   6.215  -0.613  0.00  0.00    +0.070 A 
BRANCH   6   9
ATOM      9  O   LIG    1        2.754   4.272  -1.348  0.00  0.00    -0.310 OA
BRANCH   9  10
ATOM     10  C   LIG    1        2.368   4.004   0.002  0.00  0.00    +0.270 C 
BRANCH  10  11
ATOM     11  C   LIG    1        1.107   3.179   0.009  0.00  0.00    -0.150 A 
ATOM     12  C   LIG    1        1.174   1.794   0.001  0.00  0.00    +0.090 A 
ATOM     13  C   LIG    1       -0.013   1.076   0.008  0.00  0.00    -0.030 A 
ATOM     14  C   LIG    1       -1.214   1.759   0.017  0.00  0.00    +0.270 A 
ATOM     15  N   LIG    1       -1.239   3.078   0.030  0.00  0.00    -0.490 NA
ATOM     16  C   LIG    1       -0.132   3.793   0.024  0.00  0.00    +0.290 A 
ENDBRANCH  10  11
ENDBRANCH   9  10
ENDBRANCH   6   9
ENDBRANCH   2   3
BRANCH   1  18
ATOM     17  O   LIG    1        9.681   8.814  -2.367  0.00  0.00    -0.540 OA
ATOM     18  C   LIG    1        9.302   8.553  -1.240  0.00  0.00    +0.550 C 
ATOM     19  N   LIG    1        9.998   8.997  -0.175  0.00  0.00    -0.720 N 
ATOM     20  H   LIG    1        9.696   8.790   0.723  0.00  0.00    +0.400 HD
BRANCH  19  21
ATOM     21  C   LIG    1       11.212   9.793  -0.374  0.00  0.00    +0.240 C 
ATOM     22  C   LIG    1       10.834  11.264  -0.554  0.00  0.00    +0.000 C 
ATOM     23  C   LIG    1       12.101  12.096  -0.761  0.00  0.00    +0.020 C 
ATOM     24  C   LIG    1       13.012  11.949   0.459  0.00  0.00    +0.020 C 
ATOM     25  C   LIG    1       13.391  10.478   0.639  0.00  0.00    +0.000 C 
ATOM     26  C   LIG    1       12.123   9.647   0.847  0.00  0.00    +0.020 C 
BRANCH  25  27
ATOM     27  C   LIG    1       14.303  10.332   1.859  0.00  0.00    +0.180 C 
BRANCH  27  28
ATOM     28  O   LIG    1       15.535  11.012   1.617  0.00  0.00    -0.570 OA
ATOM     29  H   LIG    1       16.163  10.962   2.351  0.00  0.00    +0.380 HD
ENDBRANCH  27  28
ENDBRANCH  25  27
ENDBRANCH  19  21
ENDBRANCH   1  18
TORSDOF 8
