REMARK  Name = ZINCvU0000000IRI.0
REMARK                            x       y       z     vdW  Elec       q    Type
REMARK                         _______ _______ _______ _____ _____    ______ ____
ROOT
ATOM      1  C   LIG    1       -1.340  -7.848   2.872  0.00  0.00    +0.130 A 
ATOM      2  C   LIG    1       -0.040  -7.924   3.207  0.00  0.00    -0.110 A 
ATOM      3  S   LIG    1        0.783  -6.512   2.548  0.00  0.00    +0.210 S 
ATOM      4  C   LIG    1       -0.739  -5.942   1.869  0.00  0.00    +0.270 A 
ATOM      5  N   LIG    1       -1.683  -6.781   2.165  0.00  0.00    -0.500 NA
ENDROOT
BRANCH   1   9
ATOM      6  C   LIG    1       -4.159 -10.820   4.013  0.00  0.00    -0.090 A 
ATOM      7  C   LIG    1       -4.571  -9.728   3.270  0.00  0.00    +0.020 A 
ATOM      8  C   LIG    1       -3.660  -8.761   2.897  0.00  0.00    +0.050 A 
ATOM      9  C   LIG    1       -2.323  -8.885   3.270  0.00  0.00    -0.020 A 
ATOM     10  C   LIG    1       -1.913  -9.990   4.013  0.00  0.00    +0.030 A 
ATOM     11  C   LIG    1       -2.833 -10.948   4.386  0.00  0.00    +0.010 A 
BRANCH   6  12
ATOM     12  C   LIG    1       -5.158 -11.873   4.418  0.00  0.00    +0.280 C 
ATOM     13  C   LIG    1       -5.582 -11.642   5.870  0.00  0.00    +0.040 C 
BRANCH  12  16
ATOM     14  C   LIG    1       -4.699 -15.647   3.973  0.00  0.00    +0.090 C 
ATOM     15  C   LIG    1       -5.326 -14.283   4.102  0.00  0.00    +0.510 C 
ATOM     16  N   LIG    1       -4.548 -13.199   4.293  0.00  0.00    -0.730 N 
ATOM     17  H   LIG    1       -3.585 -13.296   4.346  0.00  0.00    +0.400 HD
ATOM     18  O   LIG    1       -6.531 -14.160   4.035  0.00  0.00    -0.540 OA
ENDBRANCH  12  16
ENDBRANCH   6  12
ENDBRANCH   1   9
BRANCH   4  19
ATOM     19  N   LIG    1       -0.903  -4.774   1.135  0.00  0.00    -0.620 N 
ATOM     20  H   LIG    1       -1.780  -4.534   0.796  0.00  0.00    +0.430 HD
ATOM     21  C   LIG    1        0.155  -3.975   0.894  0.00  0.00    +0.520 C 
ATOM     22  O   LIG    1        1.251  -4.276   1.317  0.00  0.00    -0.470 OA
BRANCH  21  23
ATOM     23  C   LIG    1       -0.024  -2.708   0.098  0.00  0.00    +0.190 C 
ATOM     24  C   LIG    1       -0.552  -3.051  -1.296  0.00  0.00    +0.070 C 
BRANCH  23  25
ATOM     25  O   LIG    1        1.234  -2.039  -0.021  0.00  0.00    -0.270 OA
BRANCH  25  26
ATOM     26  C   LIG    1        1.201  -0.696  -0.226  0.00  0.00    +0.140 A 
ATOM     27  C   LIG    1       -0.011  -0.053  -0.424  0.00  0.00    -0.060 A 
ATOM     28  C   LIG    1       -0.042   1.313  -0.633  0.00  0.00    -0.040 A 
ATOM     29  C   LIG    1        1.134   2.039  -0.645  0.00  0.00    +0.000 A 
ATOM     30  C   LIG    1        2.345   1.400  -0.449  0.00  0.00    +0.070 A 
ATOM     31  C   LIG    1       -1.359   2.011  -0.854  0.00  0.00    +0.100 C 
ATOM     32  C   LIG    1        2.382   0.035  -0.239  0.00  0.00    -0.070 A 
ATOM     33 CL   LIG    1        3.902  -0.766   0.008  0.00  0.00    -0.050 Cl
ENDBRANCH  25  26
ENDBRANCH  23  25
ENDBRANCH  21  23
ENDBRANCH   4  19
TORSDOF 7
