REMARK  Name = ZINCrH000004qhwn.0
REMARK                            x       y       z     vdW  Elec       q    Type
REMARK                         _______ _______ _______ _____ _____    ______ ____
ROOT
ATOM      1  C   LIG    1       -7.633   6.122   0.611  0.00  0.00    +0.100 C 
ATOM      2  C   LIG    1       -7.201   5.992  -0.827  0.00  0.00    -0.130 A 
ATOM      3  C   LIG    1       -8.123   6.144  -1.838  0.00  0.00    +0.090 A 
ATOM      4  C   LIG    1       -7.721   6.024  -3.171  0.00  0.00    -0.060 A 
ATOM      5  C   LIG    1       -6.386   5.749  -3.473  0.00  0.00    +0.100 A 
ATOM      6  C   LIG    1       -5.467   5.603  -2.457  0.00  0.00    +0.030 A 
ATOM      7  C   LIG    1       -5.871   5.718  -1.131  0.00  0.00    +0.200 A 
ENDROOT
BRANCH   7   8
ATOM      8  N   LIG    1       -4.939   5.565  -0.103  0.00  0.00    -0.680 N 
ATOM      9  H   LIG    1       -5.096   5.980   0.759  0.00  0.00    +0.410 HD
ATOM     10  C   LIG    1       -3.821   4.841  -0.310  0.00  0.00    +0.710 C 
ATOM     11  N   LIG    1       -2.869   4.786   0.642  0.00  0.00    -0.620 N 
ATOM     12  C   LIG    1       -3.048   5.513   1.901  0.00  0.00    +0.280 C 
ATOM     13  O   LIG    1       -3.672   4.237  -1.355  0.00  0.00    -0.560 OA
BRANCH  11  14
ATOM     14  C   LIG    1       -1.654   3.999   0.418  0.00  0.00    +0.360 C 
BRANCH  14  15
ATOM     15  C   LIG    1       -1.870   2.590   0.908  0.00  0.00    -0.200 C 
ATOM     16  C   LIG    1       -2.250   1.686   0.055  0.00  0.00    +0.010 C 
ATOM     17  C   LIG    1       -2.501   0.257   0.449  0.00  0.00    +0.040 C 
ATOM     18  C   LIG    1       -1.859  -0.020   1.812  0.00  0.00    +0.220 C 
ATOM     19  O   LIG    1       -2.225   1.037   2.708  0.00  0.00    -0.380 OA
ATOM     20  C   LIG    1       -1.637   2.292   2.362  0.00  0.00    +0.260 C 
ENDBRANCH  14  15
ENDBRANCH  11  14
ENDBRANCH   7   8
BRANCH   4  21
ATOM     21  C   LIG    1       -8.707   6.187  -4.258  0.00  0.00    +0.240 A 
ATOM     22  N   LIG    1       -8.472   6.106  -5.557  0.00  0.00    -0.470 NA
ATOM     23  C   LIG    1       -9.656   6.319  -6.151  0.00  0.00    +0.210 A 
ATOM     24  N   LIG    1      -10.535   6.523  -5.215  0.00  0.00    -0.390 NA
ATOM     25  O   LIG    1      -10.015   6.453  -4.121  0.00  0.00    +0.080 OA
BRANCH  23  26
ATOM     26  C   LIG    1       -9.918   6.325  -7.635  0.00  0.00    +0.060 C 
ATOM     27  C   LIG    1      -11.296   6.794  -8.106  0.00  0.00    +0.050 C 
ATOM     28  C   LIG    1      -10.927   5.311  -8.179  0.00  0.00    +0.050 C 
ENDBRANCH  23  26
ENDBRANCH   4  21
TORSDOF 5
