REMARK  Name = ZINCrD000000AkYP.0
REMARK                            x       y       z     vdW  Elec       q    Type
REMARK                         _______ _______ _______ _____ _____    ______ ____
ROOT
ATOM      1  N   LIG    1        3.671   6.178   0.312  0.00  0.00    -0.570 N 
ATOM      2  C   LIG    1        4.414   6.527  -0.747  0.00  0.00    +0.710 C 
ATOM      3  N   LIG    1        5.641   6.959  -0.394  0.00  0.00    -0.710 N 
ATOM      4  H   LIG    1        6.346   7.262  -0.988  0.00  0.00    +0.440 HD
ATOM      5  C   LIG    1        5.697   6.879   1.066  0.00  0.00    +0.170 C 
ATOM      6  C   LIG    1        6.822   5.947   1.533  0.00  0.00    +0.090 C 
ATOM      7  C   LIG    1        7.971   6.940   1.818  0.00  0.00    +0.100 C 
ATOM      8  C   LIG    1        7.290   8.258   2.127  0.00  0.00    -0.070 A 
ATOM      9  C   LIG    1        7.780   9.398   2.739  0.00  0.00    +0.020 A 
ATOM     10  C   LIG    1        6.965  10.499   2.916  0.00  0.00    +0.030 A 
ATOM     11  C   LIG    1        5.654  10.463   2.479  0.00  0.00    +0.010 A 
ATOM     12  C   LIG    1        5.162   9.326   1.868  0.00  0.00    +0.040 A 
ATOM     13  C   LIG    1        5.976   8.220   1.689  0.00  0.00    -0.110 A 
ATOM     14  O   LIG    1        4.025   6.463  -1.897  0.00  0.00    -0.530 OA
ATOM     15  C   LIG    1        4.344   6.354   1.470  0.00  0.00    +0.540 C 
ATOM     16  O   LIG    1        3.945   6.134   2.593  0.00  0.00    -0.450 OA
ENDROOT
BRANCH   1  17
ATOM     17  C   LIG    1        2.298   5.675   0.225  0.00  0.00    +0.380 C 
BRANCH  17  19
ATOM     18  O   LIG    1        3.379   3.581   0.091  0.00  0.00    -0.500 OA
ATOM     19  C   LIG    1        2.320   4.173   0.104  0.00  0.00    +0.510 C 
ATOM     20  N   LIG    1        1.164   3.487   0.009  0.00  0.00    -0.660 N 
ATOM     21  H   LIG    1        0.322   3.964  -0.061  0.00  0.00    +0.420 HD
BRANCH  20  22
ATOM     22  C   LIG    1        1.178   2.088   0.013  0.00  0.00    +0.170 A 
ATOM     23  C   LIG    1        2.229   1.404   0.608  0.00  0.00    +0.040 A 
ATOM     24  C   LIG    1        2.241   0.023   0.610  0.00  0.00    +0.070 A 
ATOM     25  C   LIG    1        1.207  -0.680   0.021  0.00  0.00    +0.030 A 
ATOM     26  C   LIG    1        0.156  -0.003  -0.573  0.00  0.00    -0.010 A 
ATOM     27 CL   LIG    1       -1.140  -0.890  -1.312  0.00  0.00    -0.040 Cl
ATOM     28  C   LIG    1        0.139   1.379  -0.579  0.00  0.00    -0.070 A 
ATOM     29 CL   LIG    1       -1.176   2.229  -1.330  0.00  0.00    -0.040 Cl
ENDBRANCH  20  22
ENDBRANCH  17  19
ENDBRANCH   1  17
TORSDOF 3
