REMARK  Name = ZINCpk00000DDlQx.1
REMARK                            x       y       z     vdW  Elec       q    Type
REMARK                         _______ _______ _______ _____ _____    ______ ____
ROOT
ATOM      1  C   LIG    1        7.558   0.902  -0.400  0.00  0.00    +0.270 C 
ENDROOT
BRANCH   1   2
ATOM      2  C   LIG    1        6.068   0.834  -0.620  0.00  0.00    -0.150 A 
ATOM      3  C   LIG    1        5.364   1.984  -0.928  0.00  0.00    +0.010 A 
ATOM      4  C   LIG    1        4.000   1.928  -1.129  0.00  0.00    +0.030 A 
ATOM      5  C   LIG    1        3.332   0.710  -1.022  0.00  0.00    +0.060 A 
ATOM      6  C   LIG    1        4.045  -0.444  -0.707  0.00  0.00    +0.030 A 
ATOM      7  C   LIG    1        5.410  -0.377  -0.513  0.00  0.00    +0.000 A 
BRANCH   5   8
ATOM      8  C   LIG    1        1.865   0.644  -1.238  0.00  0.00    +0.070 A 
ATOM      9  N   LIG    1        1.060   1.658  -1.537  0.00  0.00    -0.370 NA
ATOM     10  N   LIG    1       -0.136   1.188  -1.641  0.00  0.00    -0.190 NA
ATOM     11  N   LIG    1       -0.111  -0.080  -1.419  0.00  0.00    -0.180 NA
ATOM     12  N   LIG    1        1.101  -0.441  -1.169  0.00  0.00    -0.370 NA
ENDBRANCH   5   8
ENDBRANCH   1   2
BRANCH   1  13
ATOM     13  O   LIG    1        7.933  -0.034   0.613  0.00  0.00    -0.550 OA
ATOM     14  H   LIG    1        7.717  -0.952   0.399  0.00  0.00    +0.380 HD
ENDBRANCH   1  13
BRANCH   1  15
ATOM     15  C   LIG    1        8.282   0.560  -1.704  0.00  0.00    +0.150 C 
BRANCH  15  17
ATOM     16  C   LIG    1       10.318  -0.277  -0.697  0.00  0.00    +0.200 C 
ATOM     17  N   LIG    1        9.725   0.774  -1.533  0.00  0.00    -0.520 NA
BRANCH  17  18
ATOM     18  C   LIG    1       10.402   0.857  -2.834  0.00  0.00    +0.130 C 
ATOM     19  C   LIG    1       11.902   1.076  -2.615  0.00  0.00    +0.060 C 
ATOM     20  C   LIG    1       12.114   2.457  -1.975  0.00  0.00    +0.180 C 
ATOM     21  C   LIG    1       11.120   2.592  -0.799  0.00  0.00    +0.080 C 
ATOM     22  C   LIG    1        9.839   3.176  -1.429  0.00  0.00    +0.080 C 
ATOM     23  C   LIG    1       10.175   3.341  -2.929  0.00  0.00    +0.180 C 
ATOM     24  N   LIG    1       11.656   3.474  -2.959  0.00  0.00    -0.400 N 
ATOM     25  C   LIG    1       12.063   4.821  -2.538  0.00  0.00    +0.320 C 
ATOM     26  H   LIG    1       12.013   3.264  -3.879  0.00  0.00    +0.420 HD
ATOM     27  C   LIG    1        9.821   2.024  -3.638  0.00  0.00    +0.070 C 
ENDBRANCH  17  18
ENDBRANCH  15  17
ENDBRANCH   1  15
TORSDOF 6
