REMARK  Name = ZINCpk00000DDlQx.0
REMARK                            x       y       z     vdW  Elec       q    Type
REMARK                         _______ _______ _______ _____ _____    ______ ____
ROOT
ATOM      1  C   LIG    1        7.868   1.245  -0.140  0.00  0.00    +0.270 C 
ENDROOT
BRANCH   1   2
ATOM      2  C   LIG    1        6.367   1.377  -0.163  0.00  0.00    -0.150 A 
ATOM      3  C   LIG    1        5.786   2.615  -0.370  0.00  0.00    +0.010 A 
ATOM      4  C   LIG    1        4.412   2.741  -0.392  0.00  0.00    +0.030 A 
ATOM      5  C   LIG    1        3.609   1.618  -0.205  0.00  0.00    +0.060 A 
ATOM      6  C   LIG    1        4.199   0.374   0.009  0.00  0.00    +0.030 A 
ATOM      7  C   LIG    1        5.574   0.259   0.023  0.00  0.00    +0.000 A 
BRANCH   5   8
ATOM      8  C   LIG    1        2.130   1.747  -0.228  0.00  0.00    +0.070 A 
ATOM      9  N   LIG    1        1.434   2.864  -0.415  0.00  0.00    -0.370 NA
ATOM     10  N   LIG    1        0.184   2.555  -0.364  0.00  0.00    -0.180 NA
ATOM     11  N   LIG    1        0.070   1.290  -0.153  0.00  0.00    -0.190 NA
ATOM     12  N   LIG    1        1.246   0.769  -0.065  0.00  0.00    -0.370 NA
ENDBRANCH   5   8
ENDBRANCH   1   2
BRANCH   1  13
ATOM     13  O   LIG    1        8.244   0.247   0.810  0.00  0.00    -0.540 OA
ATOM     14  H   LIG    1        7.884  -0.631   0.622  0.00  0.00    +0.370 HD
ENDBRANCH   1  13
BRANCH   1  15
ATOM     15  C   LIG    1        8.366   0.841  -1.529  0.00  0.00    +0.160 C 
BRANCH  15  17
ATOM     16  C   LIG    1       10.462   1.979  -1.113  0.00  0.00    +0.200 C 
ATOM     17  N   LIG    1        9.829   0.713  -1.507  0.00  0.00    -0.520 NA
BRANCH  17  18
ATOM     18  C   LIG    1       10.337   0.251  -2.805  0.00  0.00    +0.140 C 
ATOM     19  C   LIG    1        9.712  -1.105  -3.144  0.00  0.00    +0.050 C 
ATOM     20  C   LIG    1       10.212  -2.150  -2.135  0.00  0.00    +0.180 C 
ATOM     21  C   LIG    1       10.063  -1.548  -0.718  0.00  0.00    +0.090 C 
ATOM     22  C   LIG    1       11.387  -0.797  -0.467  0.00  0.00    +0.080 C 
ATOM     23  C   LIG    1       12.216  -1.013  -1.755  0.00  0.00    +0.170 C 
ATOM     24  N   LIG    1       11.681  -2.278  -2.325  0.00  0.00    -0.390 N 
ATOM     25  C   LIG    1       12.011  -2.382  -3.753  0.00  0.00    +0.310 C 
ATOM     26  H   LIG    1       12.037  -3.075  -1.818  0.00  0.00    +0.420 HD
ATOM     27  C   LIG    1       11.861   0.115  -2.737  0.00  0.00    +0.060 C 
ENDBRANCH  17  18
ENDBRANCH  15  17
ENDBRANCH   1  15
TORSDOF 6
