REMARK  Name = ZINCrD00000F5LF1.0
REMARK                            x       y       z     vdW  Elec       q    Type
REMARK                         _______ _______ _______ _____ _____    ______ ____
ROOT
ATOM      1  N   LIG    1       -0.868   9.135  -4.087  0.00  0.00    -0.550 N 
ENDROOT
BRANCH   1   2
ATOM      2  C   LIG    1       -1.404  10.053  -3.207  0.00  0.00    +0.340 A 
ATOM      3  N   LIG    1       -2.389   9.813  -2.390  0.00  0.00    -0.550 NA
ATOM      4  C   LIG    1       -2.780  10.797  -1.619  0.00  0.00    +0.210 A 
ATOM      5  C   LIG    1       -2.084  11.949  -1.789  0.00  0.00    -0.260 A 
ATOM      6  C   LIG    1       -3.907  10.661  -0.627  0.00  0.00    +0.170 C 
ATOM      7  S   LIG    1       -0.866  11.666  -3.031  0.00  0.00    +0.150 S 
BRANCH   5   8
ATOM      8  C   LIG    1       -2.297  13.175  -1.082  0.00  0.00    +0.300 C 
ATOM      9  N   LIG    1       -2.466  14.148  -0.520  0.00  0.00    -0.420 NA
ENDBRANCH   5   8
ENDBRANCH   1   2
BRANCH   1  10
ATOM     10  C   LIG    1        0.243   9.521  -4.961  0.00  0.00    +0.270 C 
BRANCH  10  11
ATOM     11  C   LIG    1       -0.311  10.073  -6.276  0.00  0.00    +0.190 C 
BRANCH  11  13
ATOM     12  C   LIG    1        0.297  11.142  -8.451  0.00  0.00    +0.030 C 
ATOM     13  C   LIG    1        0.848  10.476  -7.189  0.00  0.00    -0.010 C 
ENDBRANCH  11  13
BRANCH  11  14
ATOM     14  O   LIG    1       -1.099   9.069  -6.920  0.00  0.00    -0.550 OA
ATOM     15  H   LIG    1       -0.610   8.262  -7.133  0.00  0.00    +0.370 HD
ENDBRANCH  11  14
ENDBRANCH  10  11
ENDBRANCH   1  10
BRANCH   1  16
ATOM     16  C   LIG    1       -1.409   7.775  -4.146  0.00  0.00    +0.390 C 
BRANCH  16  17
ATOM     17  C   LIG    1       -0.668   6.897  -3.171  0.00  0.00    -0.270 A 
ATOM     18  C   LIG    1       -1.001   6.687  -1.876  0.00  0.00    +0.260 A 
ATOM     19  N   LIG    1       -0.090   5.842  -1.349  0.00  0.00    -0.370 N 
ATOM     20  N   LIG    1        0.836   5.526  -2.351  0.00  0.00    -0.290 NA
ATOM     21  C   LIG    1        0.486   6.154  -3.444  0.00  0.00    +0.240 A 
BRANCH  19  22
ATOM     22  C   LIG    1       -0.070   5.347   0.030  0.00  0.00    +0.380 C 
BRANCH  22  23
ATOM     23  C   LIG    1       -0.050   3.840   0.022  0.00  0.00    -0.110 A 
ATOM     24  C   LIG    1        1.156   3.165   0.008  0.00  0.00    +0.040 A 
ATOM     25  C   LIG    1        1.175   1.783   0.000  0.00  0.00    +0.000 A 
ATOM     26  C   LIG    1       -0.013   1.076   0.008  0.00  0.00    +0.010 A 
ATOM     27  C   LIG    1       -1.219   1.751   0.017  0.00  0.00    +0.000 A 
ATOM     28  C   LIG    1       -1.238   3.133   0.030  0.00  0.00    +0.020 A 
ENDBRANCH  22  23
ENDBRANCH  19  22
ENDBRANCH  16  17
ENDBRANCH   1  16
TORSDOF 10
