REMARK  Name = ZINCpe00000MJKDJ.0
REMARK                            x       y       z     vdW  Elec       q    Type
REMARK                         _______ _______ _______ _____ _____    ______ ____
ROOT
ATOM      1  C   LIG    1       -0.017   1.425   0.010  0.00  0.00    +0.180 C 
ATOM      2  C   LIG    1       -0.661   1.960  -1.287  0.00  0.00    +0.260 C 
ATOM      3  N   LIG    1        0.483   2.228  -2.190  0.00  0.00    -0.620 N 
ATOM      4  C   LIG    1        1.522   2.803  -1.304  0.00  0.00    +0.300 C 
ATOM      5  C   LIG    1        0.561   1.999  -3.515  0.00  0.00    +0.530 C 
ATOM      6  O   LIG    1        1.577   2.275  -4.119  0.00  0.00    -0.500 OA
ATOM      7  C   LIG    1        1.422   1.981  -0.001  0.00  0.00    +0.110 C 
ENDROOT
BRANCH   7   8
ATOM      8  C   LIG    1        1.651   2.865   1.198  0.00  0.00    -0.010 A 
ATOM      9  C   LIG    1        1.350   4.180   1.304  0.00  0.00    +0.150 A 
ATOM     10  N   LIG    1        1.729   4.554   2.548  0.00  0.00    -0.290 N 
ATOM     11  N   LIG    1        2.224   3.527   3.145  0.00  0.00    -0.080 NA
ATOM     12  C   LIG    1        1.598   5.898   3.117  0.00  0.00    +0.370 C 
ATOM     13  N   LIG    1        2.186   2.502   2.369  0.00  0.00    -0.260 NA
ENDBRANCH   7   8
BRANCH   1  15
ATOM     14  C   LIG    1       -1.114  -0.604   0.662  0.00  0.00    +0.210 C 
ATOM     15  O   LIG    1        0.002  -0.004   0.002  0.00  0.00    -0.370 OA
ENDBRANCH   1  15
BRANCH   5  16
ATOM     16  C   LIG    1       -0.612   1.401  -4.248  0.00  0.00    +0.360 C 
BRANCH  16  17
ATOM     17  N   LIG    1       -0.279   1.253  -5.667  0.00  0.00    -0.320 N 
ATOM     18  C   LIG    1       -0.350   0.108  -6.358  0.00  0.00    +0.270 A 
ATOM     19  C   LIG    1        0.039   0.371  -7.658  0.00  0.00    -0.200 A 
ATOM     20  C   LIG    1        0.171  -0.400  -8.833  0.00  0.00    +0.080 A 
ATOM     21  C   LIG    1        0.598   0.191  -9.976  0.00  0.00    -0.030 A 
ATOM     22  C   LIG    1        0.915   1.550 -10.027  0.00  0.00    +0.050 A 
ATOM     23  C   LIG    1        0.810   2.350  -8.936  0.00  0.00    +0.030 A 
ATOM     24  C   LIG    1        0.372   1.803  -7.711  0.00  0.00    +0.100 A 
ATOM     25  N   LIG    1        0.167   2.287  -6.499  0.00  0.00    -0.280 NA
ENDBRANCH  16  17
ENDBRANCH   5  16
TORSDOF 4
