REMARK  Name = ZINCpk00000y6xDK.0
REMARK                            x       y       z     vdW  Elec       q    Type
REMARK                         _______ _______ _______ _____ _____    ______ ____
ROOT
ATOM      1  C   LIG    1        3.309  -7.897   2.366  0.00  0.00    +0.110 C 
ATOM      2  C   LIG    1        2.237  -8.835   1.873  0.00  0.00    +0.510 C 
ATOM      3  N   LIG    1        1.101  -8.341   1.343  0.00  0.00    -0.610 N 
ATOM      4  C   LIG    1        0.839  -6.895   1.351  0.00  0.00    +0.290 C 
ATOM      5  C   LIG    1        0.526  -6.443  -0.079  0.00  0.00    +0.230 C 
ATOM      6  C   LIG    1       -0.622  -7.288  -0.637  0.00  0.00    +0.050 C 
ATOM      7  C   LIG    1       -0.203  -8.759  -0.677  0.00  0.00    +0.060 C 
ATOM      8  C   LIG    1        0.102  -9.237   0.747  0.00  0.00    +0.220 C 
ATOM      9  O   LIG    1        2.397 -10.034   1.955  0.00  0.00    -0.520 OA
ENDROOT
BRANCH   5  10
ATOM     10  N   LIG    1        0.135  -5.031  -0.071  0.00  0.00    -0.720 N 
ATOM     11  H   LIG    1       -0.803  -4.788  -0.037  0.00  0.00    +0.410 HD
ATOM     12  C   LIG    1        1.079  -4.070  -0.112  0.00  0.00    +0.580 C 
ATOM     13  O   LIG    1        2.256  -4.375  -0.156  0.00  0.00    -0.530 OA
BRANCH  12  14
ATOM     14  C   LIG    1        0.686  -2.648  -0.104  0.00  0.00    -0.160 A 
ATOM     15  C   LIG    1        1.642  -1.675  -0.146  0.00  0.00    +0.340 A 
ATOM     16  N   LIG    1        1.289  -0.363  -0.139  0.00  0.00    -0.400 N 
ATOM     17  C   LIG    1        1.998   0.799  -0.173  0.00  0.00    +0.360 A 
ATOM     18  N   LIG    1        1.139   1.784  -0.145  0.00  0.00    -0.250 NA
ATOM     19  N   LIG    1       -0.063   1.327  -0.096  0.00  0.00    -0.280 NA
ATOM     20  C   LIG    1       -0.034   0.006  -0.090  0.00  0.00    +0.200 A 
ATOM     21  C   LIG    1       -1.039  -0.983  -0.047  0.00  0.00    +0.100 A 
ATOM     22  C   LIG    1       -0.686  -2.292  -0.054  0.00  0.00    +0.080 A 
ENDBRANCH  12  14
ENDBRANCH   5  10
BRANCH   8  23
ATOM     23  C   LIG    1        0.653 -10.664   0.705  0.00  0.00    +0.470 C 
ATOM     24  F   LIG    1        1.902 -10.663   0.076  0.00  0.00    -0.170 F 
ATOM     25  F   LIG    1       -0.228 -11.483  -0.010  0.00  0.00    -0.190 F 
ATOM     26  F   LIG    1        0.787 -11.150   2.010  0.00  0.00    -0.160 F 
ENDBRANCH   8  23
TORSDOF 3
