REMARK  Name = ZINCrD00000hQ53d.0
REMARK                            x       y       z     vdW  Elec       q    Type
REMARK                         _______ _______ _______ _____ _____    ______ ____
ROOT
ATOM      1  C   LIG    1        0.820   1.294  -0.112  0.00  0.00    +0.260 C 
ATOM      2  C   LIG    1        2.276   1.683   0.219  0.00  0.00    +0.030 C 
ATOM      3  C   LIG    1        2.165   2.716   1.361  0.00  0.00    +0.170 C 
ATOM      4  N   LIG    1        0.853   2.430   1.998  0.00  0.00    -0.500 NA
ATOM      5  C   LIG    1       -0.048   2.125   0.857  0.00  0.00    +0.170 C 
ENDROOT
BRANCH   5   6
ATOM      6  C   LIG    1       -1.232   1.319   1.324  0.00  0.00    -0.050 A 
ATOM      7  C   LIG    1       -2.471   1.512   0.743  0.00  0.00    +0.040 A 
ATOM      8  C   LIG    1       -3.560   0.774   1.169  0.00  0.00    +0.030 A 
ATOM      9  C   LIG    1       -3.409  -0.160   2.179  0.00  0.00    +0.070 A 
ATOM     10  C   LIG    1       -2.166  -0.354   2.763  0.00  0.00    +0.070 A 
ATOM     11  F   LIG    1       -2.017  -1.265   3.749  0.00  0.00    -0.130 F 
ATOM     12  F   LIG    1       -4.472  -0.882   2.596  0.00  0.00    -0.130 F 
ATOM     13  C   LIG    1       -1.078   0.383   2.330  0.00  0.00    +0.070 A 
ENDBRANCH   5   6
BRANCH   1  15
ATOM     14  C   LIG    1        0.762   0.755  -2.488  0.00  0.00    +0.580 C 
ATOM     15  N   LIG    1        0.506   1.637  -1.501  0.00  0.00    -0.720 N 
ATOM     16  H   LIG    1        0.113   2.499  -1.711  0.00  0.00    +0.400 HD
ATOM     17  O   LIG    1        1.254  -0.325  -2.225  0.00  0.00    -0.520 OA
BRANCH  14  22
ATOM     18  C   LIG    1       -0.454   2.082  -7.858  0.00  0.00    +0.180 C 
ATOM     19  C   LIG    1       -0.130   1.728  -6.429  0.00  0.00    +0.350 A 
ATOM     20  N   LIG    1       -0.494   2.556  -5.470  0.00  0.00    -0.530 NA
ATOM     21  C   LIG    1       -0.235   2.284  -4.202  0.00  0.00    +0.360 A 
ATOM     22  C   LIG    1        0.445   1.101  -3.890  0.00  0.00    -0.260 A 
ATOM     23  C   LIG    1        0.810   0.253  -4.941  0.00  0.00    +0.240 A 
ATOM     24  C   LIG    1        1.538  -1.038  -4.665  0.00  0.00    +0.170 C 
ATOM     25  N   LIG    1        0.507   0.601  -6.179  0.00  0.00    -0.520 NA
ENDBRANCH  14  22
ENDBRANCH   1  15
BRANCH   4  26
ATOM     26  C   LIG    1        0.370   3.594   2.753  0.00  0.00    +0.120 C 
ATOM     27  C   LIG    1        1.391   3.961   3.832  0.00  0.00    +0.040 C 
ATOM     28  C   LIG    1       -0.969   3.255   3.412  0.00  0.00    +0.040 C 
ENDBRANCH   4  26
TORSDOF 4
