REMARK  Name = ZINCpe00000MJMws.2
REMARK                            x       y       z     vdW  Elec       q    Type
REMARK                         _______ _______ _______ _____ _____    ______ ____
ROOT
ATOM      1  C   LIG    1       -0.942   1.401   5.585  0.00  0.00    +0.170 C 
ATOM      2  C   LIG    1        0.430   1.452   6.290  0.00  0.00    +0.160 C 
ATOM      3  N   LIG    1        0.818   2.886   6.249  0.00  0.00    -0.500 NA
ATOM      4  C   LIG    1        0.386   3.342   4.903  0.00  0.00    +0.190 C 
ATOM      5  C   LIG    1       -0.971   2.644   4.672  0.00  0.00    +0.110 C 
ENDROOT
BRANCH   5   6
ATOM      6  C   LIG    1       -1.108   2.231   3.229  0.00  0.00    -0.010 A 
ATOM      7  C   LIG    1       -0.115   1.824   2.405  0.00  0.00    +0.140 A 
ATOM      8  N   LIG    1       -0.698   1.558   1.213  0.00  0.00    -0.290 N 
ATOM      9  N   LIG    1       -1.959   1.797   1.319  0.00  0.00    -0.080 NA
ATOM     10  C   LIG    1       -0.013   1.086   0.008  0.00  0.00    +0.370 C 
ATOM     11  N   LIG    1       -2.236   2.195   2.511  0.00  0.00    -0.260 NA
ENDBRANCH   5   6
BRANCH   1  13
ATOM     12  C   LIG    1       -2.491   0.189   6.955  0.00  0.00    +0.200 C 
ATOM     13  O   LIG    1       -1.997   1.466   6.546  0.00  0.00    -0.370 OA
ENDBRANCH   1  13
BRANCH   3  14
ATOM     14  C   LIG    1        2.269   3.043   6.418  0.00  0.00    +0.300 C 
BRANCH  14  15
ATOM     15  C   LIG    1        2.635   2.807   7.860  0.00  0.00    -0.010 A 
ATOM     16  C   LIG    1        2.965   1.624   8.426  0.00  0.00    -0.050 A 
ATOM     17  C   LIG    1        3.218   1.954   9.787  0.00  0.00    +0.110 A 
ATOM     18  N   LIG    1        3.015   3.243   9.893  0.00  0.00    -0.370 NA
ATOM     19  O   LIG    1        2.691   3.728   8.833  0.00  0.00    +0.110 OA
BRANCH  17  20
ATOM     20  C   LIG    1        3.625   1.023  10.869  0.00  0.00    -0.180 A 
ATOM     21  C   LIG    1        3.859   1.354  12.172  0.00  0.00    +0.270 A 
ATOM     22  N   LIG    1        4.205   0.227  12.824  0.00  0.00    -0.370 N 
ATOM     23  N   LIG    1        4.186  -0.832  11.908  0.00  0.00    -0.290 NA
ATOM     24  C   LIG    1        4.542   0.126  14.246  0.00  0.00    +0.360 C 
ATOM     25  C   LIG    1        3.835  -0.364  10.739  0.00  0.00    +0.270 A 
ENDBRANCH  17  20
ENDBRANCH  14  15
ENDBRANCH   3  14
TORSDOF 5
