REMARK  Name = ZINCtV000002JdJC.0
REMARK                            x       y       z     vdW  Elec       q    Type
REMARK                         _______ _______ _______ _____ _____    ______ ____
ROOT
ATOM      1  C   LIG    1        0.252   6.226   0.033  0.00  0.00    +0.170 A 
ATOM      2  C   LIG    1        0.557   7.610   0.037  0.00  0.00    -0.150 A 
ATOM      3  C   LIG    1        1.845   8.292   0.027  0.00  0.00    -0.040 A 
ATOM      4  C   LIG    1        1.764   9.621   0.035  0.00  0.00    +0.010 A 
ATOM      5  S   LIG    1        0.095  10.158   0.055  0.00  0.00    +0.210 S 
ATOM      6  C   LIG    1       -0.511   8.508   0.052  0.00  0.00    +0.100 A 
ATOM      7  N   LIG    1       -1.763   8.031   0.063  0.00  0.00    -0.480 NA
ATOM      8  C   LIG    1       -1.995   6.738   0.060  0.00  0.00    +0.540 A 
ATOM      9  N   LIG    1       -1.019   5.849   0.038  0.00  0.00    -0.460 NA
ENDROOT
BRANCH   3  10
ATOM     10  C   LIG    1        3.137   7.566   0.009  0.00  0.00    -0.050 A 
ATOM     11  C   LIG    1        3.379   6.546   0.929  0.00  0.00    +0.060 A 
ATOM     12  C   LIG    1        4.582   5.870   0.905  0.00  0.00    +0.010 A 
ATOM     13  C   LIG    1        5.553   6.211  -0.023  0.00  0.00    +0.110 A 
ATOM     14  C   LIG    1        5.319   7.227  -0.935  0.00  0.00    +0.000 A 
ATOM     15  F   LIG    1        6.731   5.550  -0.039  0.00  0.00    -0.130 F 
ATOM     16  C   LIG    1        4.117   7.905  -0.923  0.00  0.00    +0.070 A 
ENDBRANCH   3  10
BRANCH   1  17
ATOM     17  S   LIG    1        1.541   5.026   0.013  0.00  0.00    +0.270 S 
BRANCH  17  21
ATOM     18  C   LIG    1       -0.018   1.473   0.010  0.00  0.00    +0.220 A 
ATOM     19  N   LIG    1       -1.085   2.235   0.019  0.00  0.00    -0.270 NA
ATOM     20  N   LIG    1       -0.728   3.471   0.028  0.00  0.00    -0.210 NA
ATOM     21  C   LIG    1        0.583   3.547   0.016  0.00  0.00    +0.070 A 
ATOM     22  O   LIG    1        1.060   2.288   0.004  0.00  0.00    -0.200 OA
BRANCH  18  29
ATOM     23  C   LIG    1       -2.514   0.009   0.027  0.00  0.00    +0.110 C 
ATOM     24  C   LIG    1       -1.196  -0.722   0.010  0.00  0.00    -0.030 A 
ATOM     25  C   LIG    1       -1.170  -2.101   0.002  0.00  0.00    +0.020 A 
ATOM     26  C   LIG    1        0.040  -2.773  -0.015  0.00  0.00    +0.040 A 
ATOM     27  C   LIG    1        1.230  -2.068  -0.022  0.00  0.00    +0.000 A 
ATOM     28  C   LIG    1        1.218  -0.689  -0.019  0.00  0.00    +0.050 A 
ATOM     29  C   LIG    1        0.002  -0.004   0.002  0.00  0.00    -0.040 A 
ENDBRANCH  18  29
ENDBRANCH  17  21
ENDBRANCH   1  17
TORSDOF 4
