REMARK  Name = ZINCpe000000TcKc.0
REMARK                            x       y       z     vdW  Elec       q    Type
REMARK                         _______ _______ _______ _____ _____    ______ ____
ROOT
ATOM      1  C   LIG    1       -0.644  -0.335  -0.755  0.00  0.00    +0.590 C 
ATOM      2  N   LIG    1        0.158   0.539  -0.115  0.00  0.00    -0.610 N 
ATOM      3  C   LIG    1        1.225   0.081   0.791  0.00  0.00    +0.300 C 
ATOM      4  C   LIG    1        2.561   0.526   0.199  0.00  0.00    +0.130 C 
ATOM      5  C   LIG    1        2.506   1.968  -0.227  0.00  0.00    -0.230 A 
ATOM      6  C   LIG    1        1.359   2.627  -0.460  0.00  0.00    +0.180 A 
ATOM      7  N   LIG    1        1.403   3.938  -0.869  0.00  0.00    -0.640 N 
ATOM      8  H   LIG    1        0.575   4.410  -1.049  0.00  0.00    +0.440 HD
ATOM      9  C   LIG    1        2.574   4.577  -1.026  0.00  0.00    +0.700 A 
ATOM     10  N   LIG    1        3.738   3.947  -0.783  0.00  0.00    -0.660 N 
ATOM     11  H   LIG    1        4.577   4.420  -0.892  0.00  0.00    +0.430 HD
ATOM     12  O   LIG    1        2.582   5.737  -1.391  0.00  0.00    -0.530 OA
ATOM     13  C   LIG    1        3.738   2.660  -0.388  0.00  0.00    +0.550 A 
ATOM     14  O   LIG    1        4.792   2.090  -0.170  0.00  0.00    -0.500 OA
ATOM     15  C   LIG    1        0.004   1.988  -0.291  0.00  0.00    +0.360 C 
ATOM     16  O   LIG    1       -0.440  -1.531  -0.658  0.00  0.00    -0.510 OA
ENDROOT
BRANCH   1  19
ATOM     17  C   LIG    1       -2.944   0.419   0.561  0.00  0.00    +0.150 C 
ATOM     18  C   LIG    1       -2.857   0.514  -0.941  0.00  0.00    +0.130 C 
ATOM     19  C   LIG    1       -1.723   0.139  -1.543  0.00  0.00    -0.280 C 
ATOM     20  C   LIG    1       -1.567   0.215  -3.036  0.00  0.00    +0.160 C 
ATOM     21  C   LIG    1       -2.630   1.104  -3.621  0.00  0.00    -0.140 A 
ATOM     22  C   LIG    1       -2.481   1.592  -4.906  0.00  0.00    +0.040 A 
ATOM     23  C   LIG    1       -3.447   2.415  -5.453  0.00  0.00    +0.000 A 
ATOM     24  C   LIG    1       -4.568   2.751  -4.716  0.00  0.00    +0.050 A 
ATOM     25  C   LIG    1       -4.722   2.265  -3.433  0.00  0.00    +0.010 A 
ATOM     26  C   LIG    1       -3.752   1.438  -2.879  0.00  0.00    +0.100 A 
ATOM     27  O   LIG    1       -3.918   0.969  -1.619  0.00  0.00    -0.230 OA
ENDBRANCH   1  19
TORSDOF 1
