REMARK  Name = ZINCvU0000000D6j.0
REMARK                            x       y       z     vdW  Elec       q    Type
REMARK                         _______ _______ _______ _____ _____    ______ ____
ROOT
ATOM      1  C   LIG    1       -0.509  -1.586   3.219  0.00  0.00    -0.280 A 
ATOM      2  C   LIG    1       -0.863  -1.361   1.905  0.00  0.00    +0.290 A 
ATOM      3  N   LIG    1        0.022  -0.500   1.381  0.00  0.00    -0.350 N 
ATOM      4  N   LIG    1        0.962  -0.142   2.351  0.00  0.00    -0.270 NA
ATOM      5  C   LIG    1        0.683  -0.770   3.471  0.00  0.00    +0.170 A 
ENDROOT
BRANCH   5   6
ATOM      6  C   LIG    1        1.431  -0.672   4.747  0.00  0.00    -0.080 A 
ATOM      7  C   LIG    1        2.821  -0.517   4.746  0.00  0.00    +0.080 A 
ATOM      8  C   LIG    1        3.472  -0.430   5.965  0.00  0.00    -0.050 A 
ATOM      9  C   LIG    1        2.735  -0.498   7.133  0.00  0.00    +0.270 A 
ATOM     10  N   LIG    1        1.425  -0.644   7.102  0.00  0.00    -0.490 NA
ATOM     11  C   LIG    1        0.760  -0.726   5.968  0.00  0.00    +0.340 A 
ENDBRANCH   5   6
BRANCH   1  13
ATOM     12  O   LIG    1       -0.776  -2.569   5.317  0.00  0.00    -0.530 OA
ATOM     13  C   LIG    1       -1.195  -2.466   4.180  0.00  0.00    +0.590 C 
ATOM     14  N   LIG    1       -2.287  -3.158   3.799  0.00  0.00    -0.730 N 
ATOM     15  H   LIG    1       -2.621  -3.076   2.892  0.00  0.00    +0.390 HD
BRANCH  14  16
ATOM     16  C   LIG    1       -2.969  -4.034   4.755  0.00  0.00    +0.240 C 
ATOM     17  C   LIG    1       -2.287  -5.403   4.769  0.00  0.00    +0.000 C 
ATOM     18  C   LIG    1       -3.000  -6.317   5.767  0.00  0.00    +0.010 C 
ATOM     19  C   LIG    1       -4.464  -6.481   5.354  0.00  0.00    -0.010 C 
ATOM     20  C   LIG    1       -5.176  -7.396   6.352  0.00  0.00    +0.010 C 
ATOM     21  C   LIG    1       -5.107  -6.777   7.750  0.00  0.00    +0.010 C 
ATOM     22  C   LIG    1       -5.790  -5.408   7.736  0.00  0.00    +0.000 C 
ATOM     23  C   LIG    1       -5.077  -4.493   6.737  0.00  0.00    +0.010 C 
ATOM     24  C   LIG    1       -5.146  -5.112   5.340  0.00  0.00    -0.010 C 
ATOM     25  C   LIG    1       -4.433  -4.197   4.341  0.00  0.00    +0.020 C 
ENDBRANCH  14  16
ENDBRANCH   1  13
BRANCH   3  26
ATOM     26  C   LIG    1        0.002  -0.004   0.002  0.00  0.00    +0.380 C 
BRANCH  26  27
ATOM     27  C   LIG    1       -0.018   1.503   0.010  0.00  0.00    -0.120 A 
ATOM     28  C   LIG    1       -1.225   2.178   0.020  0.00  0.00    +0.020 A 
ATOM     29  C   LIG    1       -1.244   3.560   0.032  0.00  0.00    +0.010 A 
ATOM     30  C   LIG    1       -0.056   4.267   0.025  0.00  0.00    +0.010 A 
ATOM     31  C   LIG    1        1.151   3.592   0.010  0.00  0.00    +0.010 A 
ATOM     32  C   LIG    1        1.169   2.210   0.003  0.00  0.00    +0.040 A 
ENDBRANCH  26  27
ENDBRANCH   3  26
TORSDOF 5
