REMARK  Name = ZINCnE000001OCuT.0
REMARK                            x       y       z     vdW  Elec       q    Type
REMARK                         _______ _______ _______ _____ _____    ______ ____
ROOT
ATOM      1  C   LIG    1       -0.018   1.480   0.010  0.00  0.00    -0.070 A 
ATOM      2  C   LIG    1       -1.232   2.162   0.020  0.00  0.00    +0.070 A 
ATOM      3  C   LIG    1       -1.245   3.543   0.033  0.00  0.00    +0.000 A 
ATOM      4  C   LIG    1       -0.056   4.248   0.025  0.00  0.00    +0.130 A 
ATOM      5  C   LIG    1        1.153   3.575   0.010  0.00  0.00    -0.650 A 
ATOM      6  C   LIG    1        1.178   2.195   0.003  0.00  0.00    +0.140 A 
ENDROOT
BRANCH   1  10
ATOM      7  C   LIG    1       -2.464  -2.873   0.011  0.00  0.00    +0.110 C 
ATOM      8  C   LIG    1       -1.171  -2.099   0.002  0.00  0.00    -0.120 A 
ATOM      9  C   LIG    1       -1.194  -0.719   0.010  0.00  0.00    +0.050 A 
ATOM     10  C   LIG    1        0.002  -0.004   0.002  0.00  0.00    -0.050 A 
ATOM     11  C   LIG    1        1.217  -0.686  -0.019  0.00  0.00    +0.050 A 
ATOM     12  C   LIG    1        1.231  -2.066  -0.021  0.00  0.00    +0.000 A 
ATOM     13  C   LIG    1        0.040  -2.773  -0.013  0.00  0.00    +0.100 A 
ATOM     14  F   LIG    1        0.058  -4.124  -0.020  0.00  0.00    -0.140 F 
ENDBRANCH   1  10
BRANCH   5  15
ATOM     15  S   LIG    1        2.664   4.481   0.001  0.00  0.00    +2.490 S 
ATOM     16  O   LIG    1        3.607   3.598   0.592  0.00  0.00    -0.940 OA
ATOM     17  O   LIG    1        2.334   5.719   0.616  0.00  0.00    -0.940 OA
BRANCH  15  18
ATOM     18  C   LIG    1        3.035   4.724  -1.758  0.00  0.00    -0.330 C 
BRANCH  18  19
ATOM     19  C   LIG    1        4.341   5.509  -1.900  0.00  0.00    +0.070 C 
BRANCH  19  20
ATOM     20  C   LIG    1        4.654   5.713  -3.384  0.00  0.00    -0.060 C 
BRANCH  20  21
ATOM     21  C   LIG    1        5.940   6.486  -3.524  0.00  0.00    +0.490 C 
ATOM     22  O   LIG    1        6.371   6.757  -4.632  0.00  0.00    -0.700 OA
ATOM     23  O   LIG    1        6.550   6.841  -2.529  0.00  0.00    -0.700 OA
ENDBRANCH  20  21
ENDBRANCH  19  20
ENDBRANCH  18  19
ENDBRANCH  15  18
ENDBRANCH   5  15
TORSDOF 6
