REMARK  Name = ZINCpe000000ZxDT.0
REMARK                            x       y       z     vdW  Elec       q    Type
REMARK                         _______ _______ _______ _____ _____    ______ ____
ROOT
ATOM      1  C   LIG    1        3.384   2.110   1.519  0.00  0.00    +0.570 C 
ATOM      2  N   LIG    1        3.482   3.454   1.529  0.00  0.00    -0.600 N 
ATOM      3  C   LIG    1        4.633   4.116   2.158  0.00  0.00    +0.260 C 
ATOM      4  C   LIG    1        5.267   5.072   1.143  0.00  0.00    +0.010 C 
ATOM      5  C   LIG    1        4.199   6.034   0.617  0.00  0.00    +0.010 C 
ATOM      6  C   LIG    1        3.098   5.239  -0.089  0.00  0.00    +0.010 C 
ATOM      7  C   LIG    1        2.439   4.285   0.912  0.00  0.00    +0.210 C 
ATOM      8  O   LIG    1        2.484   1.571   0.905  0.00  0.00    -0.520 OA
ENDROOT
BRANCH   1  15
ATOM      9  O   LIG    1        7.949  -3.050   3.410  0.00  0.00    -0.530 OA
ATOM     10  C   LIG    1        7.227  -2.079   3.281  0.00  0.00    +0.690 A 
ATOM     11  N   LIG    1        6.430  -1.841   2.221  0.00  0.00    -0.630 N 
ATOM     12  H   LIG    1        6.336  -2.409   1.440  0.00  0.00    +0.440 HD
ATOM     13  C   LIG    1        5.764  -0.638   2.442  0.00  0.00    +0.040 A 
ATOM     14  C   LIG    1        4.842   0.089   1.712  0.00  0.00    +0.160 A 
ATOM     15  C   LIG    1        4.370   1.292   2.254  0.00  0.00    -0.180 A 
ATOM     16  C   LIG    1        4.850   1.710   3.497  0.00  0.00    +0.330 A 
ATOM     17  N   LIG    1        5.724   0.986   4.163  0.00  0.00    -0.470 NA
ATOM     18  C   LIG    1        6.194  -0.157   3.685  0.00  0.00    +0.320 A 
ATOM     19  N   LIG    1        7.103  -1.081   4.175  0.00  0.00    -0.620 N 
ATOM     20  H   LIG    1        7.572  -1.019   5.021  0.00  0.00    +0.440 HD
ENDBRANCH   1  15
BRANCH   7  21
ATOM     21  C   LIG    1        1.435   3.390   0.184  0.00  0.00    +0.330 C 
BRANCH  21  22
ATOM     22  N   LIG    1        0.392   4.221  -0.425  0.00  0.00    -0.620 N 
ATOM     23  C   LIG    1       -0.841   4.633   0.256  0.00  0.00    +0.250 C 
ATOM     24  C   LIG    1       -1.396   5.811  -0.574  0.00  0.00    +0.040 C 
ATOM     25  C   LIG    1       -0.794   5.526  -1.969  0.00  0.00    +0.040 C 
ATOM     26  C   LIG    1        0.443   4.704  -1.678  0.00  0.00    +0.510 C 
ATOM     27  O   LIG    1        1.345   4.505  -2.463  0.00  0.00    -0.530 OA
ENDBRANCH  21  22
ENDBRANCH   7  21
TORSDOF 3
