REMARK  Name = ZINC650000002oBY.0
REMARK                            x       y       z     vdW  Elec       q    Type
REMARK                         _______ _______ _______ _____ _____    ______ ____
ROOT
ATOM      1  C   LIG    1        0.002  -0.004   0.002  0.00  0.00    +0.180 C 
ENDROOT
BRANCH   1   2
ATOM      2  N   LIG    1       -0.018   1.465   0.010  0.00  0.00    -0.640 N 
ATOM      3  H   LIG    1       -0.490   1.790   0.840  0.00  0.00    +0.430 HD
ATOM      4  H   LIG    1       -0.506   1.799  -0.807  0.00  0.00    +0.440 HD
ATOM      5  H   LIG    1        0.929   1.814   0.003  0.00  0.00    +0.440 HD
ENDBRANCH   1   2
BRANCH   1   7
ATOM      6  C   LIG    1        2.210  -0.086   1.169  0.00  0.00    +0.040 C 
ATOM      7  C   LIG    1        0.742  -0.511   1.242  0.00  0.00    +0.050 C 
ENDBRANCH   1   7
BRANCH   1   8
ATOM      8  C   LIG    1       -1.433  -0.534   0.013  0.00  0.00    +0.210 C 
BRANCH   8   9
ATOM      9  N   LIG    1       -2.178   0.048  -1.111  0.00  0.00    -0.850 NA
ATOM     10  H   LIG    1       -2.150   1.056  -1.081  0.00  0.00    +0.330 HD
ATOM     11  H   LIG    1       -3.130  -0.286  -1.126  0.00  0.00    +0.380 HD
ENDBRANCH   8   9
ENDBRANCH   1   8
TORSDOF 4
