REMARK  Name = ZINC650000002oBY.1
REMARK                            x       y       z     vdW  Elec       q    Type
REMARK                         _______ _______ _______ _____ _____    ______ ____
ROOT
ATOM      1  C   LIG    1       -0.013   1.086   0.008  0.00  0.00    +0.180 C 
ENDROOT
BRANCH   1   2
ATOM      2  N   LIG    1        1.365   1.594  -0.002  0.00  0.00    -0.650 N 
ATOM      3  H   LIG    1        1.838   1.269  -0.833  0.00  0.00    +0.420 HD
ATOM      4  H   LIG    1        1.853   1.260   0.815  0.00  0.00    +0.460 HD
ATOM      5  H   LIG    1        1.352   2.603   0.003  0.00  0.00    +0.450 HD
ENDBRANCH   1   2
BRANCH   1   7
ATOM      6  C   LIG    1       -0.064   0.971   2.503  0.00  0.00    +0.060 C 
ATOM      7  C   LIG    1       -0.729   1.579   1.267  0.00  0.00    +0.080 C 
ENDBRANCH   1   7
BRANCH   1   8
ATOM      8  C   LIG    1       -0.753   1.593  -1.232  0.00  0.00    +0.310 C 
BRANCH   8   9
ATOM      9  N   LIG    1       -0.000   1.221  -2.437  0.00  0.00    -0.650 N 
ATOM     10  H   LIG    1        0.085   0.216  -2.484  0.00  0.00    +0.450 HD
ATOM     11  H   LIG    1        0.919   1.635  -2.401  0.00  0.00    +0.420 HD
ATOM     12  H   LIG    1       -0.488   1.555  -3.255  0.00  0.00    +0.460 HD
ENDBRANCH   8   9
ENDBRANCH   1   8
TORSDOF 4
