REMARK  Name = ZINCvU0000000IsX.0
REMARK                            x       y       z     vdW  Elec       q    Type
REMARK                         _______ _______ _______ _____ _____    ______ ____
ROOT
ATOM      1  C   LIG    1       -1.325  -0.857   0.118  0.00  0.00    +0.120 C 
ATOM      2  C   LIG    1       -1.578  -1.627   1.246  0.00  0.00    -0.090 C 
ATOM      3  C   LIG    1       -2.787  -2.261   1.427  0.00  0.00    +0.160 C 
ATOM      4  C   LIG    1       -3.878  -2.154   0.394  0.00  0.00    +0.090 C 
ATOM      5  C   LIG    1       -3.761  -0.809  -0.329  0.00  0.00    +0.030 C 
ATOM      6  C   LIG    1       -3.004  -3.021   2.586  0.00  0.00    -0.370 C 
ATOM      7  C   LIG    1       -4.225  -3.754   2.931  0.00  0.00    +0.450 C 
ATOM      8  C   LIG    1       -4.001  -4.414   4.242  0.00  0.00    -0.140 A 
ATOM      9  C   LIG    1       -4.820  -5.224   5.019  0.00  0.00    +0.070 A 
ATOM     10  C   LIG    1       -4.361  -5.715   6.231  0.00  0.00    +0.040 A 
ATOM     11  C   LIG    1       -3.091  -5.403   6.673  0.00  0.00    +0.040 A 
ATOM     12  C   LIG    1       -2.262  -4.596   5.908  0.00  0.00    +0.070 A 
ATOM     13  C   LIG    1       -2.709  -4.097   4.692  0.00  0.00    -0.140 A 
ATOM     14  O   LIG    1       -5.239  -3.813   2.262  0.00  0.00    -0.450 OA
ATOM     15  C   LIG    1       -2.054  -3.227   3.682  0.00  0.00    +0.450 C 
ATOM     16  O   LIG    1       -0.929  -2.768   3.752  0.00  0.00    -0.440 OA
ATOM     17  C   LIG    1       -2.369  -0.702  -0.957  0.00  0.00    +0.060 C 
ENDROOT
BRANCH   1  27
ATOM     18  N   LIG    1       -0.949   1.949   0.705  0.00  0.00    -0.520 N 
ATOM     19  C   LIG    1       -0.479   3.258   0.691  0.00  0.00    +0.090 A 
ATOM     20  C   LIG    1       -1.017   4.460   1.128  0.00  0.00    +0.020 A 
ATOM     21  C   LIG    1       -0.302   5.631   0.972  0.00  0.00    +0.020 A 
ATOM     22  C   LIG    1        0.951   5.611   0.382  0.00  0.00    +0.020 A 
ATOM     23  C   LIG    1        1.495   4.420  -0.057  0.00  0.00    +0.020 A 
ATOM     24  C   LIG    1        0.784   3.237   0.095  0.00  0.00    +0.090 A 
ATOM     25  N   LIG    1        1.062   1.916  -0.237  0.00  0.00    -0.520 N 
ATOM     26  C   LIG    1        0.001   1.149   0.143  0.00  0.00    +0.440 A 
ATOM     27  C   LIG    1       -0.099  -0.230  -0.022  0.00  0.00    -0.260 C 
BRANCH  18  29
ATOM     28  C   LIG    1       -2.130   1.309   2.749  0.00  0.00    +0.030 C 
ATOM     29  C   LIG    1       -2.241   1.506   1.236  0.00  0.00    +0.300 C 
ENDBRANCH  18  29
BRANCH  25  30
ATOM     30  C   LIG    1        2.284   1.433  -0.885  0.00  0.00    +0.310 C 
ATOM     31  C   LIG    1        2.102   1.462  -2.404  0.00  0.00    +0.040 C 
ENDBRANCH  25  30
ENDBRANCH   1  27
TORSDOF 3
