REMARK  Name = ZINCrH000004s9Id.0
REMARK                            x       y       z     vdW  Elec       q    Type
REMARK                         _______ _______ _______ _____ _____    ______ ____
ROOT
ATOM      1  N   LIG    1        8.034  -2.031  -0.147  0.00  0.00    -0.720 N 
ATOM      2  H   LIG    1        7.644  -2.915  -0.066  0.00  0.00    +0.400 HD
ATOM      3  C   LIG    1        7.239  -0.944  -0.188  0.00  0.00    +0.600 C 
ATOM      4  O   LIG    1        7.729   0.165  -0.290  0.00  0.00    -0.540 OA
ENDROOT
BRANCH   3   5
ATOM      5  C   LIG    1        5.775  -1.098  -0.110  0.00  0.00    -0.290 A 
ATOM      6  C   LIG    1        4.840  -0.082  -0.145  0.00  0.00    +0.170 A 
ATOM      7  N   LIG    1        3.625  -0.650  -0.042  0.00  0.00    -0.320 N 
ATOM      8  N   LIG    1        3.791  -2.037   0.050  0.00  0.00    -0.270 NA
ATOM      9  C   LIG    1        5.129   1.391  -0.272  0.00  0.00    +0.170 C 
ATOM     10  C   LIG    1        5.065  -2.314   0.011  0.00  0.00    +0.280 A 
BRANCH   7  11
ATOM     11  C   LIG    1        2.400   0.031  -0.034  0.00  0.00    +0.150 A 
ATOM     12  C   LIG    1        2.220   1.128   0.796  0.00  0.00    +0.030 A 
ATOM     13  C   LIG    1        1.011   1.798   0.801  0.00  0.00    +0.040 A 
ATOM     14  C   LIG    1       -0.018   1.377  -0.020  0.00  0.00    +0.040 A 
ATOM     15  C   LIG    1        0.158   0.284  -0.849  0.00  0.00    +0.050 A 
ATOM     16  C   LIG    1        1.364  -0.390  -0.859  0.00  0.00    -0.030 A 
ATOM     17 CL   LIG    1        1.585  -1.762  -1.900  0.00  0.00    -0.040 Cl
ENDBRANCH   7  11
ENDBRANCH   3   5
BRANCH   1  18
ATOM     18  C   LIG    1        9.489  -1.877  -0.225  0.00  0.00    +0.390 C 
BRANCH  18  24
ATOM     19  C   LIG    1       12.576  -8.351   1.622  0.00  0.00    +0.120 C 
ATOM     20  C   LIG    1       12.038  -7.205   0.804  0.00  0.00    -0.070 A 
ATOM     21  C   LIG    1       11.504  -6.117   1.421  0.00  0.00    +0.060 A 
ATOM     22  C   LIG    1       11.006  -5.055   0.639  0.00  0.00    +0.230 A 
ATOM     23  N   LIG    1       10.444  -3.898   0.960  0.00  0.00    -0.480 NA
ATOM     24  C   LIG    1       10.142  -3.234  -0.158  0.00  0.00    +0.040 A 
ATOM     25  C   LIG    1       10.514  -3.982  -1.219  0.00  0.00    +0.110 A 
ATOM     26  N   LIG    1       11.066  -5.134  -0.728  0.00  0.00    -0.360 N 
ATOM     27  C   LIG    1       11.605  -6.232  -1.334  0.00  0.00    +0.230 A 
ATOM     28  C   LIG    1       12.086  -7.256  -0.599  0.00  0.00    +0.010 A 
ENDBRANCH  18  24
ENDBRANCH   1  18
TORSDOF 4
