REMARK  Name = ZINCrD00000hQ6QW.0
REMARK                            x       y       z     vdW  Elec       q    Type
REMARK                         _______ _______ _______ _____ _____    ______ ____
ROOT
ATOM      1  C   LIG    1        7.713   3.116  -0.261  0.00  0.00    +0.230 C 
ATOM      2  C   LIG    1        8.000   4.214  -1.298  0.00  0.00    +0.190 C 
ATOM      3  N   LIG    1        6.986   5.270  -1.178  0.00  0.00    -0.490 N 
ATOM      4  C   LIG    1        5.644   4.758  -1.489  0.00  0.00    +0.180 C 
ATOM      5  C   LIG    1        5.262   3.683  -0.467  0.00  0.00    +0.300 C 
ATOM      6  N   LIG    1        6.324   2.666  -0.438  0.00  0.00    -0.590 N 
ATOM      7  C   LIG    1        6.032   1.356  -0.566  0.00  0.00    +0.590 C 
ATOM      8  O   LIG    1        6.918   0.526  -0.495  0.00  0.00    -0.520 OA
ENDROOT
BRANCH   3   9
ATOM      9  C   LIG    1        7.304   6.364  -1.986  0.00  0.00    +0.110 A 
ATOM     10  C   LIG    1        8.456   6.344  -2.762  0.00  0.00    -0.050 A 
ATOM     11  C   LIG    1        8.765   7.426  -3.563  0.00  0.00    +0.030 A 
ATOM     12  C   LIG    1        7.935   8.531  -3.586  0.00  0.00    -0.030 A 
ATOM     13  C   LIG    1        6.790   8.556  -2.811  0.00  0.00    +0.030 A 
ATOM     14  C   LIG    1        6.472   7.476  -2.011  0.00  0.00    -0.020 A 
ENDBRANCH   3   9
BRANCH   7  15
ATOM     15  C   LIG    1        4.639   0.931  -0.791  0.00  0.00    +0.010 A 
ATOM     16  C   LIG    1        4.305  -0.357  -1.085  0.00  0.00    +0.000 A 
ATOM     17  S   LIG    1        2.608  -0.462  -1.276  0.00  0.00    +0.230 S 
ATOM     18  C   LIG    1        2.446   1.258  -0.943  0.00  0.00    +0.070 A 
ATOM     19  N   LIG    1        3.618   1.772  -0.727  0.00  0.00    -0.400 NA
BRANCH  18  20
ATOM     20  C   LIG    1        1.170   2.006  -0.920  0.00  0.00    +0.140 A 
ATOM     21  C   LIG    1       -0.034   1.345  -1.174  0.00  0.00    +0.250 A 
ATOM     22  N   LIG    1       -1.169   2.018  -1.157  0.00  0.00    -0.430 NA
ATOM     23  C   LIG    1       -1.168   3.313  -0.890  0.00  0.00    +0.240 A 
ATOM     24  C   LIG    1        0.023   3.973  -0.637  0.00  0.00    +0.240 A 
ATOM     25  N   LIG    1        1.165   3.310  -0.656  0.00  0.00    -0.400 NA
ENDBRANCH  18  20
ENDBRANCH   7  15
BRANCH   1  27
ATOM     26  C   LIG    1       10.112   2.423  -0.352  0.00  0.00    +0.000 C 
ATOM     27  C   LIG    1        8.666   1.939  -0.480  0.00  0.00    +0.050 C 
ENDBRANCH   1  27
TORSDOF 4
