REMARK  Name = ZINCpe000000YSPM.2
REMARK                            x       y       z     vdW  Elec       q    Type
REMARK                         _______ _______ _______ _____ _____    ______ ____
ROOT
ATOM      1  C   LIG    1       -1.795   7.291   3.352  0.00  0.00    +0.040 C 
ENDROOT
BRANCH   1   3
ATOM      2  O   LIG    1       -1.042   5.348   4.459  0.00  0.00    -0.540 OA
ATOM      3  C   LIG    1       -1.533   5.810   3.451  0.00  0.00    +0.530 C 
ATOM      4  N   LIG    1       -1.843   5.000   2.420  0.00  0.00    -0.610 N 
ATOM      5  C   LIG    1       -2.440   5.534   1.185  0.00  0.00    +0.280 C 
ATOM      6  C   LIG    1       -1.597   5.048   0.004  0.00  0.00    +0.170 C 
ATOM      7  N   LIG    1       -1.491   3.579   0.035  0.00  0.00    -0.530 NA
ATOM      8  C   LIG    1       -0.799   3.124  -1.182  0.00  0.00    +0.160 C 
ATOM      9  C   LIG    1       -0.761   1.597  -1.228  0.00  0.00    +0.020 C 
ATOM     10  C   LIG    1       -0.013   1.086   0.008  0.00  0.00    +0.010 C 
ATOM     11  C   LIG    1       -0.736   1.582   1.261  0.00  0.00    +0.030 C 
ATOM     12  C   LIG    1       -0.811   3.113   1.249  0.00  0.00    +0.120 C 
ATOM     13  C   LIG    1       -1.598   3.554   2.490  0.00  0.00    +0.300 C 
ENDBRANCH   1   3
BRANCH   1  14
ATOM     14  C   LIG    1       -1.355   7.975   4.647  0.00  0.00    +0.360 C 
BRANCH  14  15
ATOM     15  N   LIG    1       -1.610   9.414   4.550  0.00  0.00    -0.460 N 
ATOM     16  N   LIG    1       -0.623  10.266   4.047  0.00  0.00    +0.080 NA
ATOM     17  N   LIG    1       -0.787  11.534   3.932  0.00  0.00    -0.200 NA
ATOM     18  C   LIG    1       -1.938  12.146   4.305  0.00  0.00    +0.060 A 
ATOM     19  C   LIG    1       -2.100  13.528   4.180  0.00  0.00    +0.080 A 
ATOM     20  C   LIG    1       -3.282  14.115   4.570  0.00  0.00    +0.070 A 
ATOM     21  C   LIG    1       -4.319  13.351   5.088  0.00  0.00    +0.040 A 
ATOM     22  C   LIG    1       -4.184  11.986   5.221  0.00  0.00    +0.100 A 
ATOM     23  C   LIG    1       -2.995  11.372   4.832  0.00  0.00    -0.150 A 
ATOM     24  C   LIG    1       -2.800   9.919   4.954  0.00  0.00    +0.530 A 
ATOM     25  O   LIG    1       -3.674   9.198   5.401  0.00  0.00    -0.500 OA
ENDBRANCH  14  15
ENDBRANCH   1  14
TORSDOF 3
