REMARK  Name = ZINCpk000005Dtv4.0
REMARK                            x       y       z     vdW  Elec       q    Type
REMARK                         _______ _______ _______ _____ _____    ______ ____
ROOT
ATOM      1  N   LIG    1        0.182   3.540   1.292  0.00  0.00    -0.720 N 
ATOM      2  H   LIG    1        0.844   3.781   0.626  0.00  0.00    +0.400 HD
ATOM      3  C   LIG    1       -0.154   4.417   2.259  0.00  0.00    +0.560 C 
ATOM      4  O   LIG    1       -0.984   4.114   3.094  0.00  0.00    -0.480 OA
ENDROOT
BRANCH   3   5
ATOM      5  C   LIG    1        0.487   5.745   2.304  0.00  0.00    -0.080 A 
ATOM      6  C   LIG    1        1.439   6.095   1.358  0.00  0.00    +0.050 A 
ATOM      7  C   LIG    1        2.043   7.348   1.389  0.00  0.00    +0.100 A 
ATOM      8  C   LIG    1        1.725   8.258   2.355  0.00  0.00    +0.050 A 
ATOM      9  C   LIG    1        0.770   7.940   3.335  0.00  0.00    -0.090 A 
ATOM     10  C   LIG    1        0.425   8.860   4.343  0.00  0.00    +0.090 A 
ATOM     11  C   LIG    1       -0.512   8.485   5.265  0.00  0.00    -0.020 A 
ATOM     12  C   LIG    1       -1.094   7.223   5.188  0.00  0.00    +0.310 A 
ATOM     13  N   LIG    1       -0.768   6.369   4.247  0.00  0.00    -0.440 NA
ATOM     14  F   LIG    1        2.962   7.666   0.452  0.00  0.00    -0.130 F 
ATOM     15  C   LIG    1        0.139   6.673   3.318  0.00  0.00    +0.150 A 
ENDBRANCH   3   5
BRANCH   1  20
ATOM     16  C   LIG    1       -0.260   1.790  -2.396  0.00  0.00    +0.540 C 
ATOM     17  N   LIG    1       -0.670   1.868  -1.115  0.00  0.00    -0.620 N 
ATOM     18  C   LIG    1       -1.940   2.447  -0.654  0.00  0.00    +0.240 C 
ATOM     19  C   LIG    1       -1.961   2.341   0.885  0.00  0.00    +0.060 C 
ATOM     20  C   LIG    1       -0.455   2.221   1.247  0.00  0.00    +0.170 C 
ATOM     21  C   LIG    1       -0.263   1.477   2.571  0.00  0.00    +0.060 C 
ATOM     22  C   LIG    1        0.082   1.385   0.058  0.00  0.00    +0.290 C 
ATOM     23  O   LIG    1        0.850   1.376  -2.654  0.00  0.00    -0.510 OA
BRANCH  16  25
ATOM     24  C   LIG    1       -2.330   1.213  -3.635  0.00  0.00    +0.030 C 
ATOM     25  C   LIG    1       -1.182   2.217  -3.509  0.00  0.00    +0.170 C 
BRANCH  25  26
ATOM     26  O   LIG    1       -0.455   2.265  -4.738  0.00  0.00    -0.540 OA
ATOM     27  H   LIG    1       -0.987   2.534  -5.500  0.00  0.00    +0.390 HD
ENDBRANCH  25  26
ENDBRANCH  16  25
ENDBRANCH   1  20
TORSDOF 4
