REMARK  Name = ZINCqH0000000k2a.0
REMARK                            x       y       z     vdW  Elec       q    Type
REMARK                         _______ _______ _______ _____ _____    ______ ____
ROOT
ATOM      1  C   LIG    1        2.409   3.925  -0.021  0.00  0.00    +0.420 C 
ATOM      2  O   LIG    1        3.460   3.345  -0.197  0.00  0.00    -0.440 OA
ENDROOT
BRANCH   1   3
ATOM      3  C   LIG    1        1.149   3.171  -0.007  0.00  0.00    -0.180 A 
ATOM      4  C   LIG    1        1.158   1.784  -0.196  0.00  0.00    +0.110 A 
ATOM      5  C   LIG    1       -0.021   1.084  -0.183  0.00  0.00    +0.000 A 
ATOM      6  C   LIG    1       -1.227   1.752   0.012  0.00  0.00    +0.190 A 
ATOM      7  C   LIG    1       -1.240   3.131   0.206  0.00  0.00    -0.020 A 
ATOM      8  C   LIG    1       -0.066   3.838   0.194  0.00  0.00    +0.090 A 
BRANCH   6   9
ATOM      9  N   LIG    1       -2.423   1.038   0.019  0.00  0.00    -0.680 N 
ATOM     10  H   LIG    1       -3.233   1.445  -0.326  0.00  0.00    +0.410 HD
ATOM     11  C   LIG    1       -2.455  -0.218   0.506  0.00  0.00    +0.520 C 
ATOM     12  O   LIG    1       -1.467  -0.693   1.024  0.00  0.00    -0.510 OA
BRANCH  11  13
ATOM     13  C   LIG    1       -3.719  -1.033   0.405  0.00  0.00    -0.010 C 
ATOM     14  C   LIG    1       -4.847  -0.319   1.152  0.00  0.00    +0.040 C 
ATOM     15  C   LIG    1       -3.488  -2.411   1.028  0.00  0.00    +0.050 C 
ENDBRANCH  11  13
ENDBRANCH   6   9
ENDBRANCH   1   3
BRANCH   1  16
ATOM     16  C   LIG    1        2.397   5.418   0.182  0.00  0.00    +0.000 C 
ATOM     17  C   LIG    1        2.398   5.728   1.680  0.00  0.00    +0.090 C 
BRANCH  16  18
ATOM     18  S   LIG    1        3.866   6.144  -0.586  0.00  0.00    +0.050 S 
BRANCH  18  24
ATOM     19  N   LIG    1        4.313   8.902  -0.724  0.00  0.00    -0.460 N 
ATOM     20  C   LIG    1        3.650  10.030  -0.324  0.00  0.00    +0.190 A 
ATOM     21  N   LIG    1        2.549   9.647   0.257  0.00  0.00    -0.280 NA
ATOM     22  N   LIG    1        2.468   8.364   0.247  0.00  0.00    -0.290 NA
ATOM     23  C   LIG    1        4.109  11.452  -0.520  0.00  0.00    +0.200 C 
ATOM     24  C   LIG    1        3.527   7.855  -0.338  0.00  0.00    +0.150 A 
BRANCH  19  25
ATOM     25  C   LIG    1        5.600   8.833  -1.421  0.00  0.00    +0.350 C 
BRANCH  25  27
ATOM     26  C   LIG    1        5.959   9.758  -3.652  0.00  0.00    +0.060 C 
ATOM     27  C   LIG    1        5.366   8.856  -2.910  0.00  0.00    -0.070 C 
ENDBRANCH  25  27
ENDBRANCH  19  25
ENDBRANCH  18  24
ENDBRANCH  16  18
ENDBRANCH   1  16
TORSDOF 8
