REMARK  Name = ZINCrD00000law42.0
REMARK                            x       y       z     vdW  Elec       q    Type
REMARK                         _______ _______ _______ _____ _____    ______ ____
ROOT
ATOM      1  N   LIG    1       -0.369   1.145  -0.191  0.00  0.00    -0.700 N 
ATOM      2  H   LIG    1       -1.182   1.663  -0.080  0.00  0.00    +0.430 HD
ENDROOT
BRANCH   1   8
ATOM      3  C   LIG    1       -0.607   1.286  -2.595  0.00  0.00    -0.220 A 
ATOM      4  C   LIG    1       -0.100   1.022  -3.871  0.00  0.00    +0.230 A 
ATOM      5  C   LIG    1        1.108   0.375  -4.009  0.00  0.00    -0.120 A 
ATOM      6  C   LIG    1        1.826  -0.015  -2.890  0.00  0.00    +0.190 A 
ATOM      7  C   LIG    1        1.342   0.243  -1.624  0.00  0.00    -0.050 A 
ATOM      8  C   LIG    1        0.123   0.889  -1.463  0.00  0.00    +0.320 A 
BRANCH   5   9
ATOM      9  N   LIG    1        1.643   0.097  -5.361  0.00  0.00    +0.040 N 
ATOM     10  O   LIG    1        2.711  -0.475  -5.487  0.00  0.00    -0.170 OA
ATOM     11  O   LIG    1        1.015   0.439  -6.347  0.00  0.00    -0.170 OA
ENDBRANCH   5   9
BRANCH   3  12
ATOM     12  C   LIG    1       -1.899   1.978  -2.440  0.00  0.00    +0.530 C 
ATOM     13  O   LIG    1       -2.289   2.294  -1.333  0.00  0.00    -0.510 OA
BRANCH  12  15
ATOM     14  C   LIG    1       -3.908   2.942  -3.296  0.00  0.00    +0.290 C 
ATOM     15  O   LIG    1       -2.647   2.259  -3.524  0.00  0.00    -0.350 OA
ENDBRANCH  12  15
ENDBRANCH   3  12
ENDBRANCH   1   8
BRANCH   1  16
ATOM     16  C   LIG    1        0.340   0.634   0.985  0.00  0.00    +0.320 C 
BRANCH  16  17
ATOM     17  C   LIG    1       -0.395   1.048   2.234  0.00  0.00    -0.100 A 
ATOM     18  C   LIG    1       -0.080   2.241   2.857  0.00  0.00    +0.020 A 
ATOM     19  C   LIG    1       -0.756   2.628   4.000  0.00  0.00    +0.030 A 
ATOM     20  C   LIG    1       -1.740   1.817   4.529  0.00  0.00    +0.030 A 
ATOM     21  C   LIG    1       -2.055   0.615   3.909  0.00  0.00    +0.140 A 
ATOM     22  C   LIG    1       -1.379   0.232   2.759  0.00  0.00    +0.010 A 
BRANCH  21  23
ATOM     23  N   LIG    1       -3.053  -0.209   4.443  0.00  0.00    -0.670 N 
ATOM     24  H   LIG    1       -2.964  -1.174   4.391  0.00  0.00    +0.410 HD
ATOM     25  C   LIG    1       -4.137   0.337   5.028  0.00  0.00    +0.540 C 
ATOM     26  O   LIG    1       -4.210   1.540   5.164  0.00  0.00    -0.520 OA
BRANCH  25  27
ATOM     27  C   LIG    1       -5.257  -0.546   5.513  0.00  0.00    -0.070 C 
ATOM     28  C   LIG    1       -6.591  -0.468   4.769  0.00  0.00    +0.060 C 
ATOM     29  C   LIG    1       -6.460   0.135   6.169  0.00  0.00    +0.080 C 
ENDBRANCH  25  27
ENDBRANCH  21  23
ENDBRANCH  16  17
ENDBRANCH   1  16
TORSDOF 8
