REMARK  Name = ZINCwl000000040Z.0
REMARK                            x       y       z     vdW  Elec       q    Type
REMARK                         _______ _______ _______ _____ _____    ______ ____
ROOT
ATOM      1  C   LIG    1        0.372   3.066   1.662  0.00  0.00    +0.160 C 
ENDROOT
BRANCH   1   2
ATOM      2  N   LIG    1        1.546   2.973   2.540  0.00  0.00    -0.370 N 
ATOM      3  C   LIG    1        1.371   1.853   3.489  0.00  0.00    +0.260 C 
ATOM      4  C   LIG    1        2.016   2.348   4.808  0.00  0.00    +0.080 C 
ATOM      5  C   LIG    1        1.623   3.849   4.805  0.00  0.00    +0.100 C 
ATOM      6  C   LIG    1        1.689   4.223   3.310  0.00  0.00    +0.150 C 
ATOM      7  H   LIG    1        2.373   2.821   1.983  0.00  0.00    +0.430 HD
BRANCH   6   8
ATOM      8  C   LIG    1        0.549   5.182   2.962  0.00  0.00    +0.330 C 
BRANCH   8   9
ATOM      9  N   LIG    1        0.798   6.483   3.588  0.00  0.00    -0.980 NA
ATOM     10  C   LIG    1        0.472   6.853   4.967  0.00  0.00    +0.240 C 
ATOM     11  C   LIG    1        0.818   8.305   5.313  0.00  0.00    +0.090 C 
ATOM     12  C   LIG    1        1.999   8.704   4.383  0.00  0.00    -0.280 C 
ATOM     13  S   LIG    1        1.503   7.811   2.854  0.00  0.00    +2.560 S 
ATOM     14  O   LIG    1        2.634   7.302   2.159  0.00  0.00    -0.960 OA
ATOM     15  O   LIG    1        0.444   8.478   2.182  0.00  0.00    -0.930 OA
ENDBRANCH   8   9
ENDBRANCH   6   8
ENDBRANCH   1   2
BRANCH   1  16
ATOM     16  C   LIG    1       -0.880   3.103   2.500  0.00  0.00    +0.520 C 
ATOM     17  N   LIG    1       -2.080   3.279   1.912  0.00  0.00    -0.690 N 
ATOM     18  H   LIG    1       -2.146   3.312   0.945  0.00  0.00    +0.420 HD
ATOM     19  O   LIG    1       -0.808   2.973   3.704  0.00  0.00    -0.510 OA
BRANCH  17  20
ATOM     20  C   LIG    1       -3.285   3.422   2.733  0.00  0.00    +0.250 C 
ATOM     21  C   LIG    1       -4.219   2.200   2.682  0.00  0.00    +0.290 C 
ATOM     22  N   LIG    1       -5.325   3.174   2.603  0.00  0.00    -0.640 N 
ATOM     23  C   LIG    1       -6.634   3.144   2.921  0.00  0.00    +0.680 C 
ATOM     24  O   LIG    1       -7.325   4.127   2.742  0.00  0.00    -0.550 OA
ATOM     25  C   LIG    1       -4.421   4.194   2.038  0.00  0.00    +0.330 C 
BRANCH  23  26
ATOM     26  O   LIG    1       -7.176   2.025   3.436  0.00  0.00    -0.360 OA
BRANCH  26  27
ATOM     27  C   LIG    1       -8.592   2.064   3.754  0.00  0.00    +0.140 C 
ATOM     28  C   LIG    1       -8.852   3.161   4.789  0.00  0.00    +0.050 C 
ATOM     29  C   LIG    1       -9.025   0.712   4.324  0.00  0.00    +0.090 C 
ATOM     30  C   LIG    1       -9.393   2.362   2.485  0.00  0.00    +0.040 C 
ENDBRANCH  26  27
ENDBRANCH  23  26
ENDBRANCH  17  20
ENDBRANCH   1  16
BRANCH   1  31
ATOM     31  C   LIG    1        0.330   1.848   0.737  0.00  0.00    +0.080 C 
BRANCH  31  32
ATOM     32  C   LIG    1        1.547   1.870  -0.190  0.00  0.00    +0.060 C 
BRANCH  32  34
ATOM     33  C   LIG    1        1.482   1.000  -2.471  0.00  0.00    +0.050 C 
ATOM     34  C   LIG    1        1.440   0.745  -1.187  0.00  0.00    -0.060 C 
ENDBRANCH  32  34
ENDBRANCH  31  32
ENDBRANCH   1  31
TORSDOF 10
