REMARK  Name = ZINCwl000000040Z.1
REMARK                            x       y       z     vdW  Elec       q    Type
REMARK                         _______ _______ _______ _____ _____    ______ ____
ROOT
ATOM      1  C   LIG    1       -0.998   2.348   1.692  0.00  0.00    +0.160 C 
ENDROOT
BRANCH   1   2
ATOM      2  N   LIG    1       -1.477   3.683   1.313  0.00  0.00    -0.370 N 
ATOM      3  C   LIG    1       -0.327   4.545   0.966  0.00  0.00    +0.270 C 
ATOM      4  C   LIG    1       -0.208   4.451  -0.572  0.00  0.00    +0.070 C 
ATOM      5  C   LIG    1       -1.698   4.398  -0.999  0.00  0.00    +0.090 C 
ATOM      6  C   LIG    1       -2.355   3.579   0.133  0.00  0.00    +0.140 C 
ATOM      7  H   LIG    1       -1.988   4.093   2.081  0.00  0.00    +0.420 HD
BRANCH   6   8
ATOM      8  C   LIG    1       -3.735   4.154   0.458  0.00  0.00    +0.380 C 
BRANCH   8   9
ATOM      9  N   LIG    1       -4.346   3.376   1.538  0.00  0.00    -1.010 NA
ATOM     10  C   LIG    1       -4.125   3.571   2.973  0.00  0.00    +0.220 C 
ATOM     11  C   LIG    1       -4.942   2.624   3.857  0.00  0.00    +0.100 C 
ATOM     12  C   LIG    1       -5.187   1.342   3.010  0.00  0.00    -0.300 C 
ATOM     13  S   LIG    1       -5.425   2.111   1.354  0.00  0.00    +2.560 S 
ATOM     14  O   LIG    1       -4.883   1.300   0.321  0.00  0.00    -0.950 OA
ATOM     15  O   LIG    1       -6.704   2.720   1.240  0.00  0.00    -0.920 OA
ENDBRANCH   8   9
ENDBRANCH   6   8
ENDBRANCH   1   2
BRANCH   1  16
ATOM     16  C   LIG    1       -0.322   2.420   3.037  0.00  0.00    +0.510 C 
ATOM     17  N   LIG    1        0.059   1.288   3.661  0.00  0.00    -0.690 N 
ATOM     18  H   LIG    1       -0.101   0.427   3.245  0.00  0.00    +0.410 HD
ATOM     19  O   LIG    1       -0.121   3.497   3.558  0.00  0.00    -0.520 OA
BRANCH  17  20
ATOM     20  C   LIG    1        0.717   1.358   4.968  0.00  0.00    +0.250 C 
ATOM     21  C   LIG    1        2.227   1.064   4.919  0.00  0.00    +0.290 C 
ATOM     22  N   LIG    1        2.009   0.272   6.148  0.00  0.00    -0.640 N 
ATOM     23  C   LIG    1        2.791  -0.108   7.178  0.00  0.00    +0.680 C 
ATOM     24  O   LIG    1        2.326  -0.776   8.080  0.00  0.00    -0.550 OA
ATOM     25  C   LIG    1        0.591   0.066   5.796  0.00  0.00    +0.330 C 
BRANCH  23  26
ATOM     26  O   LIG    1        4.088   0.254   7.207  0.00  0.00    -0.360 OA
BRANCH  26  27
ATOM     27  C   LIG    1        4.871  -0.191   8.346  0.00  0.00    +0.140 C 
ATOM     28  C   LIG    1        4.260   0.367   9.633  0.00  0.00    +0.050 C 
ATOM     29  C   LIG    1        6.309   0.312   8.205  0.00  0.00    +0.090 C 
ATOM     30  C   LIG    1        4.869  -1.720   8.402  0.00  0.00    +0.040 C 
ENDBRANCH  26  27
ENDBRANCH  23  26
ENDBRANCH  17  20
ENDBRANCH   1  16
BRANCH   1  31
ATOM     31  C   LIG    1       -0.001   1.847   0.646  0.00  0.00    +0.090 C 
BRANCH  31  32
ATOM     32  C   LIG    1       -0.741   1.533  -0.655  0.00  0.00    +0.060 C 
BRANCH  32  34
ATOM     33  C   LIG    1       -0.082  -0.270  -2.164  0.00  0.00    +0.050 C 
ATOM     34  C   LIG    1        0.210   0.891  -1.632  0.00  0.00    -0.060 C 
ENDBRANCH  32  34
ENDBRANCH  31  32
ENDBRANCH   1  31
TORSDOF 10
