REMARK  Name = ZINCAx0000000c5D.0
REMARK                            x       y       z     vdW  Elec       q    Type
REMARK                         _______ _______ _______ _____ _____    ______ ____
ROOT
ATOM      1  C   LIG    1        1.338   1.437   1.325  0.00  0.00    +0.190 C 
ATOM      2  C   LIG    1        0.409   1.719   2.477  0.00  0.00    +0.400 A 
ATOM      3  N   LIG    1       -0.589   0.913   2.675  0.00  0.00    -0.510 NA
ATOM      4  C   LIG    1       -1.466   1.103   3.692  0.00  0.00    +0.120 A 
ATOM      5  C   LIG    1       -2.543   0.232   3.907  0.00  0.00    +0.160 A 
ATOM      6  C   LIG    1       -3.412   0.467   4.958  0.00  0.00    +0.070 A 
ATOM      7  C   LIG    1       -3.228   1.554   5.800  0.00  0.00    +0.030 A 
ATOM      8  C   LIG    1       -2.175   2.422   5.607  0.00  0.00    +0.080 A 
ATOM      9  C   LIG    1       -1.287   2.206   4.555  0.00  0.00    -0.180 A 
ATOM     10  C   LIG    1       -0.147   3.100   4.304  0.00  0.00    +0.550 A 
ATOM     11  O   LIG    1        0.065   4.069   5.010  0.00  0.00    -0.500 OA
ATOM     12  N   LIG    1        0.661   2.802   3.260  0.00  0.00    -0.530 N 
ENDROOT
BRANCH  12  13
ATOM     13  C   LIG    1        1.815   3.656   2.967  0.00  0.00    +0.250 C 
ATOM     14  C   LIG    1        2.979   3.278   3.888  0.00  0.00    +0.070 C 
ATOM     15  C   LIG    1        2.575   3.581   5.335  0.00  0.00    +0.090 C 
ATOM     16  C   LIG    1        2.165   5.026   5.441  0.00  0.00    +0.550 C 
ATOM     17  N   LIG    1        1.634   5.678   4.396  0.00  0.00    -0.650 N 
ATOM     18  H   LIG    1        1.375   6.606   4.509  0.00  0.00    +0.410 HD
ATOM     19  O   LIG    1        2.317   5.611   6.492  0.00  0.00    -0.500 OA
ATOM     20  C   LIG    1        1.446   5.097   3.202  0.00  0.00    +0.530 C 
ATOM     21  O   LIG    1        0.970   5.745   2.294  0.00  0.00    -0.490 OA
ENDBRANCH  12  13
BRANCH   5  22
ATOM     22  N   LIG    1       -2.739  -0.867   3.064  0.00  0.00    -0.660 N 
ATOM     23  H   LIG    1       -2.441  -0.830   2.142  0.00  0.00    +0.420 HD
ATOM     24  C   LIG    1       -3.342  -1.977   3.534  0.00  0.00    +0.510 C 
ATOM     25  O   LIG    1       -3.784  -1.996   4.663  0.00  0.00    -0.520 OA
BRANCH  24  26
ATOM     26  C   LIG    1       -3.466  -3.196   2.656  0.00  0.00    +0.060 C 
BRANCH  26  27
ATOM     27  C   LIG    1       -4.184  -4.307   3.424  0.00  0.00    +0.040 C 
BRANCH  27  28
ATOM     28  C   LIG    1       -4.309  -5.545   2.533  0.00  0.00    +0.020 C 
BRANCH  28  29
ATOM     29  C   LIG    1       -5.028  -6.656   3.301  0.00  0.00    +0.010 C 
BRANCH  29  30
ATOM     30  C   LIG    1       -5.153  -7.893   2.410  0.00  0.00    +0.280 C 
BRANCH  30  31
ATOM     31  N   LIG    1       -5.841  -8.957   3.146  0.00  0.00    -0.710 N 
ATOM     32  H   LIG    1       -6.135  -8.804   4.058  0.00  0.00    +0.410 HD
ATOM     33  C   LIG    1       -6.065 -10.148   2.556  0.00  0.00    +0.650 C 
ATOM     34  O   LIG    1       -5.697 -10.339   1.414  0.00  0.00    -0.570 OA
BRANCH  33  35
ATOM     35  O   LIG    1       -6.697 -11.126   3.232  0.00  0.00    -0.370 OA
BRANCH  35  36
ATOM     36  C   LIG    1       -6.905 -12.382   2.534  0.00  0.00    +0.140 C 
ATOM     37  C   LIG    1       -7.749 -12.136   1.282  0.00  0.00    +0.040 C 
ATOM     38  C   LIG    1       -7.633 -13.363   3.456  0.00  0.00    +0.080 C 
ATOM     39  C   LIG    1       -5.552 -12.970   2.130  0.00  0.00    +0.040 C 
ENDBRANCH  35  36
ENDBRANCH  33  35
ENDBRANCH  30  31
ENDBRANCH  29  30
ENDBRANCH  28  29
ENDBRANCH  27  28
ENDBRANCH  26  27
ENDBRANCH  24  26
ENDBRANCH   5  22
TORSDOF 10
