REMARK  Name = ZINCpk000000my7l.0
REMARK                            x       y       z     vdW  Elec       q    Type
REMARK                         _______ _______ _______ _____ _____    ______ ____
ROOT
ATOM      1  N   LIG    1        6.384   5.314  -3.643  0.00  0.00    -0.740 N 
ATOM      2  H   LIG    1        5.710   5.085  -4.303  0.00  0.00    +0.410 HD
ATOM      3  C   LIG    1        6.190   5.004  -2.346  0.00  0.00    +0.710 C 
ATOM      4  N   LIG    1        5.060   4.376  -1.965  0.00  0.00    -0.740 N 
ATOM      5  H   LIG    1        4.386   4.147  -2.625  0.00  0.00    +0.400 HD
ATOM      6  O   LIG    1        7.034   5.291  -1.520  0.00  0.00    -0.590 OA
ENDROOT
BRANCH   1   7
ATOM      7  C   LIG    1        7.612   5.996  -4.057  0.00  0.00    +0.320 C 
BRANCH   7  10
ATOM      8  N   LIG    1        8.615   6.842  -6.155  0.00  0.00    -0.720 N 
ATOM      9  H   LIG    1        9.378   7.138  -5.634  0.00  0.00    +0.410 HD
ATOM     10  C   LIG    1        7.582   6.226  -5.547  0.00  0.00    +0.510 C 
ATOM     11  O   LIG    1        6.628   5.856  -6.198  0.00  0.00    -0.530 OA
BRANCH   8  12
ATOM     12  C   LIG    1        8.586   7.065  -7.602  0.00  0.00    +0.430 C 
BRANCH  12  14
ATOM     13  C   LIG    1       10.805   8.298  -8.350  0.00  0.00    +0.060 C 
ATOM     14  C   LIG    1        9.820   7.751  -8.018  0.00  0.00    -0.220 C 
ENDBRANCH  12  14
ENDBRANCH   8  12
ENDBRANCH   7  10
ENDBRANCH   1   7
BRANCH   4  15
ATOM     15  C   LIG    1        4.848   4.039  -0.555  0.00  0.00    +0.350 C 
BRANCH  15  16
ATOM     16  C   LIG    1        3.518   3.348  -0.398  0.00  0.00    -0.200 A 
ATOM     17  C   LIG    1        2.370   4.086  -0.150  0.00  0.00    +0.130 A 
ATOM     18  C   LIG    1        1.168   3.412  -0.017  0.00  0.00    -0.040 A 
ATOM     19  C   LIG    1        1.154   2.027  -0.124  0.00  0.00    +0.320 A 
ATOM     20  N   LIG    1        2.271   1.359  -0.361  0.00  0.00    -0.530 NA
ATOM     21  C   LIG    1        3.430   1.974  -0.498  0.00  0.00    +0.320 A 
BRANCH  19  22
ATOM     22  O   LIG    1       -0.016   1.355   0.009  0.00  0.00    -0.250 OA
BRANCH  22  23
ATOM     23  C   LIG    1        0.026  -0.004   0.018  0.00  0.00    +0.090 A 
ATOM     24  C   LIG    1       -0.467  -0.721  -1.063  0.00  0.00    +0.010 A 
ATOM     25  C   LIG    1       -0.417  -2.101  -1.055  0.00  0.00    +0.020 A 
ATOM     26  C   LIG    1        0.112  -2.769   0.034  0.00  0.00    +0.010 A 
ATOM     27  C   LIG    1        0.598  -2.057   1.115  0.00  0.00    +0.020 A 
ATOM     28  C   LIG    1        0.556  -0.676   1.109  0.00  0.00    +0.000 A 
ENDBRANCH  22  23
ENDBRANCH  19  22
ENDBRANCH  15  16
ENDBRANCH   4  15
TORSDOF 8
