REMARK  Name = ZINCrD0000075jC8.0
REMARK                            x       y       z     vdW  Elec       q    Type
REMARK                         _______ _______ _______ _____ _____    ______ ____
ROOT
ATOM      1  C   LIG    1       -0.102   1.326   4.954  0.00  0.00    +0.480 A 
ATOM      2  N   LIG    1        0.929   0.506   5.083  0.00  0.00    -0.590 NA
ATOM      3  C   LIG    1        1.425   0.198   6.280  0.00  0.00    +0.420 A 
ATOM      4  N   LIG    1        0.923   0.672   7.404  0.00  0.00    -0.550 NA
ATOM      5  C   LIG    1       -0.125   1.506   7.381  0.00  0.00    +0.190 A 
ATOM      6  C   LIG    1       -0.683   2.029   8.556  0.00  0.00    +0.030 A 
ATOM      7  C   LIG    1       -1.750   2.874   8.477  0.00  0.00    +0.060 A 
ATOM      8  C   LIG    1       -2.296   3.226   7.246  0.00  0.00    +0.000 A 
ATOM      9  C   LIG    1       -1.777   2.736   6.083  0.00  0.00    +0.050 A 
ATOM     10  C   LIG    1       -0.683   1.867   6.129  0.00  0.00    -0.200 A 
ENDROOT
BRANCH   3  11
ATOM     11  C   LIG    1        2.586  -0.722   6.352  0.00  0.00    -0.100 A 
ATOM     12  C   LIG    1        3.136  -1.076   7.588  0.00  0.00    +0.120 A 
ATOM     13  C   LIG    1        4.219  -1.938   7.602  0.00  0.00    -0.040 A 
ATOM     14  C   LIG    1        4.718  -2.417   6.404  0.00  0.00    +0.270 A 
ATOM     15  N   LIG    1        4.179  -2.064   5.253  0.00  0.00    -0.490 NA
ATOM     16  C   LIG    1        3.144  -1.251   5.190  0.00  0.00    +0.320 A 
ENDBRANCH   3  11
BRANCH   1  17
ATOM     17  N   LIG    1       -0.603   1.642   3.708  0.00  0.00    -0.690 N 
ATOM     18  H   LIG    1       -1.362   2.241   3.628  0.00  0.00    +0.410 HD
BRANCH  17  19
ATOM     19  C   LIG    1        0.011   1.072   2.506  0.00  0.00    +0.270 C 
BRANCH  19  23
ATOM     20  C   LIG    1       -2.188   1.063  -1.221  0.00  0.00    -0.010 C 
ATOM     21  C   LIG    1       -0.753   1.593  -1.232  0.00  0.00    +0.040 C 
ATOM     22  C   LIG    1       -0.013   1.086   0.008  0.00  0.00    +0.040 C 
ATOM     23  C   LIG    1       -0.729   1.579   1.267  0.00  0.00    -0.020 C 
ATOM     24  C   LIG    1       -2.164   1.050   1.278  0.00  0.00    +0.010 C 
ATOM     25  C   LIG    1       -2.904   1.556   0.038  0.00  0.00    +0.040 C 
BRANCH  20  29
ATOM     26  N   LIG    1       -3.325  -1.133  -1.222  0.00  0.00    -0.860 N 
ATOM     27  H   LIG    1       -3.312  -2.103  -1.227  0.00  0.00    +0.400 HD
ATOM     28  H   LIG    1       -4.172  -0.660  -1.211  0.00  0.00    +0.400 HD
ATOM     29  C   LIG    1       -2.168  -0.444  -1.229  0.00  0.00    +0.520 C 
ATOM     30  O   LIG    1       -1.109  -1.036  -1.242  0.00  0.00    -0.530 OA
ENDBRANCH  20  29
ENDBRANCH  19  23
ENDBRANCH  17  19
ENDBRANCH   1  17
TORSDOF 5
