REMARK  Name = ZINCvU00000004D2.0
REMARK                            x       y       z     vdW  Elec       q    Type
REMARK                         _______ _______ _______ _____ _____    ______ ____
ROOT
ATOM      1  C   LIG    1        0.119   5.861  -0.332  0.00  0.00    -0.240 C 
ATOM      2  C   LIG    1       -0.881   6.747  -0.137  0.00  0.00    +0.180 C 
ATOM      3  N   LIG    1       -0.638   7.976   0.410  0.00  0.00    -0.450 N 
ATOM      4  C   LIG    1        0.578   8.397   0.779  0.00  0.00    +0.550 C 
ATOM      5  N   LIG    1        1.676   7.627   0.642  0.00  0.00    -0.650 N 
ATOM      6  H   LIG    1        2.548   7.952   0.916  0.00  0.00    +0.450 HD
ATOM      7  S   LIG    1        0.745   9.965   1.447  0.00  0.00    -0.580 S 
ATOM      8  C   LIG    1       -2.288   6.373  -0.525  0.00  0.00    +0.150 C 
ATOM      9  C   LIG    1        1.520   6.280   0.067  0.00  0.00    +0.320 C 
ENDROOT
BRANCH   3  10
ATOM     10  C   LIG    1       -1.721   8.845   0.591  0.00  0.00    +0.120 A 
ATOM     11  C   LIG    1       -2.387   8.884   1.809  0.00  0.00    +0.040 A 
ATOM     12  C   LIG    1       -3.452   9.745   1.985  0.00  0.00    +0.020 A 
ATOM     13  C   LIG    1       -3.862  10.561   0.947  0.00  0.00    +0.030 A 
ATOM     14  C   LIG    1       -3.205  10.521  -0.270  0.00  0.00    +0.020 A 
ATOM     15  C   LIG    1       -2.136   9.665  -0.450  0.00  0.00    +0.040 A 
ENDBRANCH   3  10
BRANCH   9  16
ATOM     16  C   LIG    1        2.035   5.283   1.072  0.00  0.00    -0.120 A 
ATOM     17  C   LIG    1        1.563   5.305   2.371  0.00  0.00    +0.020 A 
ATOM     18  C   LIG    1        2.032   4.387   3.292  0.00  0.00    +0.010 A 
ATOM     19  C   LIG    1        2.981   3.454   2.917  0.00  0.00    +0.020 A 
ATOM     20  C   LIG    1        3.457   3.436   1.619  0.00  0.00    +0.010 A 
ATOM     21  C   LIG    1        2.984   4.351   0.697  0.00  0.00    +0.020 A 
ENDBRANCH   9  16
BRANCH   1  24
ATOM     22  N   LIG    1       -0.619   3.594  -0.123  0.00  0.00    -0.650 N 
ATOM     23  H   LIG    1       -0.880   3.775   0.793  0.00  0.00    +0.410 HD
ATOM     24  C   LIG    1       -0.131   4.586  -0.894  0.00  0.00    +0.600 C 
ATOM     25  O   LIG    1        0.095   4.386  -2.074  0.00  0.00    -0.510 OA
BRANCH  22  31
ATOM     26  C   LIG    1       -0.433   1.194   0.139  0.00  0.00    +0.110 A 
ATOM     27  C   LIG    1       -0.563  -0.082  -0.384  0.00  0.00    -0.060 A 
ATOM     28  C   LIG    1       -1.009  -0.256  -1.681  0.00  0.00    +0.040 A 
ATOM     29  C   LIG    1       -1.325   0.842  -2.460  0.00  0.00    -0.010 A 
ATOM     30  C   LIG    1       -1.196   2.119  -1.947  0.00  0.00    +0.060 A 
ATOM     31  C   LIG    1       -0.750   2.301  -0.646  0.00  0.00    +0.110 A 
BRANCH  26  33
ATOM     32  C   LIG    1        0.314   0.187   2.160  0.00  0.00    +0.250 C 
ATOM     33  O   LIG    1        0.005   1.367   1.415  0.00  0.00    -0.310 OA
ENDBRANCH  26  33
ENDBRANCH  22  31
ENDBRANCH   1  24
TORSDOF 5
