REMARK  Name = ZINCpe000000W0dG.0
REMARK                            x       y       z     vdW  Elec       q    Type
REMARK                         _______ _______ _______ _____ _____    ______ ____
ROOT
ATOM      1  C   LIG    1        3.570   7.127   1.016  0.00  0.00    +0.510 C 
ATOM      2  N   LIG    1        4.520   8.050   1.263  0.00  0.00    -0.650 N 
ATOM      3  H   LIG    1        5.305   7.812   1.782  0.00  0.00    +0.410 HD
ATOM      4  O   LIG    1        2.590   7.425   0.367  0.00  0.00    -0.490 OA
ENDROOT
BRANCH   2   5
ATOM      5  C   LIG    1        4.376   9.348   0.773  0.00  0.00    +0.300 A 
ATOM      6  C   LIG    1        3.333   9.818   0.035  0.00  0.00    -0.110 A 
ATOM      7  C   LIG    1        3.580  11.164  -0.247  0.00  0.00    +0.250 A 
ATOM      8  N   LIG    1        4.724  11.495   0.296  0.00  0.00    -0.280 NA
ATOM      9  N   LIG    1        5.244  10.370   0.949  0.00  0.00    -0.380 N 
BRANCH   9  10
ATOM     10  C   LIG    1        6.507  10.311   1.690  0.00  0.00    +0.250 C 
ATOM     11  C   LIG    1        6.502  11.354   2.826  0.00  0.00    +0.030 C 
ATOM     12  C   LIG    1        7.960  11.878   2.866  0.00  0.00    +0.020 C 
ATOM     13  C   LIG    1        8.347  11.927   1.367  0.00  0.00    +0.020 C 
ATOM     14  C   LIG    1        7.679  10.675   0.763  0.00  0.00    +0.020 C 
ENDBRANCH   9  10
ENDBRANCH   2   5
BRANCH   1  15
ATOM     15  C   LIG    1        3.726   5.725   1.545  0.00  0.00    +0.380 C 
BRANCH  15  20
ATOM     16  C   LIG    1        1.139   3.547   0.010  0.00  0.00    +0.130 C 
ATOM     17  N   LIG    1        0.540   4.004   1.276  0.00  0.00    -0.710 N 
ATOM     18  H   LIG    1       -0.338   3.776   1.618  0.00  0.00    +0.450 HD
ATOM     19  C   LIG    1        1.451   4.800   1.867  0.00  0.00    +0.710 C 
ATOM     20  N   LIG    1        2.570   4.920   1.144  0.00  0.00    -0.560 N 
ATOM     21  O   LIG    1        1.275   5.348   2.937  0.00  0.00    -0.530 OA
ATOM     22  C   LIG    1        0.304   4.016  -1.183  0.00  0.00    +0.100 C 
ATOM     23  C   LIG    1        2.502   4.209   0.001  0.00  0.00    +0.540 C 
ATOM     24  O   LIG    1        3.354   4.119  -0.857  0.00  0.00    -0.450 OA
BRANCH  16  25
ATOM     25  C   LIG    1        1.280   2.024   0.001  0.00  0.00    +0.210 C 
BRANCH  25  27
ATOM     26  C   LIG    1        0.002  -0.004   0.002  0.00  0.00    +0.210 C 
ATOM     27  O   LIG    1       -0.017   1.425   0.010  0.00  0.00    -0.380 OA
ENDBRANCH  25  27
ENDBRANCH  16  25
ENDBRANCH  15  20
ENDBRANCH   1  15
TORSDOF 6
