REMARK  Name = ZINCb70000004SOf.0
REMARK                            x       y       z     vdW  Elec       q    Type
REMARK                         _______ _______ _______ _____ _____    ______ ____
ROOT
ATOM      1  C   LIG    1        1.353  -0.422  -0.604  0.00  0.00    +0.190 C 
ATOM      2  C   LIG    1        2.107   0.881  -0.942  0.00  0.00    +0.080 C 
ATOM      3  C   LIG    1        1.477   1.939  -0.002  0.00  0.00    +0.050 C 
ATOM      4  C   LIG    1       -0.019   1.538   0.011  0.00  0.00    +0.090 C 
ATOM      5  C   LIG    1        0.002  -0.004   0.002  0.00  0.00    -0.470 C 
ENDROOT
BRANCH   1   7
ATOM      6  C   LIG    1        3.353  -1.702  -0.258  0.00  0.00    +0.340 C 
ATOM      7  N   LIG    1        2.120  -1.209   0.371  0.00  0.00    -0.510 N 
ATOM      8  H   LIG    1        1.565  -1.992   0.683  0.00  0.00    +0.430 HD
ATOM      9  H   LIG    1        2.356  -0.628   1.162  0.00  0.00    +0.430 HD
ENDBRANCH   1   7
BRANCH   5  10
ATOM     10  S   LIG    1       -1.358  -0.638  -1.017  0.00  0.00    +2.420 S 
ATOM     11  O   LIG    1       -1.441  -2.045  -0.836  0.00  0.00    -0.930 OA
ATOM     12  O   LIG    1       -1.223  -0.114  -2.330  0.00  0.00    -0.910 OA
ATOM     13  C   LIG    1       -2.803   0.131  -0.234  0.00  0.00    -0.220 C 
ENDBRANCH   5  10
TORSDOF 2
