REMARK  Name = ZINCpk000000pPyn.0
REMARK                            x       y       z     vdW  Elec       q    Type
REMARK                         _______ _______ _______ _____ _____    ______ ____
ROOT
ATOM      1  N   LIG    1        4.352   1.949  -0.739  0.00  0.00    -0.730 N 
ATOM      2  H   LIG    1        4.027   2.805  -0.417  0.00  0.00    +0.410 HD
ATOM      3  C   LIG    1        3.723   0.812  -0.384  0.00  0.00    +0.700 C 
ATOM      4  N   LIG    1        2.585   0.868   0.336  0.00  0.00    -0.610 N 
ATOM      5  C   LIG    1        1.897  -0.368   0.598  0.00  0.00    +0.300 C 
ATOM      6  C   LIG    1        2.268  -0.913   1.961  0.00  0.00    +0.070 C 
ATOM      7  C   LIG    1        1.911   0.062   3.075  0.00  0.00    -0.060 A 
ATOM      8  C   LIG    1        1.355  -0.664   4.156  0.00  0.00    -0.010 A 
ATOM      9  C   LIG    1        0.933  -0.044   5.303  0.00  0.00    +0.000 A 
ATOM     10  C   LIG    1        1.067   1.329   5.408  0.00  0.00    +0.000 A 
ATOM     11  C   LIG    1        1.612   2.021   4.357  0.00  0.00    -0.010 A 
ATOM     12  C   LIG    1        2.039   1.371   3.175  0.00  0.00    -0.070 A 
ATOM     13  C   LIG    1        2.591   2.414   2.213  0.00  0.00    +0.060 C 
ATOM     14  C   LIG    1        2.143   2.160   0.789  0.00  0.00    +0.270 C 
ATOM     15  O   LIG    1        4.182  -0.265  -0.712  0.00  0.00    -0.580 OA
ENDROOT
BRANCH   1  16
ATOM     16  C   LIG    1        5.527   1.894  -1.612  0.00  0.00    +0.260 C 
BRANCH  16  17
ATOM     17  C   LIG    1        6.384   3.112  -1.379  0.00  0.00    +0.520 C 
ATOM     18  N   LIG    1        7.707   3.064  -1.632  0.00  0.00    -0.610 N 
ATOM     19  C   LIG    1        8.320   1.869  -2.233  0.00  0.00    +0.250 C 
ATOM     20  C   LIG    1        9.169   2.318  -3.433  0.00  0.00    +0.220 C 
ATOM     21  O   LIG    1       10.066   3.349  -3.013  0.00  0.00    -0.380 OA
ATOM     22  C   LIG    1        9.418   4.536  -2.550  0.00  0.00    +0.220 C 
ATOM     23  C   LIG    1        8.582   4.202  -1.309  0.00  0.00    +0.260 C 
ATOM     24  O   LIG    1        5.883   4.136  -0.964  0.00  0.00    -0.530 OA
ENDBRANCH  16  17
BRANCH  16  26
ATOM     25  C   LIG    1        4.321   0.557  -3.344  0.00  0.00    +0.030 C 
ATOM     26  C   LIG    1        5.076   1.860  -3.074  0.00  0.00    +0.010 C 
ENDBRANCH  16  26
ENDBRANCH   1  16
TORSDOF 3
