REMARK  Name = ZINCkj00000dEkWJ.0
REMARK                            x       y       z     vdW  Elec       q    Type
REMARK                         _______ _______ _______ _____ _____    ______ ____
ROOT
ATOM      1  N   LIG    1       -0.700   1.559   1.217  0.00  0.00    -0.500 N 
ATOM      2  H   LIG    1       -0.786   2.564   1.183  0.00  0.00    +0.430 HD
ATOM      3  H   LIG    1       -0.167   1.295   2.032  0.00  0.00    +0.430 HD
ENDROOT
BRANCH   1   4
ATOM      4  C   LIG    1       -0.013   1.086   0.008  0.00  0.00    +0.180 C 
ATOM      5  C   LIG    1       -0.753   1.593  -1.231  0.00  0.00    +0.040 C 
ATOM      6  C   LIG    1       -0.040   1.096  -2.490  0.00  0.00    +0.060 C 
ATOM      7  C   LIG    1        1.398   1.618  -2.501  0.00  0.00    +0.250 C 
ATOM      8  O   LIG    1        2.069   1.148  -3.681  0.00  0.00    -0.360 OA
ATOM      9  C   LIG    1        1.935   2.227  -4.637  0.00  0.00    +0.210 C 
ATOM     10  C   LIG    1        2.049   3.473  -3.724  0.00  0.00    +0.210 C 
ATOM     11  C   LIG    1        2.140   1.119  -1.260  0.00  0.00    +0.070 C 
ATOM     12  O   LIG    1        1.389   3.051  -2.513  0.00  0.00    -0.380 OA
ATOM     13  C   LIG    1        1.423   1.615  -0.003  0.00  0.00    +0.050 C 
ENDBRANCH   1   4
BRANCH   1  20
ATOM     14  C   LIG    1       -1.304  -2.600   1.274  0.00  0.00    +0.440 A 
ATOM     15  N   LIG    1       -2.233  -2.589   2.197  0.00  0.00    -0.270 NA
ATOM     16  N   LIG    1       -2.643  -1.260   2.334  0.00  0.00    -0.340 N 
ATOM     17  C   LIG    1       -3.661  -0.713   3.232  0.00  0.00    +0.340 C 
ATOM     18  C   LIG    1       -4.057   0.683   2.736  0.00  0.00    +0.080 C 
ATOM     19  C   LIG    1       -2.795   1.517   2.498  0.00  0.00    +0.070 C 
ATOM     20  C   LIG    1       -2.037   0.955   1.288  0.00  0.00    +0.290 C 
ATOM     21  C   LIG    1       -1.912  -0.539   1.463  0.00  0.00    +0.210 A 
ATOM     22  N   LIG    1       -1.114  -1.355   0.834  0.00  0.00    -0.520 NA
ENDBRANCH   1  20
TORSDOF 2
