REMARK  Name = ZINCpe000000VsBP.0
REMARK                            x       y       z     vdW  Elec       q    Type
REMARK                         _______ _______ _______ _____ _____    ______ ____
ROOT
ATOM      1  C   LIG    1        4.176  -2.512  -3.218  0.00  0.00    +0.030 C 
ATOM      2  C   LIG    1        3.225  -1.994  -2.117  0.00  0.00    +0.210 C 
ATOM      3  N   LIG    1        3.985  -0.909  -1.446  0.00  0.00    -0.500 NA
ATOM      4  C   LIG    1        5.376  -1.424  -1.380  0.00  0.00    +0.180 C 
ATOM      5  C   LIG    1        5.591  -2.136  -2.733  0.00  0.00    +0.280 C 
ENDROOT
BRANCH   5   6
ATOM      6  N   LIG    1        6.403  -3.342  -2.550  0.00  0.00    -0.710 N 
ATOM      7  H   LIG    1        5.974  -4.190  -2.353  0.00  0.00    +0.410 HD
ATOM      8  C   LIG    1        7.745  -3.274  -2.654  0.00  0.00    +0.580 C 
ATOM      9  O   LIG    1        8.282  -2.212  -2.901  0.00  0.00    -0.510 OA
BRANCH   8  10
ATOM     10  C   LIG    1        8.565  -4.493  -2.469  0.00  0.00    +0.020 A 
ATOM     11  C   LIG    1        9.953  -4.426  -2.582  0.00  0.00    +0.310 A 
ATOM     12  N   LIG    1       10.681  -5.515  -2.411  0.00  0.00    -0.440 NA
ATOM     13  C   LIG    1       10.094  -6.668  -2.143  0.00  0.00    +0.260 A 
ATOM     14  C   LIG    1        8.713  -6.740  -2.035  0.00  0.00    +0.230 A 
ATOM     15  N   LIG    1        7.979  -5.657  -2.199  0.00  0.00    -0.410 NA
ENDBRANCH   8  10
ENDBRANCH   5   6
BRANCH   1  16
ATOM     16  C   LIG    1        4.051  -4.006  -3.361  0.00  0.00    +0.470 C 
ATOM     17  O   LIG    1        3.689  -4.675  -2.422  0.00  0.00    -0.500 OA
BRANCH  16  19
ATOM     18  C   LIG    1        4.198  -6.039  -4.597  0.00  0.00    +0.270 C 
ATOM     19  O   LIG    1        4.341  -4.596  -4.532  0.00  0.00    -0.350 OA
ENDBRANCH  16  19
ENDBRANCH   1  16
BRANCH   3  20
ATOM     20  C   LIG    1        3.455  -0.651  -0.100  0.00  0.00    +0.220 C 
BRANCH  20  21
ATOM     21  C   LIG    1        2.149   0.094  -0.208  0.00  0.00    -0.080 A 
ATOM     22  C   LIG    1        0.960  -0.605  -0.290  0.00  0.00    +0.010 A 
ATOM     23  C   LIG    1       -0.238   0.078  -0.390  0.00  0.00    +0.000 A 
ATOM     24  C   LIG    1       -0.246   1.460  -0.408  0.00  0.00    +0.000 A 
ATOM     25  C   LIG    1        0.944   2.159  -0.325  0.00  0.00    +0.000 A 
ATOM     26  C   LIG    1        2.141   1.476  -0.226  0.00  0.00    +0.020 A 
ENDBRANCH  20  21
ENDBRANCH   3  20
TORSDOF 6
