REMARK  Name = ZINCkj00000Lfvou.0
REMARK                            x       y       z     vdW  Elec       q    Type
REMARK                         _______ _______ _______ _____ _____    ______ ____
ROOT
ATOM      1  C   LIG    1       -1.167  -0.983   3.694  0.00  0.00    +0.110 C 
ATOM      2  C   LIG    1       -0.673  -1.383   2.281  0.00  0.00    +0.210 C 
ATOM      3  N   LIG    1       -1.769  -0.917   1.393  0.00  0.00    -0.490 NA
ATOM      4  C   LIG    1       -2.212   0.381   1.947  0.00  0.00    +0.210 C 
ATOM      5  C   LIG    1       -1.860   0.376   3.446  0.00  0.00    +0.160 C 
ENDROOT
BRANCH   1  10
ATOM      6  C   LIG    1        3.401  -0.104   5.581  0.00  0.00    +0.340 C 
ATOM      7  N   LIG    1        1.980  -0.442   5.457  0.00  0.00    -0.450 N 
ATOM      8  C   LIG    1        1.149  -0.788   6.463  0.00  0.00    +0.410 A 
ATOM      9  N   LIG    1       -0.038  -1.011   5.968  0.00  0.00    -0.490 NA
ATOM     10  C   LIG    1       -0.004  -0.825   4.640  0.00  0.00    -0.030 A 
ATOM     11  C   LIG    1        1.248  -0.465   4.301  0.00  0.00    +0.140 A 
ENDBRANCH   1  10
BRANCH   5  12
ATOM     12  N   LIG    1       -3.080   0.484   4.257  0.00  0.00    -0.630 N 
ATOM     13  H   LIG    1       -3.545   1.355   4.051  0.00  0.00    +0.440 HD
ATOM     14  H   LIG    1       -2.837   0.456   5.236  0.00  0.00    +0.440 HD
ATOM     15  H   LIG    1       -3.696  -0.285   4.041  0.00  0.00    +0.440 HD
ENDBRANCH   5  12
BRANCH   3  16
ATOM     16  C   LIG    1       -1.298  -0.766   0.010  0.00  0.00    +0.310 C 
BRANCH  16  17
ATOM     17  C   LIG    1        0.002  -0.004   0.002  0.00  0.00    +0.080 A 
ATOM     18  C   LIG    1        1.199  -0.695  -0.013  0.00  0.00    +0.000 A 
ATOM     19  C   LIG    1        2.389   0.015  -0.021  0.00  0.00    +0.090 A 
ATOM     20  C   LIG    1        2.331   1.401  -0.013  0.00  0.00    -0.080 A 
ATOM     21  C   LIG    1        1.096   2.023   0.003  0.00  0.00    +0.290 A 
ATOM     22 CL   LIG    1        3.790   2.342  -0.022  0.00  0.00    -0.040 Cl
ATOM     23  N   LIG    1       -0.016   1.315   0.009  0.00  0.00    -0.460 NA
ENDBRANCH  16  17
ENDBRANCH   3  16
TORSDOF 4
