REMARK  Name = ZINCrD00000l94iv.0
REMARK                            x       y       z     vdW  Elec       q    Type
REMARK                         _______ _______ _______ _____ _____    ______ ____
ROOT
ATOM      1  C   LIG    1       -1.179  -0.870   0.009  0.00  0.00    +0.540 C 
ATOM      2  O   LIG    1       -2.292  -0.380   0.023  0.00  0.00    -0.490 OA
ENDROOT
BRANCH   1   6
ATOM      3  C   LIG    1        2.251   1.049  -0.014  0.00  0.00    -0.190 A 
ATOM      4  C   LIG    1        1.238   1.924   0.001  0.00  0.00    +0.000 A 
ATOM      5  C   LIG    1       -0.017   1.363   0.009  0.00  0.00    +0.130 A 
ATOM      6  C   LIG    1        0.002  -0.004   0.002  0.00  0.00    -0.270 A 
ATOM      7  S   LIG    1        1.671  -0.556  -0.017  0.00  0.00    +0.250 S 
BRANCH   3   8
ATOM      8  C   LIG    1        3.709   1.430  -0.025  0.00  0.00    +0.130 C 
BRANCH   8   9
ATOM      9  C   LIG    1        4.215   1.552   1.413  0.00  0.00    +0.280 C 
BRANCH   9  10
ATOM     10  N   LIG    1        5.633   1.923   1.402  0.00  0.00    -1.120 NA
ATOM     11  H   LIG    1        6.150   1.839   0.586  0.00  0.00    +0.420 HD
BRANCH  10  13
ATOM     12  C   LIG    1        6.299   1.077   3.927  0.00  0.00    -0.280 C 
ATOM     13  S   LIG    1        6.352   2.485   2.784  0.00  0.00    +2.620 S 
ATOM     14  O   LIG    1        5.491   3.523   3.230  0.00  0.00    -0.950 OA
ATOM     15  O   LIG    1        7.691   2.760   2.394  0.00  0.00    -0.960 OA
ENDBRANCH  10  13
ENDBRANCH   9  10
ENDBRANCH   8   9
ENDBRANCH   3   8
ENDBRANCH   1   6
BRANCH   1  16
ATOM     16  O   LIG    1       -1.032  -2.211   0.000  0.00  0.00    -0.350 OA
BRANCH  16  17
ATOM     17  C   LIG    1       -2.246  -3.006   0.008  0.00  0.00    +0.320 C 
BRANCH  17  18
ATOM     18  C   LIG    1       -1.888  -4.470  -0.003  0.00  0.00    -0.140 A 
ATOM     19  C   LIG    1       -0.578  -4.852  -0.024  0.00  0.00    +0.140 A 
ATOM     20  C   LIG    1       -0.287  -6.230  -0.028  0.00  0.00    -0.100 A 
ATOM     21  C   LIG    1        1.037  -6.698  -0.044  0.00  0.00    +0.050 A 
ATOM     22  C   LIG    1        1.277  -8.038  -0.054  0.00  0.00    +0.020 A 
ATOM     23  C   LIG    1        0.227  -8.953  -0.049  0.00  0.00    +0.050 A 
ATOM     24  C   LIG    1       -1.069  -8.534  -0.034  0.00  0.00    +0.050 A 
ATOM     25  C   LIG    1       -1.357  -7.159  -0.023  0.00  0.00    +0.140 A 
ATOM     26  N   LIG    1       -2.620  -6.719  -0.008  0.00  0.00    -0.460 NA
ATOM     27  C   LIG    1       -2.894  -5.436   0.002  0.00  0.00    +0.220 A 
ATOM     28 CL   LIG    1       -4.554  -4.927   0.021  0.00  0.00    -0.020 Cl
ENDBRANCH  17  18
ENDBRANCH  16  17
ENDBRANCH   1  16
TORSDOF 8
