REMARK  Name = ZINCrD00000F5Ll6.0
REMARK                            x       y       z     vdW  Elec       q    Type
REMARK                         _______ _______ _______ _____ _____    ______ ____
ROOT
ATOM      1  C   LIG    1       -0.631   1.100   0.537  0.00  0.00    +0.080 C 
ATOM      2  C   LIG    1        0.547   1.288  -0.421  0.00  0.00    +0.160 C 
ATOM      3  C   LIG    1        0.013   1.642  -1.810  0.00  0.00    +0.080 C 
ATOM      4  C   LIG    1        1.193   2.048  -2.701  0.00  0.00    +0.030 C 
ATOM      5  C   LIG    1        1.764   3.367  -2.176  0.00  0.00    +0.060 C 
ATOM      6  C   LIG    1        1.981   3.276  -0.692  0.00  0.00    +0.520 C 
ATOM      7  O   LIG    1        2.714   4.088  -0.168  0.00  0.00    -0.530 OA
ATOM      8  N   LIG    1        1.411   2.350   0.079  0.00  0.00    -0.590 N 
ENDROOT
BRANCH   2   9
ATOM      9  C   LIG    1        1.333   0.004  -0.502  0.00  0.00    +0.510 C 
ATOM     10  N   LIG    1        2.245  -0.289   0.446  0.00  0.00    -0.670 N 
ATOM     11  H   LIG    1        2.346   0.291   1.217  0.00  0.00    +0.410 HD
ATOM     12  O   LIG    1        1.144  -0.766  -1.420  0.00  0.00    -0.500 OA
BRANCH  10  13
ATOM     13  C   LIG    1        3.047  -1.430   0.318  0.00  0.00    +0.150 A 
ATOM     14  C   LIG    1        2.526  -2.583  -0.254  0.00  0.00    +0.050 A 
ATOM     15  C   LIG    1        3.318  -3.709  -0.386  0.00  0.00    +0.060 A 
ATOM     16  C   LIG    1        4.628  -3.693   0.063  0.00  0.00    +0.020 A 
ATOM     17  O   LIG    1        5.598  -4.655   0.055  0.00  0.00    -0.310 OA
ATOM     18  C   LIG    1        6.587  -4.212   1.003  0.00  0.00    +0.430 C 
ATOM     19  O   LIG    1        6.447  -2.779   0.998  0.00  0.00    -0.310 OA
ATOM     20  C   LIG    1        5.151  -2.539   0.643  0.00  0.00    +0.050 A 
ATOM     21  C   LIG    1        4.360  -1.411   0.769  0.00  0.00    +0.010 A 
ENDBRANCH  10  13
ENDBRANCH   2   9
BRANCH   8  22
ATOM     22  C   LIG    1        1.669   2.404   1.520  0.00  0.00    +0.320 C 
BRANCH  22  23
ATOM     23  C   LIG    1        0.878   3.532   2.131  0.00  0.00    -0.110 A 
ATOM     24  C   LIG    1        1.421   4.802   2.191  0.00  0.00    +0.050 A 
ATOM     25  C   LIG    1        0.694   5.839   2.747  0.00  0.00    -0.010 A 
ATOM     26  C   LIG    1       -0.572   5.603   3.250  0.00  0.00    +0.010 A 
ATOM     27  C   LIG    1       -1.112   4.332   3.194  0.00  0.00    -0.010 A 
ATOM     28  C   LIG    1       -0.387   3.297   2.634  0.00  0.00    +0.010 A 
ENDBRANCH  22  23
ENDBRANCH   8  22
TORSDOF 4
