REMARK  Name = ZINCqH0000002B1a.1
REMARK                            x       y       z     vdW  Elec       q    Type
REMARK                         _______ _______ _______ _____ _____    ______ ____
ROOT
ATOM      1  C   LIG    1        3.028  -5.401  -0.895  0.00  0.00    +0.600 C 
ATOM      2  N   LIG    1        3.555  -4.189  -0.633  0.00  0.00    -0.710 N 
ATOM      3  H   LIG    1        2.973  -3.437  -0.445  0.00  0.00    +0.410 HD
ATOM      4  O   LIG    1        3.758  -6.343  -1.130  0.00  0.00    -0.520 OA
ENDROOT
BRANCH   1   7
ATOM      5  C   LIG    1       -0.455  -6.432  -1.038  0.00  0.00    -0.020 A 
ATOM      6  C   LIG    1        0.845  -6.790  -1.154  0.00  0.00    +0.020 A 
ATOM      7  C   LIG    1        1.556  -5.584  -0.898  0.00  0.00    -0.030 A 
ATOM      8  N   LIG    1        0.648  -4.671  -0.659  0.00  0.00    -0.330 NA
ATOM      9  O   LIG    1       -0.469  -5.126  -0.739  0.00  0.00    +0.120 OA
BRANCH   5  10
ATOM     10  C   LIG    1       -1.653  -7.329  -1.211  0.00  0.00    +0.310 C 
BRANCH  10  11
ATOM     11  N   LIG    1       -2.007  -7.929   0.083  0.00  0.00    -0.530 NA
BRANCH  11  12
ATOM     12  C   LIG    1       -2.470  -6.905   1.029  0.00  0.00    +0.200 C 
BRANCH  12  14
ATOM     13  C   LIG    1       -4.239  -5.200   1.486  0.00  0.00    +0.030 C 
ATOM     14  C   LIG    1       -3.758  -6.268   0.502  0.00  0.00    -0.030 C 
ENDBRANCH  12  14
ENDBRANCH  11  12
BRANCH  11  15
ATOM     15  C   LIG    1       -3.014  -8.985  -0.084  0.00  0.00    +0.180 C 
BRANCH  15  16
ATOM     16  C   LIG    1       -3.110  -9.806   1.203  0.00  0.00    +0.010 C 
ATOM     17  C   LIG    1       -4.151 -10.913   1.025  0.00  0.00    +0.020 C 
ENDBRANCH  15  16
ENDBRANCH  11  15
ENDBRANCH  10  11
ENDBRANCH   5  10
ENDBRANCH   1   7
BRANCH   2  18
ATOM     18  C   LIG    1        5.009  -4.008  -0.630  0.00  0.00    +0.320 C 
BRANCH  18  19
ATOM     19  C   LIG    1        5.344  -2.578  -0.201  0.00  0.00    -0.110 C 
ATOM     20  C   LIG    1        5.322  -2.265   1.296  0.00  0.00    +0.040 C 
ATOM     21  C   LIG    1        6.657  -2.355   0.553  0.00  0.00    +0.050 C 
BRANCH  19  22
ATOM     22  C   LIG    1        4.892  -1.493  -1.145  0.00  0.00    -0.050 A 
ATOM     23  C   LIG    1        5.704  -1.108  -2.195  0.00  0.00    +0.010 A 
ATOM     24  C   LIG    1        5.289  -0.113  -3.060  0.00  0.00    +0.000 A 
ATOM     25  C   LIG    1        4.062   0.497  -2.876  0.00  0.00    +0.000 A 
ATOM     26  C   LIG    1        3.250   0.111  -1.826  0.00  0.00    +0.000 A 
ATOM     27  C   LIG    1        3.665  -0.884  -0.960  0.00  0.00    +0.010 A 
ENDBRANCH  19  22
ENDBRANCH  18  19
ENDBRANCH   2  18
TORSDOF 10
