REMARK  Name = ZINCrH000004pSrP.0
REMARK                            x       y       z     vdW  Elec       q    Type
REMARK                         _______ _______ _______ _____ _____    ______ ____
ROOT
ATOM      1  C   LIG    1        3.439   3.712   1.868  0.00  0.00    -0.140 A 
ATOM      2  C   LIG    1        2.628   4.189   0.834  0.00  0.00    +0.070 A 
ATOM      3  C   LIG    1        2.514   5.544   0.620  0.00  0.00    +0.000 A 
ATOM      4  C   LIG    1        3.212   6.439   1.426  0.00  0.00    +0.170 A 
ATOM      5  C   LIG    1        4.025   5.967   2.453  0.00  0.00    +0.010 A 
ATOM      6  C   LIG    1        4.139   4.614   2.675  0.00  0.00    +0.100 A 
ENDROOT
BRANCH   1  13
ATOM      7  C   LIG    1       -1.248   1.987   2.282  0.00  0.00    +0.030 C 
ATOM      8  C   LIG    1        0.156   1.514   2.665  0.00  0.00    -0.030 C 
ATOM      9  C   LIG    1        0.191  -0.016   2.686  0.00  0.00    +0.030 C 
ATOM     10  C   LIG    1        1.586  -0.490   3.102  0.00  0.00    -0.030 C 
ATOM     11  C   LIG    1        2.614   0.003   2.079  0.00  0.00    +0.270 C 
ATOM     12  N   LIG    1        2.487   1.461   1.946  0.00  0.00    -0.600 N 
ATOM     13  C   LIG    1        3.560   2.261   2.104  0.00  0.00    +0.560 C 
ATOM     14  O   LIG    1        4.628   1.787   2.440  0.00  0.00    -0.530 OA
ATOM     15  C   LIG    1        1.927   0.075   4.482  0.00  0.00    +0.020 C 
ATOM     16  C   LIG    1        1.168   2.030   1.637  0.00  0.00    +0.260 C 
ENDBRANCH   1  13
BRANCH   4  17
ATOM     17  N   LIG    1        3.099   7.806   1.204  0.00  0.00    -1.060 N 
ATOM     18  H   LIG    1        2.951   8.408   1.950  0.00  0.00    +0.430 HD
BRANCH  17  19
ATOM     19  S   LIG    1        3.215   8.408  -0.335  0.00  0.00    +2.690 S 
ATOM     20  O   LIG    1        3.183   9.824  -0.216  0.00  0.00    -0.940 OA
ATOM     21  O   LIG    1        2.290   7.673  -1.124  0.00  0.00    -0.940 OA
BRANCH  19  22
ATOM     22  C   LIG    1        4.819   7.995  -0.936  0.00  0.00    -0.690 A 
ATOM     23  C   LIG    1        5.896   8.813  -0.648  0.00  0.00    +0.160 A 
ATOM     24  C   LIG    1        7.156   8.487  -1.114  0.00  0.00    -0.020 A 
ATOM     25  C   LIG    1        7.337   7.347  -1.879  0.00  0.00    +0.160 A 
ATOM     26  C   LIG    1        6.256   6.533  -2.172  0.00  0.00    -0.020 A 
ATOM     27  F   LIG    1        8.567   7.031  -2.340  0.00  0.00    -0.130 F 
ATOM     28  C   LIG    1        4.999   6.857  -1.700  0.00  0.00    +0.160 A 
ENDBRANCH  19  22
ENDBRANCH  17  19
ENDBRANCH   4  17
TORSDOF 4
