REMARK  Name = ZINCpk00000xROU8.1
REMARK                            x       y       z     vdW  Elec       q    Type
REMARK                         _______ _______ _______ _____ _____    ______ ____
ROOT
ATOM      1  C   LIG    1      -10.546   2.135   1.727  0.00  0.00    +0.340 C 
ATOM      2  N   LIG    1       -9.324   1.550   1.170  0.00  0.00    -0.640 N 
ATOM      3  C   LIG    1       -8.175   1.063   1.951  0.00  0.00    +0.280 C 
ATOM      4  C   LIG    1       -7.194   0.565   0.878  0.00  0.00    +0.090 C 
ATOM      5  O   LIG    1       -7.875   0.816  -0.380  0.00  0.00    -0.310 OA
ATOM      6  C   LIG    1       -6.932  -0.927   1.058  0.00  0.00    +0.050 C 
ATOM      7  C   LIG    1       -5.995  -1.418  -0.050  0.00  0.00    +0.290 C 
ATOM      8  N   LIG    1       -4.790  -0.577  -0.056  0.00  0.00    -0.580 N 
ATOM      9  C   LIG    1       -4.946   0.881  -0.153  0.00  0.00    +0.310 C 
ATOM     10  C   LIG    1       -3.565  -1.132   0.031  0.00  0.00    +0.520 C 
ATOM     11  O   LIG    1       -2.589  -0.427   0.185  0.00  0.00    -0.510 OA
ATOM     12  C   LIG    1       -5.891   1.354   0.951  0.00  0.00    +0.060 C 
ATOM     13  C   LIG    1       -9.068   1.372  -0.134  0.00  0.00    +0.640 C 
ATOM     14  O   LIG    1       -9.847   1.686  -1.012  0.00  0.00    -0.520 OA
ENDROOT
BRANCH  10  15
ATOM     15  C   LIG    1       -3.408  -2.614  -0.062  0.00  0.00    +0.510 C 
ATOM     16  N   LIG    1       -2.206  -3.180   0.160  0.00  0.00    -0.610 N 
ATOM     17  H   LIG    1       -1.442  -2.624   0.381  0.00  0.00    +0.430 HD
ATOM     18  O   LIG    1       -4.364  -3.309  -0.339  0.00  0.00    -0.440 OA
BRANCH  16  19
ATOM     19  C   LIG    1       -2.060  -4.557   0.073  0.00  0.00    +0.250 A 
ATOM     20  N   LIG    1       -3.013  -5.388  -0.215  0.00  0.00    -0.470 NA
ATOM     21  C   LIG    1       -2.698  -6.668  -0.255  0.00  0.00    +0.250 A 
ATOM     22  C   LIG    1       -1.417  -6.933   0.012  0.00  0.00    -0.200 A 
ATOM     23  S   LIG    1       -0.598  -5.405   0.330  0.00  0.00    +0.150 S 
BRANCH  22  24
ATOM     24  C   LIG    1       -0.781  -8.299   0.036  0.00  0.00    +0.050 C 
ATOM     25  C   LIG    1        0.651  -8.403   0.563  0.00  0.00    +0.040 C 
ATOM     26  C   LIG    1        0.373  -8.559  -0.934  0.00  0.00    +0.040 C 
ENDBRANCH  22  24
ENDBRANCH  16  19
ENDBRANCH  10  15
TORSDOF 3
