REMARK  Name = ZINCpk000000mR0Q.0
REMARK                            x       y       z     vdW  Elec       q    Type
REMARK                         _______ _______ _______ _____ _____    ______ ____
ROOT
ATOM      1  N   LIG    1       -2.403   1.334  -5.317  0.00  0.00    -0.740 N 
ATOM      2  H   LIG    1       -2.166   2.189  -5.708  0.00  0.00    +0.400 HD
ATOM      3  C   LIG    1       -1.739   0.880  -4.235  0.00  0.00    +0.710 C 
ATOM      4  N   LIG    1       -0.746   1.616  -3.697  0.00  0.00    -0.630 N 
ATOM      5  C   LIG    1       -0.389   2.908  -4.287  0.00  0.00    +0.290 C 
ATOM      6  O   LIG    1       -2.036  -0.192  -3.745  0.00  0.00    -0.590 OA
ENDROOT
BRANCH   1  12
ATOM      7  C   LIG    1       -6.541   0.209  -9.893  0.00  0.00    +0.080 C 
ATOM      8  C   LIG    1       -5.420  -0.628  -9.333  0.00  0.00    +0.510 C 
ATOM      9  N   LIG    1       -5.025  -0.458  -8.056  0.00  0.00    -0.620 N 
ATOM     10  C   LIG    1       -5.594   0.619  -7.234  0.00  0.00    +0.290 C 
ATOM     11  C   LIG    1       -4.449   1.454  -6.652  0.00  0.00    +0.020 C 
ATOM     12  C   LIG    1       -3.482   0.534  -5.902  0.00  0.00    +0.250 C 
ATOM     13  C   LIG    1       -2.889  -0.487  -6.875  0.00  0.00    +0.010 C 
ATOM     14  C   LIG    1       -4.017  -1.345  -7.459  0.00  0.00    +0.280 C 
ATOM     15  O   LIG    1       -4.873  -1.455 -10.032  0.00  0.00    -0.540 OA
ENDBRANCH   1  12
BRANCH   4  16
ATOM     16  C   LIG    1       -0.025   1.123  -2.521  0.00  0.00    +0.350 C 
BRANCH  16  17
ATOM     17  C   LIG    1       -0.727   1.609  -1.251  0.00  0.00    +0.120 C 
ATOM     18  C   LIG    1        0.025   1.095  -0.016  0.00  0.00    +0.240 C 
ATOM     19  O   LIG    1       -0.649   1.577   1.152  0.00  0.00    -0.300 OA
ATOM     20  C   LIG    1       -1.001   2.892   1.157  0.00  0.00    +0.050 A 
ATOM     21  C   LIG    1       -1.324   3.506   2.358  0.00  0.00    +0.020 A 
ATOM     22  C   LIG    1       -1.689   4.839   2.378  0.00  0.00    +0.010 A 
ATOM     23  C   LIG    1       -1.732   5.564   1.202  0.00  0.00    +0.010 A 
ATOM     24  C   LIG    1       -1.410   4.958   0.002  0.00  0.00    +0.010 A 
ATOM     25  C   LIG    1       -1.042   3.622  -0.026  0.00  0.00    +0.050 A 
ATOM     26  O   LIG    1       -0.725   3.040  -1.214  0.00  0.00    -0.300 OA
ENDBRANCH  16  17
ENDBRANCH   4  16
TORSDOF 3
