REMARK  Name = ZINCrH000004jWXh.0
REMARK                            x       y       z     vdW  Elec       q    Type
REMARK                         _______ _______ _______ _____ _____    ______ ____
ROOT
ATOM      1  C   LIG    1        0.049  -0.938   3.632  0.00  0.00    +0.150 C 
ENDROOT
BRANCH   1   2
ATOM      2  C   LIG    1        0.051  -0.192   4.941  0.00  0.00    +0.450 A 
ATOM      3  N   LIG    1        0.039   1.112   4.917  0.00  0.00    -0.580 NA
ATOM      4  C   LIG    1        0.035   1.833   6.051  0.00  0.00    +0.540 A 
ATOM      5  C   LIG    1        0.058   1.117   7.343  0.00  0.00    -0.210 A 
ATOM      6  C   LIG    1        0.075  -0.261   7.308  0.00  0.00    +0.050 A 
ATOM      7  S   LIG    1        0.099  -0.894   8.943  0.00  0.00    +0.200 S 
ATOM      8  C   LIG    1        0.086   0.722   9.648  0.00  0.00    -0.220 A 
ATOM      9  C   LIG    1        0.091   1.361  11.033  0.00  0.00    +0.130 C 
ATOM     10  C   LIG    1       -0.378   2.812  10.800  0.00  0.00    +0.050 C 
ATOM     11  C   LIG    1        0.054   3.045   9.339  0.00  0.00    +0.110 C 
ATOM     12  C   LIG    1        0.065   1.655   8.704  0.00  0.00    -0.050 A 
ATOM     13  O   LIG    1        0.019   3.053   6.014  0.00  0.00    -0.480 OA
ATOM     14  N   LIG    1        0.072  -0.896   6.083  0.00  0.00    -0.590 N 
ATOM     15  H   LIG    1        0.085  -1.865   6.047  0.00  0.00    +0.430 HD
ENDBRANCH   1   2
BRANCH   1  16
ATOM     16  C   LIG    1        0.025   0.062   2.475  0.00  0.00    +0.100 C 
BRANCH  16  19
ATOM     17  C   LIG    1       -0.018   1.461   0.010  0.00  0.00    +0.280 C 
ATOM     18  N   LIG    1        0.002  -0.004   0.002  0.00  0.00    -0.610 N 
ATOM     19  C   LIG    1        0.022  -0.684   1.165  0.00  0.00    +0.520 C 
ATOM     20  O   LIG    1        0.039  -1.897   1.159  0.00  0.00    -0.540 OA
BRANCH  18  21
ATOM     21  C   LIG    1       -0.000  -0.730  -1.271  0.00  0.00    +0.340 C 
BRANCH  21  22
ATOM     22  C   LIG    1        1.420  -0.959  -1.720  0.00  0.00    -0.110 A 
ATOM     23  C   LIG    1        2.049  -0.027  -2.524  0.00  0.00    +0.040 A 
ATOM     24  C   LIG    1        3.353  -0.235  -2.933  0.00  0.00    +0.020 A 
ATOM     25  C   LIG    1        4.024  -1.381  -2.547  0.00  0.00    -0.030 A 
ATOM     26  C   LIG    1        3.393  -2.316  -1.747  0.00  0.00    +0.020 A 
ATOM     27 CL   LIG    1        5.660  -1.646  -3.067  0.00  0.00    -0.070 Cl
ATOM     28  C   LIG    1        2.091  -2.104  -1.334  0.00  0.00    +0.060 A 
ENDBRANCH  21  22
ENDBRANCH  18  21
ENDBRANCH  16  19
ENDBRANCH   1  16
TORSDOF 5
