REMARK  Name = ZINCqH0000033i5R.1
REMARK                            x       y       z     vdW  Elec       q    Type
REMARK                         _______ _______ _______ _____ _____    ______ ____
ROOT
ATOM      1  C   LIG    1       -0.764   3.110   1.262  0.00  0.00    +0.250 C 
ATOM      2  C   LIG    1       -0.729   1.579   1.267  0.00  0.00    +0.020 C 
ATOM      3  C   LIG    1       -0.013   1.086   0.008  0.00  0.00    +0.180 C 
ATOM      4  N   LIG    1       -0.723   1.572  -1.182  0.00  0.00    -0.530 NA
ATOM      5  C   LIG    1       -0.729   3.040  -1.234  0.00  0.00    +0.180 C 
ATOM      6  C   LIG    1       -1.466   3.591  -0.011  0.00  0.00    +0.030 C 
ENDROOT
BRANCH   1   9
ATOM      7  N   LIG    1       -1.535   4.183   4.693  0.00  0.00    -0.630 N 
ATOM      8  C   LIG    1       -0.860   3.743   3.613  0.00  0.00    +0.710 C 
ATOM      9  N   LIG    1       -1.498   3.588   2.436  0.00  0.00    -0.740 N 
ATOM     10  H   LIG    1       -2.444   3.793   2.366  0.00  0.00    +0.400 HD
ATOM     11  O   LIG    1        0.325   3.486   3.700  0.00  0.00    -0.580 OA
BRANCH   7  13
ATOM     12  C   LIG    1       -3.782   3.239   4.905  0.00  0.00    +0.010 C 
ATOM     13  C   LIG    1       -2.963   4.493   4.588  0.00  0.00    +0.260 C 
ENDBRANCH   7  13
BRANCH   7  14
ATOM     14  C   LIG    1       -0.841   4.351   5.972  0.00  0.00    +0.320 C 
BRANCH  14  15
ATOM     15  C   LIG    1       -0.279   5.771   6.064  0.00  0.00    +0.030 C 
BRANCH  15  16
ATOM     16  C   LIG    1        0.446   5.947   7.400  0.00  0.00    +0.460 C 
ATOM     17  F   LIG    1       -0.453   5.733   8.450  0.00  0.00    -0.180 F 
ATOM     18  F   LIG    1        0.961   7.245   7.484  0.00  0.00    -0.180 F 
ATOM     19  F   LIG    1        1.494   5.023   7.487  0.00  0.00    -0.180 F 
ENDBRANCH  15  16
ENDBRANCH  14  15
ENDBRANCH   7  14
ENDBRANCH   1   9
BRANCH   4  20
ATOM     20  C   LIG    1       -0.145   1.005  -2.408  0.00  0.00    +0.230 C 
BRANCH  20  21
ATOM     21  C   LIG    1       -0.728   1.705  -3.608  0.00  0.00    -0.120 A 
ATOM     22  C   LIG    1       -1.745   1.110  -4.329  0.00  0.00    +0.060 A 
ATOM     23  C   LIG    1       -2.283   1.755  -5.428  0.00  0.00    +0.000 A 
ATOM     24  C   LIG    1       -1.797   2.990  -5.812  0.00  0.00    +0.040 A 
ATOM     25  C   LIG    1       -0.775   3.585  -5.096  0.00  0.00    -0.020 A 
ATOM     26  C   LIG    1       -0.239   2.943  -3.993  0.00  0.00    +0.100 A 
ATOM     27  F   LIG    1        0.760   3.522  -3.292  0.00  0.00    -0.140 F 
ENDBRANCH  20  21
ENDBRANCH   4  20
TORSDOF 7
