REMARK  Name = ZINCnE000001TyIr.0
REMARK                            x       y       z     vdW  Elec       q    Type
REMARK                         _______ _______ _______ _____ _____    ______ ____
ROOT
ATOM      1  C   LIG    1        1.241   0.356   1.048  0.00  0.00    -0.030 C 
ATOM      2  C   LIG    1        0.958   1.401   2.130  0.00  0.00    +0.010 C 
ATOM      3  C   LIG    1        0.850   2.786   1.489  0.00  0.00    +0.000 C 
ATOM      4  C   LIG    1        2.179   3.138   0.814  0.00  0.00    +0.260 C 
ATOM      5  N   LIG    1        2.531   2.064  -0.125  0.00  0.00    -0.600 N 
ATOM      6  C   LIG    1        2.808   2.343  -1.414  0.00  0.00    +0.550 C 
ATOM      7  O   LIG    1        3.179   1.461  -2.159  0.00  0.00    -0.540 OA
ATOM      8  C   LIG    1        2.575   0.680   0.368  0.00  0.00    +0.280 C 
ENDROOT
BRANCH   6   9
ATOM      9  C   LIG    1        2.657   3.751  -1.930  0.00  0.00    -0.120 C 
ATOM     10  C   LIG    1        3.572   4.186  -3.076  0.00  0.00    +0.090 C 
ATOM     11  C   LIG    1        3.803   4.728  -1.663  0.00  0.00    +0.050 C 
BRANCH   9  12
ATOM     12  C   LIG    1        1.254   4.302  -1.912  0.00  0.00    -0.040 A 
ATOM     13  C   LIG    1        0.982   5.477  -1.237  0.00  0.00    +0.040 A 
ATOM     14  C   LIG    1       -0.303   5.986  -1.224  0.00  0.00    +0.030 A 
ATOM     15  C   LIG    1       -1.319   5.312  -1.879  0.00  0.00    -0.030 A 
ATOM     16  C   LIG    1       -1.048   4.134  -2.550  0.00  0.00    +0.040 A 
ATOM     17 CL   LIG    1       -2.935   5.947  -1.857  0.00  0.00    -0.070 Cl
ATOM     18  C   LIG    1        0.239   3.629  -2.567  0.00  0.00    +0.040 A 
ENDBRANCH   9  12
ENDBRANCH   6   9
BRANCH   1  19
ATOM     19  C   LIG    1        1.316  -1.032   1.685  0.00  0.00    +0.030 C 
BRANCH  19  20
ATOM     20  C   LIG    1       -0.053  -1.405   2.258  0.00  0.00    -0.070 C 
BRANCH  20  22
ATOM     21  O   LIG    1        1.071  -3.393   2.876  0.00  0.00    -0.700 OA
ATOM     22  C   LIG    1        0.021  -2.773   2.886  0.00  0.00    +0.490 C 
ATOM     23  O   LIG    1       -0.969  -3.260   3.404  0.00  0.00    -0.710 OA
ENDBRANCH  20  22
ENDBRANCH  19  20
ENDBRANCH   1  19
TORSDOF 5
