REMARK  Name = ZINCpe00000MEeHO.0
REMARK                            x       y       z     vdW  Elec       q    Type
REMARK                         _______ _______ _______ _____ _____    ______ ____
ROOT
ATOM      1  C   LIG    1        4.798   0.362   2.960  0.00  0.00    +0.200 C 
ENDROOT
BRANCH   1   2
ATOM      2  N   LIG    1        6.018  -0.456   2.967  0.00  0.00    -0.480 NA
ATOM      3  C   LIG    1        5.752  -1.812   2.421  0.00  0.00    +0.170 C 
ATOM      4  C   LIG    1        6.928  -2.655   2.977  0.00  0.00    +0.170 C 
ATOM      5  C   LIG    1        7.126  -2.076   4.396  0.00  0.00    +0.060 C 
ATOM      6  C   LIG    1        6.507  -0.667   4.347  0.00  0.00    +0.240 C 
BRANCH   6   7
ATOM      7  C   LIG    1        7.553   0.365   4.683  0.00  0.00    +0.240 A 
ATOM      8  N   LIG    1        7.619   1.044   5.799  0.00  0.00    -0.320 NA
ATOM      9  N   LIG    1        8.737   1.887   5.695  0.00  0.00    -0.490 N 
ATOM     10  H   LIG    1        9.055   2.516   6.362  0.00  0.00    +0.440 HD
ATOM     11  C   LIG    1        9.280   1.649   4.489  0.00  0.00    +0.480 A 
ATOM     12  N   LIG    1        8.562   0.730   3.894  0.00  0.00    -0.510 NA
ENDBRANCH   6   7
BRANCH   4  13
ATOM     13  O   LIG    1        6.573  -4.037   3.039  0.00  0.00    -0.380 OA
ATOM     14  C   LIG    1        6.910  -4.778   1.865  0.00  0.00    +0.200 C 
ENDBRANCH   4  13
ENDBRANCH   1   2
BRANCH   1  17
ATOM     15  N   LIG    1        3.208   1.248   1.285  0.00  0.00    -0.730 N 
ATOM     16  H   LIG    1        2.641   1.530   2.019  0.00  0.00    +0.400 HD
ATOM     17  C   LIG    1        4.375   0.622   1.537  0.00  0.00    +0.520 C 
ATOM     18  O   LIG    1        5.085   0.268   0.620  0.00  0.00    -0.520 OA
BRANCH  15  19
ATOM     19  C   LIG    1        2.797   1.500  -0.099  0.00  0.00    +0.340 C 
BRANCH  19  25
ATOM     20  C   LIG    1        1.405   3.574   0.125  0.00  0.00    +0.140 A 
ATOM     21  C   LIG    1        0.178   4.222   0.117  0.00  0.00    -0.080 A 
ATOM     22  C   LIG    1       -0.979   3.505  -0.121  0.00  0.00    +0.060 A 
ATOM     23  C   LIG    1       -0.914   2.144  -0.356  0.00  0.00    -0.030 A 
ATOM     24  C   LIG    1        0.307   1.495  -0.343  0.00  0.00    +0.070 A 
ATOM     25  C   LIG    1        1.466   2.207  -0.106  0.00  0.00    -0.140 A 
BRANCH  20  27
ATOM     26  C   LIG    1        2.405   5.680   0.589  0.00  0.00    +0.250 C 
ATOM     27  O   LIG    1        2.544   4.277   0.359  0.00  0.00    -0.310 OA
ENDBRANCH  20  27
ENDBRANCH  19  25
ENDBRANCH  15  19
ENDBRANCH   1  17
TORSDOF 7
