REMARK  Name = ZINCpe00000MEeHO.1
REMARK                            x       y       z     vdW  Elec       q    Type
REMARK                         _______ _______ _______ _____ _____    ______ ____
ROOT
ATOM      1  C   LIG    1        6.017  -1.407   2.938  0.00  0.00    +0.200 C 
ENDROOT
BRANCH   1   2
ATOM      2  N   LIG    1        7.235  -2.228   2.944  0.00  0.00    -0.470 NA
ATOM      3  C   LIG    1        6.966  -3.583   2.397  0.00  0.00    +0.190 C 
ATOM      4  C   LIG    1        8.140  -4.429   2.953  0.00  0.00    +0.180 C 
ATOM      5  C   LIG    1        8.341  -3.850   4.373  0.00  0.00    +0.050 C 
ATOM      6  C   LIG    1        7.725  -2.440   4.323  0.00  0.00    +0.240 C 
BRANCH   6   7
ATOM      7  C   LIG    1        8.773  -1.410   4.659  0.00  0.00    +0.180 A 
ATOM      8  N   LIG    1        9.535  -0.777   3.810  0.00  0.00    -0.250 NA
ATOM      9  N   LIG    1       10.311   0.031   4.443  0.00  0.00    -0.300 NA
ATOM     10  C   LIG    1       10.085  -0.058   5.726  0.00  0.00    +0.370 A 
ATOM     11  N   LIG    1        9.102  -0.975   5.899  0.00  0.00    -0.580 N 
ATOM     12  H   LIG    1        8.714  -1.262   6.741  0.00  0.00    +0.430 HD
ENDBRANCH   6   7
BRANCH   4  13
ATOM     13  O   LIG    1        7.783  -5.811   3.012  0.00  0.00    -0.380 OA
ATOM     14  C   LIG    1        8.121  -6.549   1.836  0.00  0.00    +0.220 C 
ENDBRANCH   4  13
ENDBRANCH   1   2
BRANCH   1  17
ATOM     15  N   LIG    1        4.429  -0.518   1.263  0.00  0.00    -0.730 N 
ATOM     16  H   LIG    1        3.863  -0.233   1.997  0.00  0.00    +0.400 HD
ATOM     17  C   LIG    1        5.595  -1.146   1.515  0.00  0.00    +0.520 C 
ATOM     18  O   LIG    1        6.303  -1.502   0.597  0.00  0.00    -0.510 OA
BRANCH  15  19
ATOM     19  C   LIG    1        4.018  -0.264  -0.120  0.00  0.00    +0.340 C 
BRANCH  19  25
ATOM     20  C   LIG    1        2.631   1.813   0.103  0.00  0.00    +0.140 A 
ATOM     21  C   LIG    1        1.406   2.464   0.096  0.00  0.00    -0.080 A 
ATOM     22  C   LIG    1        0.247   1.750  -0.141  0.00  0.00    +0.060 A 
ATOM     23  C   LIG    1        0.308   0.388  -0.371  0.00  0.00    -0.030 A 
ATOM     24  C   LIG    1        1.528  -0.263  -0.364  0.00  0.00    +0.070 A 
ATOM     25  C   LIG    1        2.689   0.446  -0.128  0.00  0.00    -0.140 A 
BRANCH  20  27
ATOM     26  C   LIG    1        3.636   3.917   0.567  0.00  0.00    +0.250 C 
ATOM     27  O   LIG    1        3.772   2.513   0.337  0.00  0.00    -0.310 OA
ENDBRANCH  20  27
ENDBRANCH  19  25
ENDBRANCH  15  19
ENDBRANCH   1  17
TORSDOF 7
