REMARK  Name = ZINCkj000005lsdK.0
REMARK                            x       y       z     vdW  Elec       q    Type
REMARK                         _______ _______ _______ _____ _____    ______ ____
ROOT
ATOM      1  N   LIG    1       -3.513  -0.610   1.038  0.00  0.00    -0.720 N 
ATOM      2  H   LIG    1       -3.521  -1.580   1.036  0.00  0.00    +0.400 HD
ATOM      3  C   LIG    1       -2.388   0.055   0.708  0.00  0.00    +0.570 C 
ATOM      4  O   LIG    1       -2.377   1.270   0.710  0.00  0.00    -0.520 OA
ENDROOT
BRANCH   3   5
ATOM      5  C   LIG    1       -1.166  -0.695   0.344  0.00  0.00    -0.140 A 
ATOM      6  C   LIG    1       -1.178  -2.088   0.341  0.00  0.00    +0.030 A 
ATOM      7  C   LIG    1       -0.035  -2.782   0.000  0.00  0.00    +0.010 A 
ATOM      8  C   LIG    1        1.116  -2.095  -0.335  0.00  0.00    +0.050 A 
ATOM      9  C   LIG    1        1.136  -0.708  -0.333  0.00  0.00    -0.080 A 
ATOM     10  C   LIG    1        2.417  -0.002  -0.701  0.00  0.00    +0.060 C 
ATOM     11  C   LIG    1        2.122   1.459  -1.043  0.00  0.00    +0.210 C 
ATOM     12  O   LIG    1        1.313   2.015   0.000  0.00  0.00    -0.370 OA
ATOM     13  C   LIG    1       -0.018   1.502   0.010  0.00  0.00    +0.300 C 
ATOM     14  C   LIG    1        0.002  -0.004   0.002  0.00  0.00    -0.050 A 
ENDBRANCH   3   5
BRANCH   1  19
ATOM     15  C   LIG    1       -7.710  -0.519   3.331  0.00  0.00    +0.120 C 
ATOM     16  C   LIG    1       -7.682   0.887   2.725  0.00  0.00    +0.150 C 
ATOM     17  C   LIG    1       -6.523  -0.074   2.485  0.00  0.00    -0.140 C 
ATOM     18  C   LIG    1       -6.023  -0.655   1.158  0.00  0.00    +0.090 C 
ATOM     19  C   LIG    1       -4.723   0.132   1.399  0.00  0.00    +0.270 C 
ATOM     20  C   LIG    1       -5.055   0.076   2.900  0.00  0.00    +0.060 C 
BRANCH  15  21
ATOM     21  N   LIG    1       -7.503  -0.638   4.781  0.00  0.00    -0.610 N 
ATOM     22  H   LIG    1       -6.777  -1.315   4.963  0.00  0.00    +0.440 HD
ATOM     23  H   LIG    1       -8.361  -0.939   5.219  0.00  0.00    +0.440 HD
ATOM     24  H   LIG    1       -7.230   0.258   5.156  0.00  0.00    +0.430 HD
ENDBRANCH  15  21
ENDBRANCH   1  19
TORSDOF 3
