REMARK  Name = ZINCbu0000000GBR.0
REMARK                            x       y       z     vdW  Elec       q    Type
REMARK                         _______ _______ _______ _____ _____    ______ ____
ROOT
ATOM      1  C   LIG    1       -0.710   1.456  -1.162  0.00  0.00    +0.160 C 
ATOM      2  C   LIG    1       -0.625   2.996  -1.224  0.00  0.00    +0.060 C 
ATOM      3  C   LIG    1        0.555   3.272  -2.188  0.00  0.00    +0.020 C 
ATOM      4  C   LIG    1        0.389   2.165  -3.258  0.00  0.00    +0.050 C 
ATOM      5  C   LIG    1       -0.066   0.928  -2.456  0.00  0.00    -0.010 C 
ENDROOT
BRANCH   1   7
ATOM      6  C   LIG    1       -0.649   1.397   1.235  0.00  0.00    +0.320 C 
ATOM      7  N   LIG    1        0.027   0.958   0.007  0.00  0.00    -0.510 N 
ATOM      8  H   LIG    1        0.967   1.322  -0.008  0.00  0.00    +0.430 HD
ATOM      9  H   LIG    1        0.056  -0.050  -0.019  0.00  0.00    +0.430 HD
ENDBRANCH   1   7
BRANCH   5  10
ATOM     10  C   LIG    1       -1.089   0.127  -3.263  0.00  0.00    -0.060 C 
ATOM     11  C   LIG    1       -1.522  -1.101  -2.460  0.00  0.00    +0.020 C 
ATOM     12  C   LIG    1       -0.460  -0.321  -4.583  0.00  0.00    +0.040 C 
ATOM     13  C   LIG    1       -2.310   1.004  -3.551  0.00  0.00    +0.030 C 
ENDBRANCH   5  10
TORSDOF 2
