REMARK  Name = ZINCpe000000Tdnz.0
REMARK                            x       y       z     vdW  Elec       q    Type
REMARK                         _______ _______ _______ _____ _____    ______ ____
ROOT
ATOM      1  N   LIG    1        0.002  -0.004   0.002  0.00  0.00    -0.620 N 
ATOM      2  C   LIG    1       -0.018   1.463   0.010  0.00  0.00    +0.290 C 
ATOM      3  C   LIG    1        1.465   1.896  -0.002  0.00  0.00    -0.010 C 
ATOM      4  C   LIG    1        2.144   0.675  -0.664  0.00  0.00    +0.100 C 
ATOM      5  C   LIG    1        1.203  -0.474  -0.379  0.00  0.00    +0.520 C 
ATOM      6  O   LIG    1        1.489  -1.648  -0.478  0.00  0.00    -0.520 OA
ENDROOT
BRANCH   1  11
ATOM      7  C   LIG    1       -3.528  -4.378   1.113  0.00  0.00    +0.000 C 
ATOM      8  C   LIG    1       -2.335  -3.497   0.737  0.00  0.00    -0.030 C 
ATOM      9  C   LIG    1       -2.711  -2.612  -0.454  0.00  0.00    +0.020 C 
ATOM     10  C   LIG    1       -1.518  -1.730  -0.830  0.00  0.00    -0.000 C 
ATOM     11  C   LIG    1       -1.140  -0.848   0.362  0.00  0.00    +0.240 C 
ATOM     12  C   LIG    1       -0.765  -1.733   1.552  0.00  0.00    +0.010 C 
ATOM     13  C   LIG    1       -1.958  -2.615   1.928  0.00  0.00    +0.020 C 
ENDBRANCH   1  11
BRANCH   3  14
ATOM     14  C   LIG    1        1.658   3.138  -0.833  0.00  0.00    +0.540 C 
ATOM     15  N   LIG    1        2.887   3.674  -0.968  0.00  0.00    -0.570 N 
ATOM     16  O   LIG    1        0.708   3.654  -1.381  0.00  0.00    -0.550 OA
BRANCH  15  17
ATOM     17  C   LIG    1        4.035   3.050  -0.306  0.00  0.00    +0.190 C 
BRANCH  17  18
ATOM     18  C   LIG    1        4.655   2.032  -1.228  0.00  0.00    +0.480 C 
ATOM     19  O   LIG    1        5.629   1.395  -0.866  0.00  0.00    -0.680 OA
ATOM     20  O   LIG    1        4.181   1.844  -2.336  0.00  0.00    -0.680 OA
ENDBRANCH  17  18
ENDBRANCH  15  17
BRANCH  15  21
ATOM     21  C   LIG    1        3.075   4.881  -1.776  0.00  0.00    +0.300 C 
BRANCH  21  22
ATOM     22  C   LIG    1        2.912   6.119  -0.891  0.00  0.00    +0.230 C 
BRANCH  22  23
ATOM     23  N   LIG    1        3.100   7.329  -1.702  0.00  0.00    -0.380 N 
ATOM     24  C   LIG    1        4.484   7.381  -2.190  0.00  0.00    +0.320 C 
ATOM     25  C   LIG    1        2.825   8.516  -0.880  0.00  0.00    +0.320 C 
ATOM     26  H   LIG    1        2.466   7.310  -2.487  0.00  0.00    +0.430 HD
ENDBRANCH  22  23
ENDBRANCH  21  22
ENDBRANCH  15  21
ENDBRANCH   3  14
TORSDOF 7
