REMARK  Name = ZINCpe00000y9nQX.0
REMARK                            x       y       z     vdW  Elec       q    Type
REMARK                         _______ _______ _______ _____ _____    ______ ____
ROOT
ATOM      1  C   LIG    1       -1.475  11.782   1.533  0.00  0.00    +0.240 C 
ATOM      2  C   LIG    1        0.034  12.020   1.436  0.00  0.00    +0.050 C 
ATOM      3  C   LIG    1        0.762  10.674   1.397  0.00  0.00    +0.170 C 
ATOM      4  C   LIG    1        0.316   9.891   0.164  0.00  0.00    +0.260 C 
ATOM      5  N   LIG    1       -1.149   9.785   0.169  0.00  0.00    -0.600 N 
ATOM      6  C   LIG    1       -1.751   8.583   0.067  0.00  0.00    +0.610 C 
ATOM      7  O   LIG    1       -2.963   8.513  -0.001  0.00  0.00    -0.500 OA
ATOM      8  C   LIG    1       -1.947  11.012   0.295  0.00  0.00    +0.290 C 
ENDROOT
BRANCH   6   9
ATOM      9  C   LIG    1       -0.939   7.352   0.037  0.00  0.00    -0.090 A 
ATOM     10  C   LIG    1       -1.399   6.066   0.063  0.00  0.00    +0.090 A 
ATOM     11  C   LIG    1       -0.215   5.280   0.017  0.00  0.00    +0.060 A 
ATOM     12  N   LIG    1        0.784   6.125  -0.038  0.00  0.00    -0.330 NA
ATOM     13  O   LIG    1        0.404   7.272  -0.028  0.00  0.00    +0.120 OA
BRANCH  11  14
ATOM     14  C   LIG    1       -0.129   3.798   0.024  0.00  0.00    +0.190 A 
ATOM     15  C   LIG    1        1.117   3.179  -0.032  0.00  0.00    +0.000 A 
ATOM     16  C   LIG    1        1.182   1.796  -0.024  0.00  0.00    +0.070 A 
ATOM     17  C   LIG    1       -0.004   1.078   0.039  0.00  0.00    -0.020 A 
ATOM     18  C   LIG    1       -1.207   1.759   0.086  0.00  0.00    +0.280 A 
ATOM     19  N   LIG    1       -1.239   3.075   0.084  0.00  0.00    -0.470 NA
ENDBRANCH  11  14
ENDBRANCH   6   9
BRANCH   1  21
ATOM     20  C   LIG    1       -3.386  13.149   2.177  0.00  0.00    +0.510 C 
ATOM     21  N   LIG    1       -2.170  13.070   1.602  0.00  0.00    -0.730 N 
ATOM     22  H   LIG    1       -1.754  13.866   1.235  0.00  0.00    +0.400 HD
ATOM     23  O   LIG    1       -3.906  12.154   2.636  0.00  0.00    -0.530 OA
BRANCH  20  25
ATOM     24  C   LIG    1       -5.451  14.288   2.942  0.00  0.00    +0.040 C 
ATOM     25  C   LIG    1       -4.101  14.474   2.248  0.00  0.00    +0.050 C 
ENDBRANCH  20  25
ENDBRANCH   1  21
BRANCH   3  26
ATOM     26  O   LIG    1        2.173  10.897   1.338  0.00  0.00    -0.560 OA
ATOM     27  H   LIG    1        2.698  10.085   1.311  0.00  0.00    +0.390 HD
ENDBRANCH   3  26
TORSDOF 5
