REMARK  Name = ZINC650000002vtv.0
REMARK                            x       y       z     vdW  Elec       q    Type
REMARK                         _______ _______ _______ _____ _____    ______ ____
ROOT
ATOM      1  C   LIG    1        2.477   1.492  -0.013  0.00  0.00    +0.330 C 
ATOM      2  N   LIG    1        1.068   1.894   0.002  0.00  0.00    -0.480 N 
ATOM      3  C   LIG    1       -0.013   1.076   0.008  0.00  0.00    +0.370 A 
ATOM      4  N   LIG    1       -1.074   1.835   0.016  0.00  0.00    -0.300 NA
ATOM      5  N   LIG    1       -0.722   3.072   0.024  0.00  0.00    -0.300 NA
ATOM      6  C   LIG    1        0.580   3.158   0.013  0.00  0.00    +0.370 A 
ENDROOT
TORSDOF 0
