REMARK  Name = ZINCrD0000073m4l.0
REMARK                            x       y       z     vdW  Elec       q    Type
REMARK                         _______ _______ _______ _____ _____    ______ ____
ROOT
ATOM      1  C   LIG    1        3.693   1.794   0.091  0.00  0.00    +0.230 A 
ATOM      2  N   LIG    1        2.386   1.775   0.030  0.00  0.00    -0.350 NA
ATOM      3  O   LIG    1        1.988   0.630  -0.005  0.00  0.00    +0.100 OA
ATOM      4  C   LIG    1        3.022  -0.216   0.031  0.00  0.00    +0.170 A 
ATOM      5  N   LIG    1        4.111   0.508   0.092  0.00  0.00    -0.450 NA
ENDROOT
BRANCH   1   9
ATOM      6  C   LIG    1        6.165   5.255   0.255  0.00  0.00    +0.190 A 
ATOM      7  C   LIG    1        6.738   3.989   0.264  0.00  0.00    -0.110 A 
ATOM      8  C   LIG    1        5.940   2.866   0.211  0.00  0.00    +0.160 A 
ATOM      9  C   LIG    1        4.554   2.999   0.148  0.00  0.00    -0.100 A 
ATOM     10  C   LIG    1        3.977   4.275   0.134  0.00  0.00    +0.200 A 
ATOM     11  C   LIG    1        4.787   5.396   0.193  0.00  0.00    -0.100 A 
BRANCH   6  13
ATOM     12  C   LIG    1        8.368   6.139   0.371  0.00  0.00    +0.240 C 
ATOM     13  O   LIG    1        6.957   6.357   0.308  0.00  0.00    -0.310 OA
ENDBRANCH   6  13
BRANCH  10  14
ATOM     14  O   LIG    1        2.628   4.411   0.068  0.00  0.00    -0.290 OA
ATOM     15  C   LIG    1        2.111   5.743   0.057  0.00  0.00    +0.250 C 
ENDBRANCH  10  14
ENDBRANCH   1   9
BRANCH   4  16
ATOM     16  C   LIG    1        2.948  -1.721   0.006  0.00  0.00    +0.400 C 
BRANCH  16  17
ATOM     17  O   LIG    1        2.860  -2.224   1.366  0.00  0.00    -0.350 OA
BRANCH  17  18
ATOM     18  C   LIG    1        2.786  -3.561   1.521  0.00  0.00    +0.530 C 
ATOM     19  O   LIG    1        2.795  -4.287   0.546  0.00  0.00    -0.510 OA
BRANCH  18  20
ATOM     20  C   LIG    1        2.695  -4.141   2.871  0.00  0.00    -0.210 A 
ATOM     21  C   LIG    1        2.560  -3.310   3.986  0.00  0.00    +0.150 A 
ATOM     22  C   LIG    1        2.469  -3.859   5.246  0.00  0.00    -0.040 A 
ATOM     23  C   LIG    1        2.522  -5.235   5.416  0.00  0.00    +0.050 A 
ATOM     24  C   LIG    1        2.661  -6.070   4.324  0.00  0.00    -0.060 A 
ATOM     25 CL   LIG    1        2.413  -5.912   7.011  0.00  0.00    -0.060 Cl
ATOM     26  C   LIG    1        2.748  -5.534   3.046  0.00  0.00    +0.300 A 
BRANCH  26  27
ATOM     27  N   LIG    1        2.888  -6.371   1.946  0.00  0.00    -0.850 N 
ATOM     28  H   LIG    1        2.602  -7.296   2.002  0.00  0.00    +0.400 HD
ATOM     29  H   LIG    1        3.271  -6.030   1.123  0.00  0.00    +0.420 HD
ENDBRANCH  26  27
ENDBRANCH  18  20
ENDBRANCH  17  18
ENDBRANCH  16  17
ENDBRANCH   4  16
TORSDOF 8
