REMARK  Name = ZINCvU00000007li.0
REMARK                            x       y       z     vdW  Elec       q    Type
REMARK                         _______ _______ _______ _____ _____    ______ ____
ROOT
ATOM      1  C   LIG    1       -1.375   2.183  -0.526  0.00  0.00    +0.520 C 
ATOM      2  N   LIG    1       -1.903   1.352  -1.447  0.00  0.00    -0.670 N 
ATOM      3  H   LIG    1       -1.771   0.394  -1.369  0.00  0.00    +0.420 HD
ATOM      4  O   LIG    1       -1.427   3.383  -0.692  0.00  0.00    -0.490 OA
ENDROOT
BRANCH   2   5
ATOM      5  C   LIG    1       -2.644   1.872  -2.516  0.00  0.00    +0.140 A 
ATOM      6  C   LIG    1       -3.685   1.134  -3.063  0.00  0.00    +0.010 A 
ATOM      7  C   LIG    1       -4.419   1.649  -4.113  0.00  0.00    +0.040 A 
ATOM      8  C   LIG    1       -4.108   2.899  -4.630  0.00  0.00    +0.070 A 
ATOM      9  C   LIG    1       -3.064   3.634  -4.088  0.00  0.00    +0.020 A 
ATOM     10  C   LIG    1       -2.333   3.122  -3.034  0.00  0.00    +0.040 A 
BRANCH   8  11
ATOM     11  O   LIG    1       -4.827   3.403  -5.668  0.00  0.00    -0.260 OA
BRANCH  11  12
ATOM     12  C   LIG    1       -5.665   4.443  -5.418  0.00  0.00    +0.120 A 
ATOM     13  C   LIG    1       -5.883   4.861  -4.113  0.00  0.00    -0.060 A 
ATOM     14  C   LIG    1       -6.732   5.921  -3.862  0.00  0.00    +0.050 A 
ATOM     15  C   LIG    1       -7.372   6.559  -4.909  0.00  0.00    -0.020 A 
ATOM     16  C   LIG    1       -7.160   6.141  -6.209  0.00  0.00    +0.050 A 
ATOM     17  C   LIG    1       -6.308   5.085  -6.466  0.00  0.00    -0.020 A 
ENDBRANCH  11  12
ENDBRANCH   8  11
ENDBRANCH   2   5
BRANCH   1  19
ATOM     18  C   LIG    1       -1.738   0.796   1.497  0.00  0.00    +0.070 C 
ATOM     19  C   LIG    1       -0.719   1.620   0.708  0.00  0.00    +0.190 C 
BRANCH  19  20
ATOM     20  O   LIG    1       -0.233   2.709   1.537  0.00  0.00    -0.320 OA
BRANCH  20  21
ATOM     21  C   LIG    1        0.852   2.465   2.289  0.00  0.00    +0.470 C 
ATOM     22  O   LIG    1        1.377   1.377   2.257  0.00  0.00    -0.500 OA
BRANCH  21  23
ATOM     23  C   LIG    1        1.414   3.547   3.175  0.00  0.00    -0.040 C 
ATOM     24  C   LIG    1        0.352   3.981   4.187  0.00  0.00    +0.050 C 
ATOM     25  C   LIG    1        0.922   5.080   5.086  0.00  0.00    +0.000 C 
ATOM     26  C   LIG    1        1.330   6.279   4.228  0.00  0.00    +0.030 C 
ATOM     27  C   LIG    1        2.393   5.846   3.216  0.00  0.00    +0.000 C 
ATOM     28  C   LIG    1        3.618   5.311   3.960  0.00  0.00    +0.020 C 
ATOM     29  C   LIG    1        3.210   4.111   4.818  0.00  0.00    -0.010 C 
ATOM     30  C   LIG    1        2.148   4.545   5.830  0.00  0.00    +0.020 C 
ATOM     31  C   LIG    1        1.822   4.747   2.317  0.00  0.00    +0.050 C 
ATOM     32  C   LIG    1        2.639   3.012   3.919  0.00  0.00    +0.050 C 
ENDBRANCH  21  23
ENDBRANCH  20  21
ENDBRANCH  19  20
ENDBRANCH   1  19
TORSDOF 7
