REMARK  Name = ZINCpe000000YA6n.0
REMARK                            x       y       z     vdW  Elec       q    Type
REMARK                         _______ _______ _______ _____ _____    ______ ____
ROOT
ATOM      1  C   LIG    1       -1.577   3.473   2.134  0.00  0.00    +0.450 A 
ATOM      2  C   LIG    1       -2.961   3.250   2.004  0.00  0.00    -0.310 A 
ATOM      3  C   LIG    1       -3.778   2.603   1.051  0.00  0.00    +0.300 A 
ATOM      4  N   LIG    1       -5.018   2.688   1.442  0.00  0.00    -0.220 NA
ATOM      5  N   LIG    1       -5.083   3.381   2.658  0.00  0.00    -0.330 N 
ATOM      6  C   LIG    1       -3.813   3.731   3.018  0.00  0.00    +0.350 A 
ATOM      7  N   LIG    1       -3.279   4.384   4.048  0.00  0.00    -0.530 NA
ATOM      8  C   LIG    1       -1.980   4.573   4.123  0.00  0.00    +0.570 A 
ATOM      9  N   LIG    1       -1.142   4.136   3.200  0.00  0.00    -0.520 NA
ENDROOT
BRANCH   1  15
ATOM     10  C   LIG    1       -0.767   1.557   1.040  0.00  0.00    +0.150 C 
ATOM     11  C   LIG    1        0.266   1.092   0.011  0.00  0.00    +0.250 C 
ATOM     12  O   LIG    1        0.031   1.762  -1.230  0.00  0.00    -0.370 OA
ATOM     13  C   LIG    1        0.096   3.187  -1.136  0.00  0.00    +0.240 C 
ATOM     14  C   LIG    1       -0.940   3.674  -0.119  0.00  0.00    +0.190 C 
ATOM     15  N   LIG    1       -0.694   3.019   1.174  0.00  0.00    -0.490 N 
BRANCH  10  16
ATOM     16  C   LIG    1       -0.471   0.904   2.392  0.00  0.00    +0.060 C 
BRANCH  16  20
ATOM     17  N   LIG    1       -0.356  -1.385   3.322  0.00  0.00    -0.850 N 
ATOM     18  H   LIG    1       -0.490  -2.344   3.255  0.00  0.00    +0.410 HD
ATOM     19  H   LIG    1        0.012  -1.003   4.134  0.00  0.00    +0.400 HD
ATOM     20  C   LIG    1       -0.680  -0.585   2.288  0.00  0.00    +0.520 C 
ATOM     21  O   LIG    1       -1.140  -1.063   1.272  0.00  0.00    -0.540 OA
ENDBRANCH  16  20
ENDBRANCH  10  16
ENDBRANCH   1  15
BRANCH   5  22
ATOM     22  C   LIG    1       -6.249   3.665   3.380  0.00  0.00    +0.150 A 
ATOM     23  C   LIG    1       -6.226   3.662   4.768  0.00  0.00    +0.020 A 
ATOM     24  C   LIG    1       -7.377   3.947   5.477  0.00  0.00    +0.030 A 
ATOM     25  C   LIG    1       -8.553   4.226   4.806  0.00  0.00    +0.010 A 
ATOM     26  C   LIG    1       -8.580   4.224   3.423  0.00  0.00    +0.030 A 
ATOM     27  C   LIG    1       -7.432   3.944   2.708  0.00  0.00    +0.020 A 
ENDBRANCH   5  22
TORSDOF 4
