REMARK  Name = ZINCrg00000fSJzI.0
REMARK                            x       y       z     vdW  Elec       q    Type
REMARK                         _______ _______ _______ _____ _____    ______ ____
ROOT
ATOM      1  C   LIG    1        1.373   0.065   0.689  0.00  0.00    +0.000 C 
ATOM      2  C   LIG    1        0.002  -0.004   0.002  0.00  0.00    +0.320 C 
ATOM      3  N   LIG    1       -0.018   1.466   0.010  0.00  0.00    -0.660 N 
ATOM      4  C   LIG    1       -0.966   2.424   0.020  0.00  0.00    +0.740 C 
ATOM      5  N   LIG    1       -0.611   3.724   0.025  0.00  0.00    -0.740 N 
ATOM      6  H   LIG    1        0.327   3.971   0.022  0.00  0.00    +0.400 HD
ATOM      7  O   LIG    1       -2.142   2.115   0.024  0.00  0.00    -0.580 OA
ATOM      8  C   LIG    1        1.452   1.432  -0.004  0.00  0.00    +0.260 C 
ENDROOT
BRANCH   1  14
ATOM      9  O   LIG    1        5.774  -0.432   0.438  0.00  0.00    -0.540 OA
ATOM     10  C   LIG    1        4.611  -0.565   0.109  0.00  0.00    +0.700 C 
ATOM     11  N   LIG    1        4.167  -0.392  -1.141  0.00  0.00    -0.680 N 
ATOM     12  H   LIG    1        4.731  -0.146  -1.890  0.00  0.00    +0.440 HD
ATOM     13  C   LIG    1        2.838  -0.602  -1.229  0.00  0.00    +0.530 C 
ATOM     14  C   LIG    1        2.385  -0.960   0.172  0.00  0.00    +0.240 C 
ATOM     15  O   LIG    1        2.149  -0.522  -2.224  0.00  0.00    -0.460 OA
ATOM     16  N   LIG    1        3.628  -0.904   0.962  0.00  0.00    -0.720 N 
ATOM     17  H   LIG    1        3.719  -1.079   1.912  0.00  0.00    +0.440 HD
ENDBRANCH   1  14
BRANCH   5  18
ATOM     18  C   LIG    1       -1.642   4.765   0.036  0.00  0.00    +0.340 C 
BRANCH  18  19
ATOM     19  C   LIG    1       -0.986   6.122   0.040  0.00  0.00    -0.140 A 
ATOM     20  C   LIG    1       -0.684   6.739   1.241  0.00  0.00    +0.050 A 
ATOM     21  C   LIG    1       -0.078   7.980   1.248  0.00  0.00    -0.050 A 
ATOM     22  C   LIG    1        0.219   8.613   0.048  0.00  0.00    +0.120 A 
ATOM     23  C   LIG    1       -0.090   7.993  -1.156  0.00  0.00    -0.010 A 
ATOM     24  C   LIG    1       -0.691   6.749  -1.156  0.00  0.00    +0.060 A 
BRANCH  22  25
ATOM     25  N   LIG    1        0.827   9.870   0.051  0.00  0.00    -0.490 N 
ATOM     26  C   LIG    1        2.072   9.855  -0.726  0.00  0.00    +0.180 C 
ATOM     27  C   LIG    1        2.633  11.276  -0.822  0.00  0.00    +0.020 C 
ATOM     28  C   LIG    1        2.896  11.812   0.588  0.00  0.00    +0.010 C 
ATOM     29  C   LIG    1        1.593  11.772   1.392  0.00  0.00    +0.020 C 
ATOM     30  C   LIG    1        1.063  10.337   1.424  0.00  0.00    +0.180 C 
ENDBRANCH  22  25
ENDBRANCH  18  19
ENDBRANCH   5  18
TORSDOF 4
