REMARK  Name = ZINCkj00000y7E5d.0
REMARK                            x       y       z     vdW  Elec       q    Type
REMARK                         _______ _______ _______ _____ _____    ______ ____
ROOT
ATOM      1  C   LIG    1        2.003  -1.382  -3.514  0.00  0.00    +0.090 A 
ATOM      2  C   LIG    1        2.723  -1.147  -2.350  0.00  0.00    +0.010 A 
ATOM      3  C   LIG    1        2.074  -0.702  -1.216  0.00  0.00    +0.040 A 
ATOM      4  C   LIG    1        0.707  -0.490  -1.238  0.00  0.00    -0.090 A 
ATOM      5  C   LIG    1       -0.014  -0.729  -2.393  0.00  0.00    +0.050 A 
ATOM      6  C   LIG    1        0.630  -1.169  -3.533  0.00  0.00    -0.030 A 
ENDROOT
BRANCH   1  11
ATOM      7  C   LIG    1        4.216  -2.144  -8.562  0.00  0.00    +0.330 C 
ATOM      8  N   LIG    1        3.513  -1.625  -7.381  0.00  0.00    -0.390 N 
ATOM      9  C   LIG    1        2.453  -2.564  -6.991  0.00  0.00    +0.280 C 
ATOM     10  C   LIG    1        1.708  -2.015  -5.772  0.00  0.00    +0.220 C 
ATOM     11  N   LIG    1        2.656  -1.832  -4.664  0.00  0.00    -0.490 N 
ATOM     12  C   LIG    1        3.738  -0.914  -5.048  0.00  0.00    +0.230 C 
ATOM     13  C   LIG    1        4.466  -1.472  -6.273  0.00  0.00    +0.280 C 
ATOM     14  H   LIG    1        3.105  -0.729  -7.599  0.00  0.00    +0.420 HD
ENDBRANCH   1  11
BRANCH   4  15
ATOM     15  C   LIG    1        0.002  -0.004   0.002  0.00  0.00    +0.070 C 
BRANCH  15  16
ATOM     16  C   LIG    1       -0.019   1.526   0.010  0.00  0.00    +0.270 C 
BRANCH  16  17
ATOM     17  N   LIG    1       -0.704   1.998   1.216  0.00  0.00    -0.730 N 
ATOM     18  H   LIG    1       -1.058   1.359   1.854  0.00  0.00    +0.400 HD
ATOM     19  C   LIG    1       -0.843   3.320   1.438  0.00  0.00    +0.500 C 
ATOM     20  O   LIG    1       -0.401   4.119   0.639  0.00  0.00    -0.510 OA
BRANCH  19  21
ATOM     21  C   LIG    1       -1.549   3.806   2.677  0.00  0.00    +0.170 C 
ATOM     22 CL   LIG    1       -1.573   5.609   2.687  0.00  0.00    -0.120 Cl
ENDBRANCH  19  21
ENDBRANCH  16  17
ENDBRANCH  15  16
ENDBRANCH   4  15
TORSDOF 5
