REMARK  Name = ZINCpe000000U3Fk.0
REMARK                            x       y       z     vdW  Elec       q    Type
REMARK                         _______ _______ _______ _____ _____    ______ ____
ROOT
ATOM      1  N   LIG    1       -0.011   0.966   0.007  0.00  0.00    -0.740 N 
ATOM      2  H   LIG    1        0.002  -0.004   0.002  0.00  0.00    +0.400 HD
ATOM      3  C   LIG    1       -1.187   1.624   0.017  0.00  0.00    +0.710 C 
ATOM      4  N   LIG    1       -2.345   0.934   0.018  0.00  0.00    -0.740 N 
ATOM      5  H   LIG    1       -2.332  -0.036   0.013  0.00  0.00    +0.410 HD
ATOM      6  O   LIG    1       -1.204   2.840   0.023  0.00  0.00    -0.580 OA
ENDROOT
BRANCH   1   7
ATOM      7  C   LIG    1        1.248   1.716  -0.001  0.00  0.00    +0.310 C 
BRANCH   7   8
ATOM      8  C   LIG    1        2.344   0.863   0.585  0.00  0.00    -0.090 A 
ATOM      9  C   LIG    1        2.402  -0.485   0.288  0.00  0.00    +0.020 A 
ATOM     10  C   LIG    1        3.409  -1.270   0.819  0.00  0.00    +0.030 A 
ATOM     11  C   LIG    1        4.356  -0.708   1.662  0.00  0.00    +0.050 A 
ATOM     12  O   LIG    1        5.335  -1.494   2.185  0.00  0.00    -0.310 OA
ATOM     13  C   LIG    1        6.481  -0.824   2.722  0.00  0.00    +0.220 C 
ATOM     14  C   LIG    1        5.991   0.335   3.600  0.00  0.00    +0.220 C 
ATOM     15  O   LIG    1        5.218   1.221   2.784  0.00  0.00    -0.310 OA
ATOM     16  C   LIG    1        4.295   0.648   1.963  0.00  0.00    +0.060 A 
ATOM     17  C   LIG    1        3.286   1.430   1.422  0.00  0.00    +0.040 A 
ENDBRANCH   7   8
BRANCH   7  19
ATOM     18  C   LIG    1        0.558   3.058  -1.992  0.00  0.00    +0.030 C 
ATOM     19  C   LIG    1        1.608   2.092  -1.439  0.00  0.00    +0.010 C 
ENDBRANCH   7  19
ENDBRANCH   1   7
BRANCH   4  20
ATOM     20  C   LIG    1       -3.624   1.649   0.028  0.00  0.00    +0.430 C 
BRANCH  20  21
ATOM     21  C   LIG    1       -4.756   0.654   0.028  0.00  0.00    +0.270 A 
ATOM     22  N   LIG    1       -4.627  -0.633   0.015  0.00  0.00    -0.280 NA
ATOM     23  N   LIG    1       -5.909  -1.200   0.024  0.00  0.00    -0.540 N 
ATOM     24  H   LIG    1       -6.118  -2.147   0.019  0.00  0.00    +0.460 HD
ATOM     25  C   LIG    1       -6.797  -0.184   0.033  0.00  0.00    +0.650 A 
ATOM     26  O   LIG    1       -8.011  -0.287   0.039  0.00  0.00    -0.550 OA
ATOM     27  N   LIG    1       -6.094   0.966   0.036  0.00  0.00    -0.550 N 
ATOM     28  C   LIG    1       -6.660   2.317   0.047  0.00  0.00    +0.350 C 
ENDBRANCH  20  21
ENDBRANCH   4  20
TORSDOF 5
