REMARK  Name = ZINCpe000027pGWL.0
REMARK                            x       y       z     vdW  Elec       q    Type
REMARK                         _______ _______ _______ _____ _____    ______ ____
ROOT
ATOM      1  C   LIG    1       -3.733   1.819   0.030  0.00  0.00    +0.270 C 
ATOM      2  C   LIG    1       -4.167   2.121   1.480  0.00  0.00    +0.220 C 
ATOM      3  N   LIG    1       -5.644   1.946   1.471  0.00  0.00    -0.430 N 
ATOM      4  C   LIG    1       -5.867   0.762   0.601  0.00  0.00    +0.250 C 
ATOM      5  C   LIG    1       -4.850   0.927  -0.548  0.00  0.00    +0.270 C 
ENDROOT
BRANCH   3   6
ATOM      6  C   LIG    1       -6.125   1.720   2.750  0.00  0.00    +0.470 A 
ATOM      7  N   LIG    1       -6.695   0.557   3.030  0.00  0.00    -0.520 NA
ATOM      8  C   LIG    1       -7.161   0.306   4.243  0.00  0.00    +0.340 A 
ATOM      9  C   LIG    1       -7.056   1.283   5.223  0.00  0.00    -0.030 A 
ATOM     10  C   LIG    1       -6.458   2.491   4.893  0.00  0.00    +0.340 A 
ATOM     11  F   LIG    1       -7.525   1.062   6.471  0.00  0.00    -0.120 F 
ATOM     12  N   LIG    1       -6.009   2.674   3.662  0.00  0.00    -0.490 NA
ENDBRANCH   3   6
BRANCH   5  13
ATOM     13  N   LIG    1       -4.309  -0.376  -0.942  0.00  0.00    -0.290 N 
ATOM     14  C   LIG    1       -4.131  -1.440  -0.125  0.00  0.00    +0.130 A 
ATOM     15  C   LIG    1       -3.614  -2.425  -0.896  0.00  0.00    +0.150 A 
ATOM     16  N   LIG    1       -3.495  -1.919  -2.129  0.00  0.00    -0.260 NA
ATOM     17  N   LIG    1       -3.915  -0.704  -2.123  0.00  0.00    -0.070 NA
ENDBRANCH   5  13
BRANCH   1  20
ATOM     18  O   LIG    1       -1.313   3.010   0.025  0.00  0.00    -0.530 OA
ATOM     19  C   LIG    1       -1.296   1.794   0.018  0.00  0.00    +0.560 C 
ATOM     20  N   LIG    1       -2.454   1.104   0.020  0.00  0.00    -0.730 N 
ATOM     21  H   LIG    1       -2.441   0.134   0.014  0.00  0.00    +0.400 HD
BRANCH  19  22
ATOM     22  C   LIG    1       -0.013   1.076   0.008  0.00  0.00    -0.080 C 
ATOM     23  C   LIG    1        1.130   1.756   0.001  0.00  0.00    -0.050 C 
ATOM     24  C   LIG    1        1.536   3.215  -0.002  0.00  0.00    +0.080 C 
ATOM     25  C   LIG    1        2.840   2.782  -0.683  0.00  0.00    +0.030 C 
ATOM     26  C   LIG    1        2.606   1.418  -0.015  0.00  0.00    +0.070 C 
ENDBRANCH  19  22
ENDBRANCH   1  20
TORSDOF 4
