REMARK  Name = ZINCnE000001ErZ3.0
REMARK                            x       y       z     vdW  Elec       q    Type
REMARK                         _______ _______ _______ _____ _____    ______ ____
ROOT
ATOM      1  C   LIG    1       -0.015   1.216   0.009  0.00  0.00    +0.500 C 
ATOM      2  O   LIG    1        0.002  -0.004   0.002  0.00  0.00    -0.590 OA
ENDROOT
BRANCH   1  10
ATOM      3  C   LIG    1       -5.352   0.333  -1.019  0.00  0.00    +0.050 C 
ATOM      4  C   LIG    1       -5.143   1.431   0.026  0.00  0.00    -0.050 C 
ATOM      5  C   LIG    1       -5.904   2.719  -0.365  0.00  0.00    +0.240 C 
ATOM      6  O   LIG    1       -5.015   3.760   0.072  0.00  0.00    -0.310 OA
ATOM      7  C   LIG    1       -3.735   3.298   0.047  0.00  0.00    +0.110 A 
ATOM      8  C   LIG    1       -2.532   4.004   0.040  0.00  0.00    -0.020 A 
ATOM      9  C   LIG    1       -1.331   3.333   0.032  0.00  0.00    +0.120 A 
ATOM     10  C   LIG    1       -1.306   1.938   0.019  0.00  0.00    -0.110 A 
ATOM     11  C   LIG    1       -2.509   1.229   0.021  0.00  0.00    +0.110 A 
ATOM     12  C   LIG    1       -5.565   0.946   1.415  0.00  0.00    +0.050 C 
ATOM     13  C   LIG    1       -3.703   1.907   0.032  0.00  0.00    -0.180 A 
ENDBRANCH   1  10
BRANCH   1  14
ATOM     14  N   LIG    1        1.131   1.898   0.002  0.00  0.00    -0.630 NA
ATOM     15  C   LIG    1        2.299   1.244  -0.013  0.00  0.00    +0.370 A 
ATOM     16  N   LIG    1        3.526   1.774  -0.022  0.00  0.00    -0.590 NA
ATOM     17  C   LIG    1        4.519   0.952  -0.035  0.00  0.00    +0.290 A 
ATOM     18  N   LIG    1        4.241  -0.354  -0.040  0.00  0.00    -0.590 NA
ATOM     19  S   LIG    1        2.545  -0.462  -0.017  0.00  0.00    +0.090 S 
BRANCH  17  20
ATOM     20  C   LIG    1        5.942   1.448  -0.046  0.00  0.00    +0.170 C 
BRANCH  20  21
ATOM     21  C   LIG    1        5.949   2.978  -0.038  0.00  0.00    -0.010 C 
ATOM     22  C   LIG    1        6.544   3.688  -1.256  0.00  0.00    +0.000 C 
ATOM     23  C   LIG    1        7.306   3.677   0.072  0.00  0.00    -0.010 C 
ENDBRANCH  20  21
ENDBRANCH  17  20
ENDBRANCH   1  14
TORSDOF 4
