REMARK  Name = ZINCtV000002M8QS.0
REMARK                            x       y       z     vdW  Elec       q    Type
REMARK                         _______ _______ _______ _____ _____    ______ ____
ROOT
ATOM      1  C   LIG    1        2.201   6.348  -0.111  0.00  0.00    +0.040 C 
ENDROOT
BRANCH   1   3
ATOM      2  O   LIG    1        2.842   7.617   1.773  0.00  0.00    -0.510 OA
ATOM      3  C   LIG    1        2.311   7.624   0.682  0.00  0.00    +0.520 C 
ATOM      4  N   LIG    1        1.818   8.774   0.180  0.00  0.00    -0.670 N 
ATOM      5  H   LIG    1        1.462   8.796  -0.722  0.00  0.00    +0.410 HD
BRANCH   4   6
ATOM      6  C   LIG    1        1.819   9.935   0.960  0.00  0.00    +0.160 A 
ATOM      7  C   LIG    1        1.998  11.160   0.358  0.00  0.00    -0.010 A 
ATOM      8  C   LIG    1        1.999  12.324   1.144  0.00  0.00    -0.030 A 
ATOM      9  C   LIG    1        2.178  13.593   0.566  0.00  0.00    +0.020 A 
ATOM     10  C   LIG    1        2.172  14.700   1.358  0.00  0.00    +0.010 A 
ATOM     11  C   LIG    1        1.992  14.596   2.736  0.00  0.00    +0.000 A 
ATOM     12  C   LIG    1        1.816  13.384   3.330  0.00  0.00    +0.030 A 
ATOM     13  C   LIG    1        1.815  12.218   2.546  0.00  0.00    -0.060 A 
ATOM     14  C   LIG    1        1.635  10.951   3.127  0.00  0.00    +0.040 A 
ATOM     15  C   LIG    1        1.633   9.840   2.345  0.00  0.00    +0.030 A 
ENDBRANCH   4   6
ENDBRANCH   1   3
BRANCH   1  16
ATOM     16  C   LIG    1        2.833   5.200   0.679  0.00  0.00    +0.320 C 
BRANCH  16  17
ATOM     17  N   LIG    1        2.727   3.959  -0.092  0.00  0.00    -0.580 N 
ATOM     18  C   LIG    1        1.600   3.147   0.071  0.00  0.00    +0.190 A 
ATOM     19  C   LIG    1        0.348   3.715   0.246  0.00  0.00    -0.020 A 
ATOM     20  C   LIG    1       -0.764   2.906   0.402  0.00  0.00    +0.050 A 
ATOM     21  C   LIG    1       -0.636   1.530   0.380  0.00  0.00    +0.000 A 
ATOM     22  C   LIG    1        0.612   0.952   0.213  0.00  0.00    +0.070 A 
ATOM     23  C   LIG    1        1.726   1.755   0.057  0.00  0.00    -0.150 A 
ATOM     24  S   LIG    1        3.325   1.042  -0.161  0.00  0.00    +0.010 S 
ATOM     25  C   LIG    1        4.143   2.278  -1.118  0.00  0.00    -0.150 A 
ATOM     26  C   LIG    1        5.153   1.934  -1.997  0.00  0.00    +0.070 A 
ATOM     27  C   LIG    1        5.785   2.919  -2.738  0.00  0.00    +0.000 A 
ATOM     28  C   LIG    1        5.406   4.241  -2.599  0.00  0.00    +0.050 A 
ATOM     29  C   LIG    1        4.394   4.591  -1.722  0.00  0.00    -0.020 A 
ATOM     30  C   LIG    1        3.756   3.613  -0.976  0.00  0.00    +0.190 A 
ENDBRANCH  16  17
ENDBRANCH   1  16
TORSDOF 4
