REMARK  Name = ZINCvU00000008j4.0
REMARK                            x       y       z     vdW  Elec       q    Type
REMARK                         _______ _______ _______ _____ _____    ______ ____
ROOT
ATOM      1  C   LIG    1        7.022   7.313  -1.970  0.00  0.00    -0.080 A 
ATOM      2  C   LIG    1        8.272   7.711  -2.428  0.00  0.00    +0.110 A 
ATOM      3  C   LIG    1        9.316   6.809  -2.460  0.00  0.00    +0.140 A 
ATOM      4  C   LIG    1        9.129   5.503  -2.037  0.00  0.00    -0.020 A 
ATOM      5  C   LIG    1        7.898   5.090  -1.575  0.00  0.00    +0.170 A 
ATOM      6  C   LIG    1        6.829   5.989  -1.541  0.00  0.00    -0.070 A 
ENDROOT
BRANCH   4   7
ATOM      7  N   LIG    1       10.259   4.547  -2.076  0.00  0.00    +0.020 N 
ATOM      8  O   LIG    1       10.098   3.398  -1.705  0.00  0.00    -0.140 OA
ATOM      9  O   LIG    1       11.350   4.910  -2.479  0.00  0.00    -0.140 OA
ENDBRANCH   4   7
BRANCH   6  10
ATOM     10  C   LIG    1        5.510   5.553  -1.053  0.00  0.00    +0.500 C 
ATOM     11  O   LIG    1        4.584   6.340  -1.020  0.00  0.00    -0.460 OA
BRANCH  10  12
ATOM     12  O   LIG    1        5.329   4.282  -0.642  0.00  0.00    -0.330 OA
BRANCH  12  13
ATOM     13  C   LIG    1        4.003   3.923  -0.173  0.00  0.00    +0.240 C 
BRANCH  13  14
ATOM     14  C   LIG    1        3.991   2.474   0.241  0.00  0.00    +0.400 C 
ATOM     15  O   LIG    1        5.002   1.810   0.150  0.00  0.00    -0.420 OA
BRANCH  14  16
ATOM     16  C   LIG    1        2.754   1.865   0.755  0.00  0.00    -0.180 A 
ATOM     17  C   LIG    1        1.575   2.615   0.817  0.00  0.00    +0.060 A 
ATOM     18  C   LIG    1        0.420   2.037   1.302  0.00  0.00    -0.100 A 
ATOM     19  C   LIG    1        0.426   0.720   1.725  0.00  0.00    -0.040 A 
ATOM     20  C   LIG    1        1.589  -0.029   1.667  0.00  0.00    +0.000 A 
ATOM     21  C   LIG    1       -0.841   0.097   2.253  0.00  0.00    +0.090 C 
ATOM     22  C   LIG    1       -0.853   2.841   1.364  0.00  0.00    +0.090 C 
ATOM     23  C   LIG    1        2.752   0.534   1.185  0.00  0.00    -0.020 A 
ATOM     24  C   LIG    1        4.017  -0.282   1.123  0.00  0.00    +0.100 C 
ENDBRANCH  14  16
ENDBRANCH  13  14
ENDBRANCH  12  13
ENDBRANCH  10  12
ENDBRANCH   6  10
BRANCH   1  25
ATOM     25  S   LIG    1        5.687   8.461  -1.928  0.00  0.00    +0.180 S 
BRANCH  25  30
ATOM     26  C   LIG    1        1.795   8.722  -5.374  0.00  0.00    +0.160 C 
ATOM     27  C   LIG    1        3.109   8.193  -4.859  0.00  0.00    +0.080 A 
ATOM     28  C   LIG    1        3.821   7.273  -5.511  0.00  0.00    -0.070 A 
ATOM     29  S   LIG    1        5.277   6.944  -4.575  0.00  0.00    +0.110 S 
ATOM     30  C   LIG    1        4.783   8.072  -3.390  0.00  0.00    +0.020 A 
ATOM     31  N   LIG    1        3.648   8.603  -3.725  0.00  0.00    -0.440 NA
ENDBRANCH  25  30
ENDBRANCH   1  25
TORSDOF 8
