REMARK  Name = ZINCpk00000l4LMk.0
REMARK                            x       y       z     vdW  Elec       q    Type
REMARK                         _______ _______ _______ _____ _____    ______ ____
ROOT
ATOM      1  C   LIG    1        2.489   1.017   0.557  0.00  0.00    -0.060 C 
ATOM      2  C   LIG    1        2.348   1.238  -0.950  0.00  0.00    +0.030 C 
ATOM      3  C   LIG    1        1.248   1.716  -0.001  0.00  0.00    +0.250 C 
ENDROOT
BRANCH   3   4
ATOM      4  N   LIG    1       -0.011   0.966   0.007  0.00  0.00    -0.700 N 
ATOM      5  H   LIG    1        0.002  -0.004   0.002  0.00  0.00    +0.400 HD
ATOM      6  C   LIG    1       -1.187   1.624   0.017  0.00  0.00    +0.600 C 
ATOM      7  O   LIG    1       -1.204   2.841   0.023  0.00  0.00    -0.520 OA
BRANCH   6   8
ATOM      8  C   LIG    1       -2.445   0.875   0.018  0.00  0.00    -0.250 A 
ATOM      9  C   LIG    1       -3.683   1.433   0.027  0.00  0.00    +0.130 A 
ATOM     10  C   LIG    1       -4.738   0.530   0.027  0.00  0.00    +0.020 A 
ATOM     11  C   LIG    1       -4.330  -0.791   0.018  0.00  0.00    -0.180 A 
ATOM     12  C   LIG    1       -5.496  -1.595   0.019  0.00  0.00    -0.020 A 
ATOM     13  C   LIG    1       -6.563  -0.775   0.029  0.00  0.00    +0.250 A 
ATOM     14  N   LIG    1       -6.136   0.518   0.034  0.00  0.00    -0.550 N 
ATOM     15  H   LIG    1       -6.707   1.302   0.041  0.00  0.00    +0.420 HD
ATOM     16  S   LIG    1       -2.573  -0.877   0.002  0.00  0.00    +0.160 S 
ENDBRANCH   6   8
ENDBRANCH   3   4
BRANCH   1  17
ATOM     17  C   LIG    1        2.321  -0.411   1.081  0.00  0.00    +0.290 C 
BRANCH  17  19
ATOM     18  C   LIG    1        3.669  -2.099   2.208  0.00  0.00    +0.550 C 
ATOM     19  N   LIG    1        3.580  -0.863   1.678  0.00  0.00    -0.720 N 
ATOM     20  H   LIG    1        4.350  -0.273   1.692  0.00  0.00    +0.400 HD
ATOM     21  O   LIG    1        2.705  -2.838   2.191  0.00  0.00    -0.520 OA
BRANCH  18  25
ATOM     22  O   LIG    1        6.385  -5.337   4.416  0.00  0.00    -0.540 OA
ATOM     23  C   LIG    1        6.275  -4.224   3.928  0.00  0.00    +0.510 A 
ATOM     24  C   LIG    1        5.047  -3.821   3.366  0.00  0.00    +0.000 A 
ATOM     25  C   LIG    1        4.945  -2.557   2.814  0.00  0.00    -0.040 A 
ATOM     26  C   LIG    1        6.072  -1.708   2.840  0.00  0.00    -0.070 A 
ATOM     27  C   LIG    1        7.228  -2.139   3.395  0.00  0.00    +0.310 A 
ATOM     28  N   LIG    1        7.324  -3.381   3.932  0.00  0.00    -0.600 N 
ATOM     29  H   LIG    1        8.164  -3.667   4.325  0.00  0.00    +0.420 HD
ENDBRANCH  18  25
ENDBRANCH  17  19
ENDBRANCH   1  17
TORSDOF 5
