REMARK  Name = ZINCrg00000V7MDX.0
REMARK                            x       y       z     vdW  Elec       q    Type
REMARK                         _______ _______ _______ _____ _____    ______ ____
ROOT
ATOM      1  N   LIG    1       -0.723   1.572  -1.182  0.00  0.00    -0.540 NA
ATOM      2  C   LIG    1       -1.093   2.982  -1.033  0.00  0.00    +0.230 C 
ATOM      3  C   LIG    1       -2.171   3.349  -2.057  0.00  0.00    -0.320 C 
ATOM      4  S   LIG    1       -1.485   3.138  -3.727  0.00  0.00    +2.410 S 
ATOM      5  C   LIG    1       -0.847   1.438  -3.629  0.00  0.00    -0.300 C 
ATOM      6  O   LIG    1       -2.549   3.172  -4.668  0.00  0.00    -0.940 OA
ATOM      7  O   LIG    1       -0.388   4.028  -3.885  0.00  0.00    -0.940 OA
ATOM      8  C   LIG    1        0.056   1.324  -2.397  0.00  0.00    +0.260 C 
ENDROOT
BRANCH   8   9
ATOM      9  C   LIG    1        0.646  -0.062  -2.338  0.00  0.00    -0.240 A 
ATOM     10  C   LIG    1        1.889  -0.416  -2.741  0.00  0.00    +0.250 A 
ATOM     11  N   LIG    1        2.030  -1.740  -2.523  0.00  0.00    -0.370 N 
ATOM     12  N   LIG    1        0.835  -2.216  -1.969  0.00  0.00    -0.290 NA
ATOM     13  C   LIG    1        3.222  -2.539  -2.816  0.00  0.00    +0.360 C 
ATOM     14  C   LIG    1        0.008  -1.208  -1.853  0.00  0.00    +0.260 A 
ENDBRANCH   8   9
BRANCH   1  15
ATOM     15  C   LIG    1       -0.013   1.086   0.008  0.00  0.00    +0.330 C 
BRANCH  15  19
ATOM     16  C   LIG    1       -2.013   1.814   2.993  0.00  0.00    +0.110 A 
ATOM     17  N   LIG    1       -1.206   2.839   2.867  0.00  0.00    -0.370 NA
ATOM     18  O   LIG    1       -0.484   2.717   1.905  0.00  0.00    +0.090 OA
ATOM     19  C   LIG    1       -0.718   1.572   1.248  0.00  0.00    -0.040 A 
ATOM     20  C   LIG    1       -1.714   0.941   1.910  0.00  0.00    -0.030 A 
BRANCH  16  23
ATOM     21  C   LIG    1       -2.631   3.773   5.357  0.00  0.00    +0.160 C 
ATOM     22  C   LIG    1       -3.312   2.458   5.080  0.00  0.00    +0.130 A 
ATOM     23  C   LIG    1       -3.037   1.609   4.047  0.00  0.00    -0.190 A 
ATOM     24  C   LIG    1       -3.898   0.500   4.168  0.00  0.00    +0.270 A 
ATOM     25  N   LIG    1       -4.651   0.685   5.219  0.00  0.00    -0.290 NA
ATOM     26  N   LIG    1       -4.304   1.908   5.806  0.00  0.00    -0.370 N 
ATOM     27  C   LIG    1       -4.912   2.486   7.007  0.00  0.00    +0.360 C 
ENDBRANCH  16  23
ENDBRANCH  15  19
ENDBRANCH   1  15
TORSDOF 4
