REMARK  Name = ZINCvU0000000Ab1.0
REMARK                            x       y       z     vdW  Elec       q    Type
REMARK                         _______ _______ _______ _____ _____    ______ ____
ROOT
ATOM      1  C   LIG    1       13.000  -1.635  -0.133  0.00  0.00    +0.120 A 
ATOM      2  C   LIG    1       12.549  -2.902  -0.136  0.00  0.00    -0.110 A 
ATOM      3  S   LIG    1       10.787  -2.858  -0.119  0.00  0.00    +0.210 S 
ATOM      4  C   LIG    1       10.830  -1.098  -0.109  0.00  0.00    +0.270 A 
ATOM      5  N   LIG    1       12.063  -0.697  -0.124  0.00  0.00    -0.500 NA
ENDROOT
BRANCH   1   9
ATOM      6  C   LIG    1       17.148  -0.701  -0.167  0.00  0.00    -0.100 A 
ATOM      7  C   LIG    1       16.213   0.318  -0.152  0.00  0.00    +0.030 A 
ATOM      8  C   LIG    1       14.865   0.021  -0.141  0.00  0.00    +0.040 A 
ATOM      9  C   LIG    1       14.447  -1.309  -0.145  0.00  0.00    -0.010 A 
ATOM     10  C   LIG    1       15.395  -2.332  -0.155  0.00  0.00    +0.030 A 
ATOM     11  C   LIG    1       16.739  -2.023  -0.171  0.00  0.00    +0.030 A 
BRANCH   6  12
ATOM     12  C   LIG    1       18.619  -0.370  -0.180  0.00  0.00    +0.320 C 
BRANCH  12  15
ATOM     13  C   LIG    1       20.907   0.121   2.849  0.00  0.00    +0.110 C 
ATOM     14  C   LIG    1       20.403   0.018   1.433  0.00  0.00    +0.510 C 
ATOM     15  N   LIG    1       19.108  -0.271   1.197  0.00  0.00    -0.730 N 
ATOM     16  H   LIG    1       18.501  -0.414   1.940  0.00  0.00    +0.400 HD
ATOM     17  O   LIG    1       21.163   0.197   0.504  0.00  0.00    -0.550 OA
ENDBRANCH  12  15
ENDBRANCH   6  12
ENDBRANCH   1   9
BRANCH   4  18
ATOM     18  N   LIG    1        9.716  -0.267  -0.093  0.00  0.00    -0.620 N 
ATOM     19  H   LIG    1        9.830   0.696  -0.089  0.00  0.00    +0.430 HD
ATOM     20  C   LIG    1        8.478  -0.800  -0.085  0.00  0.00    +0.520 C 
ATOM     21  O   LIG    1        8.337  -2.005  -0.090  0.00  0.00    -0.500 OA
BRANCH  20  22
ATOM     22  C   LIG    1        7.270   0.101  -0.068  0.00  0.00    +0.090 C 
BRANCH  22  23
ATOM     23  C   LIG    1        5.999  -0.751  -0.060  0.00  0.00    +0.070 C 
BRANCH  23  24
ATOM     24  C   LIG    1        4.773   0.164  -0.043  0.00  0.00    +0.200 C 
BRANCH  24  25
ATOM     25  O   LIG    1        3.586  -0.632  -0.036  0.00  0.00    -0.310 OA
BRANCH  25  26
ATOM     26  C   LIG    1        2.399   0.031  -0.021  0.00  0.00    +0.140 A 
ATOM     27  C   LIG    1        2.378   1.418  -0.013  0.00  0.00    -0.070 A 
ATOM     28  C   LIG    1        1.171   2.089   0.002  0.00  0.00    +0.080 A 
ATOM     29  C   LIG    1       -0.017   1.380   0.010  0.00  0.00    -0.080 A 
ATOM     30  C   LIG    1        0.002  -0.004   0.002  0.00  0.00    -0.030 A 
ATOM     31  C   LIG    1       -1.293  -0.775   0.010  0.00  0.00    +0.110 C 
ATOM     32 CL   LIG    1       -1.532   2.226   0.021  0.00  0.00    -0.070 Cl
ATOM     33  C   LIG    1        1.207  -0.679  -0.013  0.00  0.00    +0.000 A 
ENDBRANCH  25  26
ENDBRANCH  24  25
ENDBRANCH  23  24
ENDBRANCH  22  23
ENDBRANCH  20  22
ENDBRANCH   4  18
TORSDOF 9
