REMARK  Name = ZINCAx0000000d57.0
REMARK                            x       y       z     vdW  Elec       q    Type
REMARK                         _______ _______ _______ _____ _____    ______ ____
ROOT
ATOM      1  N   LIG    1        0.111  -2.675   1.163  0.00  0.00    -0.410 NA
ATOM      2  C   LIG    1        0.801  -2.846   2.458  0.00  0.00    +0.180 C 
ATOM      3  C   LIG    1        0.233  -4.261   2.503  0.00  0.00    -0.060 C 
ATOM      4  C   LIG    1        1.172  -5.338   3.062  0.00  0.00    +0.020 C 
ATOM      5  C   LIG    1        0.557  -5.690   4.442  0.00  0.00    +0.020 C 
ATOM      6  C   LIG    1       -0.967  -5.611   4.171  0.00  0.00    +0.010 C 
ATOM      7  C   LIG    1       -1.119  -4.420   3.199  0.00  0.00    +0.050 C 
ATOM      8  C   LIG    1        0.194  -4.139   0.983  0.00  0.00    +0.110 C 
ENDROOT
BRANCH   8   9
ATOM      9  C   LIG    1       -1.040  -4.739   0.362  0.00  0.00    +0.540 C 
ATOM     10  N   LIG    1       -0.999  -5.986  -0.149  0.00  0.00    -0.610 N 
ATOM     11  C   LIG    1        0.210  -6.809  -0.014  0.00  0.00    +0.260 C 
ATOM     12  C   LIG    1        0.642  -7.287  -1.401  0.00  0.00    +0.040 C 
ATOM     13  C   LIG    1       -0.530  -7.969  -2.091  0.00  0.00    -0.040 C 
ATOM     14  C   LIG    1       -0.953  -9.230  -1.314  0.00  0.00    +0.250 C 
ATOM     15  O   LIG    1       -1.313 -10.143  -2.367  0.00  0.00    -0.300 OA
ATOM     16  C   LIG    1       -0.621  -9.825  -3.496  0.00  0.00    +0.110 A 
ATOM     17  C   LIG    1       -0.373 -10.587  -4.634  0.00  0.00    -0.010 A 
ATOM     18  C   LIG    1        0.356 -10.059  -5.680  0.00  0.00    +0.050 A 
ATOM     19  C   LIG    1        0.846  -8.769  -5.607  0.00  0.00    -0.020 A 
ATOM     20  C   LIG    1        0.607  -8.005  -4.479  0.00  0.00    +0.060 A 
ATOM     21  C   LIG    1       -1.711  -7.019  -2.243  0.00  0.00    +0.040 C 
ATOM     22  C   LIG    1       -0.116  -8.531  -3.431  0.00  0.00    -0.160 A 
ATOM     23  C   LIG    1       -2.161  -6.542  -0.857  0.00  0.00    +0.280 C 
ATOM     24  O   LIG    1       -2.071  -4.101   0.322  0.00  0.00    -0.500 OA
ENDBRANCH   8   9
BRANCH   1  26
ATOM     25  C   LIG    1        0.522  -2.322  -1.224  0.00  0.00    +0.060 C 
ATOM     26  C   LIG    1        0.969  -1.976   0.198  0.00  0.00    +0.200 C 
BRANCH  26  27
ATOM     27  C   LIG    1        0.858  -0.489   0.412  0.00  0.00    +0.440 A 
ATOM     28  N   LIG    1        1.948   0.258   0.425  0.00  0.00    -0.640 NA
ATOM     29  C   LIG    1        1.854   1.573   0.614  0.00  0.00    +0.630 A 
ATOM     30  N   LIG    1        0.662   2.133   0.789  0.00  0.00    -0.660 NA
ATOM     31  C   LIG    1       -0.431   1.379   0.775  0.00  0.00    +0.630 A 
ATOM     32  N   LIG    1       -0.329   0.065   0.585  0.00  0.00    -0.600 NA
BRANCH  31  33
ATOM     33  N   LIG    1       -1.672   1.957   0.950  0.00  0.00    -0.810 N 
ATOM     34  H   LIG    1       -1.746   2.914   1.088  0.00  0.00    +0.410 HD
ATOM     35  H   LIG    1       -2.470   1.406   0.936  0.00  0.00    +0.420 HD
ENDBRANCH  31  33
BRANCH  29  36
ATOM     36  N   LIG    1        2.993   2.352   0.627  0.00  0.00    -0.580 N 
ATOM     37  C   LIG    1        2.888   3.798   0.835  0.00  0.00    +0.300 C 
ATOM     38  C   LIG    1        4.306   1.732   0.434  0.00  0.00    +0.300 C 
ENDBRANCH  29  36
ENDBRANCH  26  27
ENDBRANCH   1  26
TORSDOF 5
