REMARK  Name = ZINCqH0000000vJQ.0
REMARK                            x       y       z     vdW  Elec       q    Type
REMARK                         _______ _______ _______ _____ _____    ______ ____
ROOT
ATOM      1  C   LIG    1        2.736  -4.394  -0.052  0.00  0.00    +0.150 A 
ATOM      2  C   LIG    1        3.626  -3.343  -0.238  0.00  0.00    +0.020 A 
ATOM      3  C   LIG    1        3.169  -2.042  -0.233  0.00  0.00    +0.080 A 
ATOM      4  C   LIG    1        1.813  -1.782  -0.041  0.00  0.00    -0.030 A 
ATOM      5  C   LIG    1        0.923  -2.837   0.151  0.00  0.00    +0.050 A 
ATOM      6  C   LIG    1        1.383  -4.137   0.139  0.00  0.00    -0.010 A 
ENDROOT
BRANCH   4   7
ATOM      7  C   LIG    1        1.319  -0.383  -0.034  0.00  0.00    +0.100 A 
ATOM      8  C   LIG    1        0.025   0.005   0.142  0.00  0.00    +0.100 A 
ATOM      9  N   LIG    1        0.004   1.371   0.079  0.00  0.00    -0.360 N 
ATOM     10  C   LIG    1       -1.007   2.281   0.193  0.00  0.00    +0.210 A 
ATOM     11  C   LIG    1       -0.757   3.603   0.087  0.00  0.00    +0.010 A 
ATOM     12  C   LIG    1        0.552   4.061  -0.133  0.00  0.00    +0.040 A 
ATOM     13  C   LIG    1        1.570   3.166  -0.244  0.00  0.00    +0.070 A 
ATOM     14  C   LIG    1        1.292   1.788  -0.136  0.00  0.00    +0.230 A 
ATOM     15  N   LIG    1        2.070   0.717  -0.201  0.00  0.00    -0.480 NA
ENDBRANCH   4   7
BRANCH   1  17
ATOM     16  C   LIG    1        4.428  -5.996   0.422  0.00  0.00    +0.590 C 
ATOM     17  N   LIG    1        3.201  -5.712  -0.059  0.00  0.00    -0.670 N 
ATOM     18  H   LIG    1        2.641  -6.423  -0.408  0.00  0.00    +0.400 HD
ATOM     19  O   LIG    1        5.093  -5.123   0.948  0.00  0.00    -0.500 OA
BRANCH  16  24
ATOM     20  C   LIG    1        6.288  -9.152   0.441  0.00  0.00    -0.270 A 
ATOM     21  C   LIG    1        5.107  -9.516  -0.186  0.00  0.00    +0.290 A 
ATOM     22  N   LIG    1        4.318  -8.434  -0.261  0.00  0.00    -0.530 N 
ATOM     23  H   LIG    1        3.432  -8.412  -0.655  0.00  0.00    +0.420 HD
ATOM     24  C   LIG    1        4.963  -7.359   0.310  0.00  0.00    -0.070 A 
ATOM     25  C   LIG    1        6.186  -7.773   0.747  0.00  0.00    +0.120 A 
BRANCH  20  27
ATOM     26  C   LIG    1        7.384 -11.479   0.330  0.00  0.00    +0.060 C 
ATOM     27  C   LIG    1        7.429 -10.027   0.729  0.00  0.00    +0.420 C 
ATOM     28  O   LIG    1        8.410  -9.581   1.287  0.00  0.00    -0.460 OA
ENDBRANCH  20  27
ENDBRANCH  16  24
ENDBRANCH   1  17
TORSDOF 4
