REMARK  Name = ZINCrg00000LXerF.0
REMARK                            x       y       z     vdW  Elec       q    Type
REMARK                         _______ _______ _______ _____ _____    ______ ____
ROOT
ATOM      1  C   LIG    1       -3.312   0.587   3.039  0.00  0.00    +0.520 C 
ATOM      2  N   LIG    1       -3.031   1.270   1.912  0.00  0.00    -0.600 N 
ATOM      3  O   LIG    1       -3.474   1.182   4.084  0.00  0.00    -0.500 OA
ENDROOT
BRANCH   1   9
ATOM      4  C   LIG    1       -4.923  -1.377   2.971  0.00  0.00    -0.140 C 
ATOM      5  C   LIG    1       -5.352  -1.107   4.440  0.00  0.00    +0.070 C 
ATOM      6  C   LIG    1       -4.252  -2.162   4.710  0.00  0.00    +0.070 C 
ATOM      7  O   LIG    1       -3.022  -1.510   4.269  0.00  0.00    -0.310 OA
ATOM      8  C   LIG    1       -4.216  -2.891   6.055  0.00  0.00    +0.120 C 
ATOM      9  C   LIG    1       -3.425  -0.915   3.003  0.00  0.00    +0.200 C 
ATOM     10  C   LIG    1       -4.923  -2.850   3.487  0.00  0.00    +0.100 C 
BRANCH   4  11
ATOM     11  C   LIG    1       -5.786  -0.955   1.811  0.00  0.00    +0.500 C 
ATOM     12  O   LIG    1       -6.153  -1.774   1.002  0.00  0.00    -0.490 OA
BRANCH  11  13
ATOM     13  O   LIG    1       -6.148   0.331   1.676  0.00  0.00    -0.350 OA
BRANCH  13  15
ATOM     14  C   LIG    1       -7.325   2.154   0.571  0.00  0.00    +0.070 C 
ATOM     15  C   LIG    1       -7.095   0.642   0.621  0.00  0.00    +0.200 C 
ENDBRANCH  13  15
ENDBRANCH  11  13
ENDBRANCH   4  11
ENDBRANCH   1   9
BRANCH   2  16
ATOM     16  C   LIG    1       -3.025   0.579   0.620  0.00  0.00    +0.220 C 
ATOM     17  C   LIG    1       -1.603   0.571   0.050  0.00  0.00    -0.010 C 
ATOM     18  C   LIG    1       -1.621  -0.083  -1.335  0.00  0.00    +0.210 C 
ATOM     19  O   LIG    1       -2.524   0.627  -2.184  0.00  0.00    -0.380 OA
ATOM     20  C   LIG    1       -3.878   0.628  -1.725  0.00  0.00    +0.210 C 
ATOM     21  C   LIG    1       -3.951   1.310  -0.357  0.00  0.00    -0.010 C 
ENDBRANCH   2  16
BRANCH   2  22
ATOM     22  C   LIG    1       -2.732   2.702   1.978  0.00  0.00    +0.320 C 
BRANCH  22  23
ATOM     23  C   LIG    1       -4.028   3.501   1.833  0.00  0.00    +0.080 C 
BRANCH  23  24
ATOM     24  C   LIG    1       -3.720   4.975   1.901  0.00  0.00    +0.470 C 
ATOM     25  O   LIG    1       -2.581   5.348   2.049  0.00  0.00    -0.510 OA
BRANCH  24  26
ATOM     26  O   LIG    1       -4.712   5.873   1.796  0.00  0.00    -0.360 OA
ATOM     27  C   LIG    1       -4.342   7.275   1.870  0.00  0.00    +0.250 C 
ENDBRANCH  24  26
ENDBRANCH  23  24
ENDBRANCH  22  23
ENDBRANCH   2  22
TORSDOF 9
