REMARK  Name = ZINCrH000004lsUd.0
REMARK                            x       y       z     vdW  Elec       q    Type
REMARK                         _______ _______ _______ _____ _____    ______ ____
ROOT
ATOM      1  N   LIG    1        1.200   1.584   2.586  0.00  0.00    -0.640 N 
ATOM      2  H   LIG    1        1.702   1.010   1.987  0.00  0.00    +0.410 HD
ATOM      3  C   LIG    1        1.821   2.186   3.620  0.00  0.00    +0.600 C 
ATOM      4  O   LIG    1        1.175   2.832   4.425  0.00  0.00    -0.500 OA
ENDROOT
BRANCH   3   5
ATOM      5  C   LIG    1        3.275   2.063   3.776  0.00  0.00    -0.030 A 
ATOM      6  C   LIG    1        4.006   2.629   4.772  0.00  0.00    +0.080 A 
ATOM      7  C   LIG    1        5.394   2.241   4.528  0.00  0.00    -0.170 A 
ATOM      8  C   LIG    1        6.603   2.493   5.181  0.00  0.00    +0.120 A 
ATOM      9  C   LIG    1        7.764   1.974   4.684  0.00  0.00    -0.060 A 
ATOM     10  C   LIG    1        7.749   1.195   3.528  0.00  0.00    +0.150 A 
ATOM     11  C   LIG    1        6.560   0.936   2.869  0.00  0.00    +0.010 A 
ATOM     12  C   LIG    1        5.370   1.455   3.360  0.00  0.00    +0.110 A 
ATOM     13  O   LIG    1        4.090   1.376   2.947  0.00  0.00    -0.180 OA
BRANCH  10  14
ATOM     14  O   LIG    1        8.912   0.686   3.045  0.00  0.00    -0.310 OA
BRANCH  14  15
ATOM     15  C   LIG    1       10.104   0.990   3.771  0.00  0.00    +0.600 C 
ATOM     16  F   LIG    1        9.993   0.500   5.077  0.00  0.00    -0.200 F 
ATOM     17  F   LIG    1       10.287   2.377   3.808  0.00  0.00    -0.200 F 
ENDBRANCH  14  15
ENDBRANCH  10  14
ENDBRANCH   3   5
BRANCH   1  21
ATOM     18  N   LIG    1       -2.080   2.494   1.552  0.00  0.00    -0.370 N 
ATOM     19  N   LIG    1       -2.355   1.649   2.635  0.00  0.00    -0.280 NA
ATOM     20  C   LIG    1       -1.218   1.230   3.130  0.00  0.00    +0.100 A 
ATOM     21  C   LIG    1       -0.176   1.788   2.376  0.00  0.00    -0.020 A 
ATOM     22  C   LIG    1       -1.057   0.304   4.308  0.00  0.00    +0.160 C 
ATOM     23  C   LIG    1       -0.731   2.561   1.407  0.00  0.00    +0.100 A 
ATOM     24  C   LIG    1        0.014   3.355   0.365  0.00  0.00    +0.160 C 
BRANCH  18  25
ATOM     25  C   LIG    1       -3.071   3.180   0.721  0.00  0.00    +0.350 C 
BRANCH  25  26
ATOM     26  C   LIG    1       -3.455   2.285  -0.459  0.00  0.00    +0.170 C 
BRANCH  26  28
ATOM     27  C   LIG    1       -4.851   2.201  -2.406  0.00  0.00    +0.200 C 
ATOM     28  O   LIG    1       -4.423   2.955  -1.270  0.00  0.00    -0.390 OA
ENDBRANCH  26  28
ENDBRANCH  25  26
ENDBRANCH  18  25
ENDBRANCH   1  21
TORSDOF 7
