REMARK  Name = ZINCqH0000034oBg.1
REMARK                            x       y       z     vdW  Elec       q    Type
REMARK                         _______ _______ _______ _____ _____    ______ ____
ROOT
ATOM      1  C   LIG    1        2.125   0.993   1.166  0.00  0.00    +0.080 A 
ATOM      2  C   LIG    1        2.909  -0.084   1.050  0.00  0.00    -0.060 A 
ATOM      3  S   LIG    1        3.629  -0.413   2.625  0.00  0.00    +0.110 S 
ATOM      4  C   LIG    1        2.776   0.974   3.299  0.00  0.00    +0.100 A 
ATOM      5  N   LIG    1        2.073   1.538   2.359  0.00  0.00    -0.440 NA
ENDROOT
BRANCH   4   6
ATOM      6  C   LIG    1        2.850   1.427   4.705  0.00  0.00    +0.010 A 
ATOM      7  C   LIG    1        2.130   2.547   5.119  0.00  0.00    +0.080 A 
ATOM      8  C   LIG    1        2.200   2.962   6.433  0.00  0.00    +0.080 A 
ATOM      9  C   LIG    1        2.991   2.276   7.336  0.00  0.00    -0.170 A 
ATOM     10  C   LIG    1        3.712   1.167   6.931  0.00  0.00    +0.070 A 
ATOM     11  C   LIG    1        3.647   0.739   5.621  0.00  0.00    +0.040 A 
BRANCH   9  12
ATOM     12  C   LIG    1        3.068   2.738   8.769  0.00  0.00    +0.510 C 
ATOM     13  F   LIG    1        3.300   1.639   9.602  0.00  0.00    -0.180 F 
ATOM     14  F   LIG    1        1.861   3.348   9.127  0.00  0.00    -0.170 F 
ATOM     15  F   LIG    1        4.114   3.657   8.907  0.00  0.00    -0.170 F 
ENDBRANCH   9  12
ENDBRANCH   4   6
BRANCH   1  16
ATOM     16  C   LIG    1        1.353   1.550  -0.003  0.00  0.00    +0.280 C 
BRANCH  16  17
ATOM     17  N   LIG    1       -0.012   1.005   0.008  0.00  0.00    -0.680 NA
ATOM     18  H   LIG    1        0.002  -0.004   0.002  0.00  0.00    +0.340 HD
BRANCH  17  19
ATOM     19  C   LIG    1       -0.795   1.527  -1.120  0.00  0.00    +0.190 C 
BRANCH  19  20
ATOM     20  C   LIG    1       -2.207   0.938  -1.076  0.00  0.00    +0.160 C 
BRANCH  20  25
ATOM     21  N   LIG    1       -3.110   0.922  -3.466  0.00  0.00    -0.470 N 
ATOM     22  C   LIG    1       -3.930   1.734  -4.175  0.00  0.00    +0.370 A 
ATOM     23  N   LIG    1       -4.287   2.710  -3.385  0.00  0.00    -0.300 NA
ATOM     24  N   LIG    1       -3.746   2.552  -2.229  0.00  0.00    -0.290 NA
ATOM     25  C   LIG    1       -3.011   1.474  -2.232  0.00  0.00    +0.180 A 
BRANCH  21  27
ATOM     26  C   LIG    1       -3.317  -1.514  -3.554  0.00  0.00    +0.050 C 
ATOM     27  C   LIG    1       -2.461  -0.304  -3.937  0.00  0.00    +0.290 C 
ENDBRANCH  21  27
ENDBRANCH  20  25
ENDBRANCH  19  20
ENDBRANCH  17  19
ENDBRANCH  16  17
ENDBRANCH   1  16
TORSDOF 8
