REMARK  Name = ZINCrD000000D8r7.0
REMARK                            x       y       z     vdW  Elec       q    Type
REMARK                         _______ _______ _______ _____ _____    ______ ____
ROOT
ATOM      1  C   LIG    1       -4.859  -3.354   0.032  0.00  0.00    +0.360 A 
ATOM      2  N   LIG    1       -3.576  -3.525   0.019  0.00  0.00    -0.330 NA
ATOM      3  N   LIG    1       -2.745  -2.412   0.017  0.00  0.00    -0.300 N 
ATOM      4  C   LIG    1       -1.391  -2.118   0.004  0.00  0.00    +0.210 A 
ATOM      5  C   LIG    1       -1.271  -0.766   0.011  0.00  0.00    +0.070 A 
ATOM      6  N   LIG    1       -2.510  -0.238   0.032  0.00  0.00    -0.420 NA
ATOM      7  C   LIG    1       -3.386  -1.213   0.030  0.00  0.00    +0.120 A 
ATOM      8  S   LIG    1       -5.114  -1.600   0.045  0.00  0.00    +0.150 S 
ENDROOT
BRANCH   1  13
ATOM      9  O   LIG    1       -8.316  -6.846  -0.262  0.00  0.00    -0.920 OA
ATOM     10  S   LIG    1       -7.722  -6.227  -1.395  0.00  0.00    +2.420 S 
ATOM     11  C   LIG    1       -5.918  -6.404  -1.274  0.00  0.00    -0.330 C 
ATOM     12  C   LIG    1       -5.440  -5.748   0.020  0.00  0.00    +0.360 C 
ATOM     13  N   LIG    1       -5.834  -4.339   0.037  0.00  0.00    -0.570 N 
ATOM     14  C   LIG    1       -7.248  -3.960   0.053  0.00  0.00    +0.360 C 
ATOM     15  O   LIG    1       -8.131  -6.620  -2.698  0.00  0.00    -0.920 OA
ATOM     16  C   LIG    1       -7.917  -4.428  -1.242  0.00  0.00    -0.550 C 
ATOM     17  C   LIG    1       -7.254  -3.740  -2.437  0.00  0.00    +0.060 C 
ATOM     18  C   LIG    1       -7.417  -2.224  -2.308  0.00  0.00    +0.020 C 
ATOM     19  C   LIG    1       -8.906  -1.873  -2.276  0.00  0.00    +0.020 C 
ATOM     20  C   LIG    1       -9.567  -2.560  -1.079  0.00  0.00    +0.030 C 
ATOM     21  C   LIG    1       -9.404  -4.076  -1.207  0.00  0.00    +0.080 C 
ENDBRANCH   1  13
BRANCH   5  22
ATOM     22  C   LIG    1        0.002  -0.004   0.002  0.00  0.00    -0.010 A 
ATOM     23  C   LIG    1       -0.017   1.390   0.010  0.00  0.00    +0.040 A 
ATOM     24  C   LIG    1        1.170   2.093   0.002  0.00  0.00    +0.010 A 
ATOM     25  C   LIG    1        2.377   1.418  -0.013  0.00  0.00    +0.000 A 
ATOM     26  C   LIG    1        2.402   0.035  -0.021  0.00  0.00    +0.010 A 
ATOM     27  C   LIG    1        1.221  -0.679  -0.013  0.00  0.00    +0.010 A 
ENDBRANCH   5  22
TORSDOF 2
