REMARK  Name = ZINCAx0000000j0a.1
REMARK                            x       y       z     vdW  Elec       q    Type
REMARK                         _______ _______ _______ _____ _____    ______ ____
ROOT
ATOM      1  C   LIG    1        2.047  -3.429  -5.454  0.00  0.00    +0.560 C 
ATOM      2  N   LIG    1        1.935  -3.223  -6.781  0.00  0.00    -0.520 N 
ATOM      3  H   LIG    1        1.058  -3.193  -7.195  0.00  0.00    +0.430 HD
ATOM      4  O   LIG    1        3.146  -3.466  -4.936  0.00  0.00    -0.520 OA
ENDROOT
BRANCH   1   9
ATOM      5  C   LIG    1       -0.190  -3.994  -2.490  0.00  0.00    -0.680 A 
ATOM      6  C   LIG    1       -1.439  -3.957  -3.085  0.00  0.00    +0.160 A 
ATOM      7  C   LIG    1       -1.558  -3.740  -4.446  0.00  0.00    +0.010 A 
ATOM      8  C   LIG    1       -0.430  -3.570  -5.222  0.00  0.00    +0.110 A 
ATOM      9  C   LIG    1        0.834  -3.611  -4.629  0.00  0.00    -0.150 A 
ATOM     10  C   LIG    1        0.946  -3.825  -3.255  0.00  0.00    +0.210 A 
BRANCH   5  11
ATOM     11  S   LIG    1       -0.050  -4.265  -0.755  0.00  0.00    +2.690 S 
ATOM     12  O   LIG    1       -1.241  -4.930  -0.355  0.00  0.00    -0.940 OA
ATOM     13  O   LIG    1        1.249  -4.798  -0.536  0.00  0.00    -0.940 OA
BRANCH  11  14
ATOM     14  N   LIG    1       -0.076  -2.780  -0.023  0.00  0.00    -1.040 N 
ATOM     15  H   LIG    1        0.681  -2.489   0.509  0.00  0.00    +0.430 HD
BRANCH  14  21
ATOM     16  C   LIG    1       -1.021  -0.564  -0.251  0.00  0.00    +0.110 A 
ATOM     17  C   LIG    1       -2.126   0.257  -0.404  0.00  0.00    -0.060 A 
ATOM     18  C   LIG    1       -3.393  -0.294  -0.475  0.00  0.00    +0.040 A 
ATOM     19  C   LIG    1       -3.560  -1.663  -0.392  0.00  0.00    +0.000 A 
ATOM     20  C   LIG    1       -2.463  -2.490  -0.239  0.00  0.00    +0.030 A 
ATOM     21  C   LIG    1       -1.189  -1.945  -0.173  0.00  0.00    +0.120 A 
BRANCH  16  23
ATOM     22  C   LIG    1        0.322   1.399  -0.274  0.00  0.00    +0.250 C 
ATOM     23  O   LIG    1        0.225  -0.024  -0.181  0.00  0.00    -0.310 OA
ENDBRANCH  16  23
ENDBRANCH  14  21
ENDBRANCH  11  14
ENDBRANCH   5  11
ENDBRANCH   1   9
BRANCH   2  24
ATOM     24  N   LIG    1        3.084  -3.050  -7.563  0.00  0.00    -0.520 N 
ATOM     25  H   LIG    1        3.961  -3.079  -7.149  0.00  0.00    +0.440 HD
ATOM     26  C   LIG    1        2.972  -2.843  -8.890  0.00  0.00    +0.530 C 
ATOM     27  O   LIG    1        1.876  -2.807  -9.408  0.00  0.00    -0.530 OA
BRANCH  26  28
ATOM     28  C   LIG    1        4.209  -2.658  -9.731  0.00  0.00    +0.110 C 
BRANCH  28  29
ATOM     29  C   LIG    1        3.805  -2.442 -11.191  0.00  0.00    -0.300 C 
BRANCH  29  30
ATOM     30  S   LIG    1        5.294  -2.218 -12.203  0.00  0.00    +2.490 S 
ATOM     31  O   LIG    1        6.034  -3.429 -12.276  0.00  0.00    -0.910 OA
ATOM     32  O   LIG    1        5.931  -0.988 -11.887  0.00  0.00    -0.930 OA
BRANCH  30  33
ATOM     33  C   LIG    1        4.682  -1.984 -13.839  0.00  0.00    -0.660 A 
ATOM     34  C   LIG    1        4.871  -0.774 -14.480  0.00  0.00    +0.150 A 
ATOM     35  C   LIG    1        4.391  -0.590 -15.764  0.00  0.00    +0.010 A 
ATOM     36  C   LIG    1        3.722  -1.615 -16.406  0.00  0.00    +0.090 A 
ATOM     37  C   LIG    1        3.532  -2.825 -15.765  0.00  0.00    +0.020 A 
ATOM     38  C   LIG    1        4.017  -3.012 -14.483  0.00  0.00    +0.050 A 
ATOM     39 CL   LIG    1        3.786  -4.534 -13.681  0.00  0.00    -0.040 Cl
ENDBRANCH  30  33
ENDBRANCH  29  30
ENDBRANCH  28  29
ENDBRANCH  26  28
ENDBRANCH   2  24
TORSDOF 10
