REMARK  Name = ZINCrD0000072UgV.0
REMARK                            x       y       z     vdW  Elec       q    Type
REMARK                         _______ _______ _______ _____ _____    ______ ____
ROOT
ATOM      1  N   LIG    1       -2.122  -3.007   0.006  0.00  0.00    -0.660 N 
ATOM      2  H   LIG    1       -3.021  -2.652   0.092  0.00  0.00    +0.420 HD
ATOM      3  C   LIG    1       -1.065  -2.172  -0.002  0.00  0.00    +0.510 C 
ATOM      4  O   LIG    1        0.062  -2.620  -0.009  0.00  0.00    -0.480 OA
ENDROOT
BRANCH   1   9
ATOM      5  C   LIG    1       -0.591  -6.253  -0.839  0.00  0.00    -0.110 A 
ATOM      6  C   LIG    1       -1.548  -7.131  -0.328  0.00  0.00    +0.070 A 
ATOM      7  C   LIG    1       -2.680  -6.635   0.287  0.00  0.00    +0.030 A 
ATOM      8  C   LIG    1       -2.868  -5.271   0.403  0.00  0.00    -0.080 A 
ATOM      9  C   LIG    1       -1.924  -4.388  -0.109  0.00  0.00    +0.140 A 
ATOM     10  C   LIG    1       -4.104  -4.738   1.081  0.00  0.00    +0.110 C 
ATOM     11  C   LIG    1       -0.784  -4.875  -0.727  0.00  0.00    +0.100 A 
BRANCH   5  12
ATOM     12  C   LIG    1        0.623  -6.780  -1.497  0.00  0.00    +0.510 C 
ATOM     13  O   LIG    1        1.454  -6.014  -1.941  0.00  0.00    -0.500 OA
BRANCH  12  15
ATOM     14  C   LIG    1        2.022  -8.557  -2.262  0.00  0.00    +0.270 C 
ATOM     15  O   LIG    1        0.807  -8.110  -1.604  0.00  0.00    -0.360 OA
ENDBRANCH  12  15
ENDBRANCH   5  12
ENDBRANCH   1   9
BRANCH   3  16
ATOM     16  C   LIG    1       -1.283  -0.681  -0.004  0.00  0.00    +0.270 C 
BRANCH  16  17
ATOM     17  O   LIG    1        0.001  -0.004  -0.014  0.00  0.00    -0.320 OA
BRANCH  17  18
ATOM     18  C   LIG    1       -0.017   1.345  -0.016  0.00  0.00    +0.560 C 
ATOM     19  O   LIG    1       -1.079   1.938  -0.016  0.00  0.00    -0.480 OA
BRANCH  18  20
ATOM     20  C   LIG    1        1.244   2.096  -0.026  0.00  0.00    -0.020 A 
ATOM     21  C   LIG    1        1.347   3.451  -0.035  0.00  0.00    +0.090 A 
ATOM     22  C   LIG    1        2.778   3.749  -0.039  0.00  0.00    -0.150 A 
ATOM     23  C   LIG    1        3.528   4.927  -0.046  0.00  0.00    +0.080 A 
ATOM     24  C   LIG    1        4.893   4.862  -0.054  0.00  0.00    +0.000 A 
ATOM     25  C   LIG    1        5.538   3.633  -0.056  0.00  0.00    +0.070 A 
ATOM     26  C   LIG    1        4.817   2.458  -0.050  0.00  0.00    +0.030 A 
ATOM     27  C   LIG    1        3.428   2.499  -0.041  0.00  0.00    +0.080 A 
ATOM     28  O   LIG    1        2.476   1.546  -0.033  0.00  0.00    -0.170 OA
ENDBRANCH  18  20
ENDBRANCH  17  18
ENDBRANCH  16  17
ENDBRANCH   3  16
TORSDOF 7
