REMARK  Name = ZINCqH0000008sCT.0
REMARK                            x       y       z     vdW  Elec       q    Type
REMARK                         _______ _______ _______ _____ _____    ______ ____
ROOT
ATOM      1  N   LIG    1       -4.357   4.252   5.581  0.00  0.00    -0.700 N 
ATOM      2  H   LIG    1       -5.315   4.399   5.613  0.00  0.00    +0.410 HD
ENDROOT
BRANCH   1   3
ATOM      3  C   LIG    1       -3.787   3.644   4.475  0.00  0.00    +0.440 A 
ATOM      4  N   LIG    1       -2.476   3.446   4.441  0.00  0.00    -0.530 NA
ATOM      5  C   LIG    1       -1.890   2.872   3.411  0.00  0.00    +0.360 A 
ATOM      6  C   LIG    1       -2.641   2.449   2.313  0.00  0.00    -0.250 A 
ATOM      7  C   LIG    1       -4.030   2.650   2.319  0.00  0.00    +0.200 A 
ATOM      8  C   LIG    1       -4.599   3.247   3.412  0.00  0.00    -0.160 A 
ATOM      9 CL   LIG    1       -6.313   3.513   3.473  0.00  0.00    -0.050 Cl
BRANCH   6  10
ATOM     10  C   LIG    1       -1.983   1.806   1.159  0.00  0.00    +0.570 C 
ATOM     11  N   LIG    1       -0.761   1.256   1.302  0.00  0.00    -0.620 N 
ATOM     12  C   LIG    1       -0.153   1.155   2.631  0.00  0.00    +0.290 C 
ATOM     13  C   LIG    1       -0.041   0.758   0.127  0.00  0.00    +0.300 C 
ATOM     14  O   LIG    1       -2.543   1.773   0.081  0.00  0.00    -0.530 OA
ENDBRANCH   6  10
ENDBRANCH   1   3
BRANCH   1  16
ATOM     15  C   LIG    1       -3.296   3.489   7.648  0.00  0.00    +0.040 C 
ATOM     16  C   LIG    1       -3.514   4.672   6.702  0.00  0.00    +0.300 C 
BRANCH  16  17
ATOM     17  C   LIG    1       -4.191   5.793   7.448  0.00  0.00    -0.070 A 
ATOM     18  C   LIG    1       -5.556   5.755   7.660  0.00  0.00    +0.010 A 
ATOM     19  C   LIG    1       -6.181   6.782   8.344  0.00  0.00    +0.060 A 
ATOM     20  C   LIG    1       -5.442   7.848   8.817  0.00  0.00    +0.000 A 
ATOM     21  C   LIG    1       -4.070   7.889   8.606  0.00  0.00    +0.140 A 
ATOM     22  C   LIG    1       -3.445   6.854   7.924  0.00  0.00    +0.020 A 
BRANCH  21  23
ATOM     23  N   LIG    1       -3.317   8.970   9.086  0.00  0.00    -0.410 N 
ATOM     24  C   LIG    1       -3.795  10.054   9.776  0.00  0.00    +0.130 A 
ATOM     25  C   LIG    1       -2.738  10.844  10.042  0.00  0.00    +0.160 A 
ATOM     26  N   LIG    1       -1.642  10.264   9.530  0.00  0.00    -0.480 NA
ATOM     27  C   LIG    1       -1.975   9.139   8.959  0.00  0.00    +0.400 A 
ENDBRANCH  21  23
ENDBRANCH  16  17
ENDBRANCH   1  16
TORSDOF 5
