REMARK  Name = ZINCrg00000J1CMr.0
REMARK                            x       y       z     vdW  Elec       q    Type
REMARK                         _______ _______ _______ _____ _____    ______ ____
ROOT
ATOM      1  N   LIG    1        5.725   2.356  -0.081  0.00  0.00    -0.660 N 
ATOM      2  H   LIG    1        6.616   1.979  -0.019  0.00  0.00    +0.430 HD
ENDROOT
BRANCH   1   3
ATOM      3  C   LIG    1        4.620   1.525  -0.054  0.00  0.00    +0.540 A 
ATOM      4  C   LIG    1        4.785   0.142  -0.052  0.00  0.00    -0.340 A 
ATOM      5  C   LIG    1        3.654  -0.670  -0.027  0.00  0.00    +0.550 A 
ATOM      6  N   LIG    1        2.433  -0.096  -0.004  0.00  0.00    -0.440 N 
ATOM      7  C   LIG    1        1.321  -0.884   0.021  0.00  0.00    +0.310 A 
ATOM      8  C   LIG    1        0.086  -0.336   0.043  0.00  0.00    +0.000 A 
ATOM      9  C   LIG    1       -0.067   1.058   0.042  0.00  0.00    +0.160 A 
ATOM     10  C   LIG    1        1.037   1.855   0.017  0.00  0.00    +0.030 A 
ATOM     11  C   LIG    1        2.316   1.266  -0.006  0.00  0.00    +0.450 A 
ATOM     12  O   LIG    1        3.766  -1.887  -0.025  0.00  0.00    -0.470 OA
ATOM     13  N   LIG    1        3.395   2.045  -0.032  0.00  0.00    -0.570 NA
BRANCH   4  14
ATOM     14  N   LIG    1        6.140  -0.454  -0.077  0.00  0.00    +0.090 N 
ATOM     15  O   LIG    1        6.273  -1.660  -0.179  0.00  0.00    -0.140 OA
ATOM     16  O   LIG    1        7.122   0.262   0.004  0.00  0.00    -0.240 OA
ENDBRANCH   4  14
ENDBRANCH   1   3
BRANCH   1  17
ATOM     17  C   LIG    1        5.549   3.805  -0.203  0.00  0.00    +0.330 C 
BRANCH  17  22
ATOM     18  C   LIG    1        8.798   5.304  -1.407  0.00  0.00    -0.100 A 
ATOM     19  C   LIG    1        9.373   5.708  -0.217  0.00  0.00    +0.050 A 
ATOM     20  C   LIG    1        8.711   5.496   0.978  0.00  0.00    +0.020 A 
ATOM     21  C   LIG    1        7.472   4.884   0.983  0.00  0.00    +0.050 A 
ATOM     22  C   LIG    1        6.898   4.476  -0.207  0.00  0.00    -0.120 A 
ATOM     23  C   LIG    1        7.560   4.689  -1.402  0.00  0.00    +0.050 A 
BRANCH  18  24
ATOM     24  C   LIG    1        9.519   5.536  -2.709  0.00  0.00    -0.280 C 
BRANCH  24  25
ATOM     25  S   LIG    1        9.050   7.154  -3.381  0.00  0.00    +2.610 S 
ATOM     26  O   LIG    1        9.564   8.200  -2.568  0.00  0.00    -0.950 OA
ATOM     27  O   LIG    1        7.690   7.148  -3.793  0.00  0.00    -0.960 OA
BRANCH  25  28
ATOM     28  N   LIG    1        9.904   7.279  -4.794  0.00  0.00    -1.250 NA
ATOM     29  H   LIG    1       10.764   6.837  -4.882  0.00  0.00    +0.410 HD
ATOM     30  H   LIG    1        9.545   7.792  -5.535  0.00  0.00    +0.420 HD
ENDBRANCH  25  28
ENDBRANCH  24  25
ENDBRANCH  18  24
ENDBRANCH  17  22
ENDBRANCH   1  17
TORSDOF 7
