REMARK  Name = ZINCtV00000L6jJW.0
REMARK                            x       y       z     vdW  Elec       q    Type
REMARK                         _______ _______ _______ _____ _____    ______ ____
ROOT
ATOM      1  C   LIG    1        1.253   1.966   0.017  0.00  0.00    -0.140 A 
ATOM      2  C   LIG    1        1.238   3.367   0.029  0.00  0.00    +0.070 A 
ATOM      3  C   LIG    1        2.400   4.070   0.032  0.00  0.00    +0.080 A 
ATOM      4  C   LIG    1        3.647   3.404   0.023  0.00  0.00    +0.150 A 
ATOM      5  N   LIG    1        4.881   3.937   0.025  0.00  0.00    -0.470 NA
ATOM      6  C   LIG    1        5.889   3.132   0.015  0.00  0.00    +0.350 A 
ATOM      7  S   LIG    1        5.337   1.462   0.002  0.00  0.00    +0.090 S 
ATOM      8  C   LIG    1        3.660   2.003   0.011  0.00  0.00    -0.200 A 
ATOM      9  C   LIG    1        2.470   1.288   0.014  0.00  0.00    +0.160 A 
ENDROOT
BRANCH   1  11
ATOM     10  O   LIG    1        0.001  -0.004   0.004  0.00  0.00    -0.510 OA
ATOM     11  C   LIG    1       -0.015   1.212   0.015  0.00  0.00    +0.570 C 
ATOM     12  N   LIG    1       -1.191   1.870   0.018  0.00  0.00    -0.670 N 
ATOM     13  H   LIG    1       -1.205   2.837   0.092  0.00  0.00    +0.410 HD
BRANCH  12  14
ATOM     14  C   LIG    1       -2.391   1.159  -0.086  0.00  0.00    +0.170 A 
ATOM     15  C   LIG    1       -2.509  -0.095   0.499  0.00  0.00    +0.030 A 
ATOM     16  C   LIG    1       -3.696  -0.795   0.395  0.00  0.00    +0.050 A 
ATOM     17  C   LIG    1       -4.765  -0.249  -0.291  0.00  0.00    +0.000 A 
ATOM     18  C   LIG    1       -4.651   1.000  -0.876  0.00  0.00    +0.070 A 
ATOM     19  C   LIG    1       -3.469   1.708  -0.770  0.00  0.00    -0.120 A 
ATOM     20 BR   LIG    1       -3.316   3.418  -1.561  0.00  0.00    -0.040 Br
ENDBRANCH  12  14
ENDBRANCH   1  11
BRANCH   6  21
ATOM     21  N   LIG    1        7.214   3.525   0.017  0.00  0.00    -0.630 N 
ATOM     22  H   LIG    1        7.918   2.858   0.010  0.00  0.00    +0.420 HD
ATOM     23  C   LIG    1        7.528   4.836   0.027  0.00  0.00    +0.540 C 
ATOM     24  O   LIG    1        6.646   5.672   0.036  0.00  0.00    -0.420 OA
BRANCH  23  25
ATOM     25  C   LIG    1        8.944   5.256   0.029  0.00  0.00    -0.120 A 
ATOM     26  C   LIG    1        9.960   4.299   0.018  0.00  0.00    +0.050 A 
ATOM     27  C   LIG    1       11.280   4.698   0.019  0.00  0.00    +0.030 A 
ATOM     28  C   LIG    1       11.600   6.045   0.030  0.00  0.00    +0.060 A 
ATOM     29  C   LIG    1       10.599   7.000   0.040  0.00  0.00    +0.040 A 
ATOM     30  C   LIG    1        9.273   6.614   0.034  0.00  0.00    -0.040 A 
ATOM     31 BR   LIG    1        7.906   7.921   0.040  0.00  0.00    -0.000 Br
ENDBRANCH  23  25
ENDBRANCH   6  21
TORSDOF 4
