REMARK  Name = ZINCkj000005l9Gg.0
REMARK                            x       y       z     vdW  Elec       q    Type
REMARK                         _______ _______ _______ _____ _____    ______ ____
ROOT
ATOM      1  C   LIG    1       -4.753   3.085   3.455  0.00  0.00    +0.300 C 
ENDROOT
BRANCH   1   2
ATOM      2  N   LIG    1       -5.165   4.495   3.434  0.00  0.00    -0.500 N 
ATOM      3  H   LIG    1       -5.611   4.703   2.553  0.00  0.00    +0.430 HD
ATOM      4  H   LIG    1       -4.353   5.084   3.547  0.00  0.00    +0.430 HD
BRANCH   2   9
ATOM      5  C   LIG    1       -7.423   6.501   5.730  0.00  0.00    +0.160 C 
ATOM      6  C   LIG    1       -8.706   5.701   5.493  0.00  0.00    +0.070 C 
ATOM      7  C   LIG    1       -8.374   4.209   5.437  0.00  0.00    +0.050 C 
ATOM      8  C   LIG    1       -7.391   3.947   4.294  0.00  0.00    +0.040 C 
ATOM      9  C   LIG    1       -6.108   4.747   4.532  0.00  0.00    +0.150 C 
ATOM     10  C   LIG    1       -6.440   6.239   4.587  0.00  0.00    +0.080 C 
BRANCH   5  12
ATOM     11  N   LIG    1       -6.346   5.765   7.989  0.00  0.00    -0.400 NA
ATOM     12  C   LIG    1       -6.815   6.085   7.005  0.00  0.00    +0.180 C 
ENDBRANCH   5  12
ENDBRANCH   2   9
ENDBRANCH   1   2
BRANCH   1  13
ATOM     13  C   LIG    1       -3.771   2.824   2.312  0.00  0.00    -0.370 C 
BRANCH  13  14
ATOM     14  S   LIG    1       -3.263   1.082   2.337  0.00  0.00    +2.620 S 
ATOM     15  O   LIG    1       -2.465   0.813   3.482  0.00  0.00    -0.930 OA
ATOM     16  O   LIG    1       -4.353   0.240   1.990  0.00  0.00    -0.930 OA
BRANCH  14  17
ATOM     17  N   LIG    1       -2.213   0.939   1.065  0.00  0.00    -1.110 NA
ATOM     18  H   LIG    1       -2.443   0.377   0.308  0.00  0.00    +0.430 HD
BRANCH  17  19
ATOM     19  C   LIG    1       -0.939   1.661   1.081  0.00  0.00    +0.280 C 
BRANCH  19  20
ATOM     20  C   LIG    1       -0.013   1.086   0.008  0.00  0.00    -0.020 C 
ATOM     21  C   LIG    1       -0.218   1.707  -1.384  0.00  0.00    +0.010 C 
ATOM     22  C   LIG    1        1.312   1.675  -1.537  0.00  0.00    +0.010 C 
ATOM     23  C   LIG    1        1.388   1.721  -0.002  0.00  0.00    +0.020 C 
ENDBRANCH  19  20
ENDBRANCH  17  19
ENDBRANCH  14  17
ENDBRANCH  13  14
ENDBRANCH   1  13
TORSDOF 8
