REMARK  Name = ZINCbw0000000Hjm.0
REMARK                            x       y       z     vdW  Elec       q    Type
REMARK                         _______ _______ _______ _____ _____    ______ ____
ROOT
ATOM      1  C   LIG    1       -3.033   4.253   0.052  0.00  0.00    +0.100 C 
ATOM      2  C   LIG    1       -1.526   4.249   0.038  0.00  0.00    -0.060 A 
ATOM      3  C   LIG    1       -0.841   5.420   0.038  0.00  0.00    +0.070 A 
ATOM      4  C   LIG    1        0.556   5.455   0.025  0.00  0.00    -0.120 A 
ATOM      5  C   LIG    1        1.298   4.319   0.012  0.00  0.00    +0.130 A 
ATOM      6  C   LIG    1        0.651   3.065   0.012  0.00  0.00    -0.210 A 
ATOM      7  C   LIG    1        1.076   1.750   0.001  0.00  0.00    +0.290 A 
ATOM      8  N   LIG    1       -0.011   0.966   0.007  0.00  0.00    -0.420 N 
ATOM      9  H   LIG    1        0.002  -0.004   0.002  0.00  0.00    +0.450 HD
ATOM     10  N   LIG    1       -1.168   1.753   0.017  0.00  0.00    -0.300 NA
ATOM     11 BR   LIG    1        1.434   7.130   0.025  0.00  0.00    -0.050 Br
ATOM     12  C   LIG    1       -0.820   3.027   0.025  0.00  0.00    +0.110 A 
ENDROOT
TORSDOF 0
