REMARK  Name = ZINCrH00000No4O4.0
REMARK                            x       y       z     vdW  Elec       q    Type
REMARK                         _______ _______ _______ _____ _____    ______ ____
ROOT
ATOM      1  N   LIG    1        0.647   5.836   2.880  0.00  0.00    -0.740 N 
ATOM      2  H   LIG    1        0.534   5.200   3.604  0.00  0.00    +0.400 HD
ATOM      3  C   LIG    1        0.862   5.396   1.625  0.00  0.00    +0.710 C 
ATOM      4  N   LIG    1        0.919   4.072   1.375  0.00  0.00    -0.740 N 
ATOM      5  H   LIG    1        0.806   3.437   2.099  0.00  0.00    +0.400 HD
ATOM      6  O   LIG    1        1.004   6.192   0.717  0.00  0.00    -0.590 OA
ENDROOT
BRANCH   1   8
ATOM      7  C   LIG    1       -0.835   7.781   2.888  0.00  0.00    +0.040 C 
ATOM      8  C   LIG    1        0.585   7.274   3.152  0.00  0.00    +0.240 C 
BRANCH   8   9
ATOM      9  C   LIG    1        0.956   7.534   4.613  0.00  0.00    +0.330 C 
BRANCH   9  10
ATOM     10  N   LIG    1        2.266   6.942   4.897  0.00  0.00    -0.430 N 
ATOM     11  N   LIG    1        2.332   5.625   5.351  0.00  0.00    -0.240 NA
ATOM     12  C   LIG    1        3.456   5.032   5.624  0.00  0.00    +0.320 A 
ATOM     13  C   LIG    1        4.720   5.748   5.457  0.00  0.00    -0.070 A 
ATOM     14  C   LIG    1        5.949   5.148   5.739  0.00  0.00    +0.050 A 
ATOM     15  C   LIG    1        7.111   5.866   5.565  0.00  0.00    +0.050 A 
ATOM     16  C   LIG    1        7.075   7.179   5.114  0.00  0.00    +0.030 A 
ATOM     17  C   LIG    1        5.874   7.792   4.830  0.00  0.00    +0.080 A 
ATOM     18  C   LIG    1        4.685   7.085   4.998  0.00  0.00    -0.120 A 
ATOM     19  C   LIG    1        3.376   7.684   4.706  0.00  0.00    +0.530 A 
ATOM     20  O   LIG    1        3.295   8.831   4.304  0.00  0.00    -0.520 OA
ENDBRANCH   9  10
ENDBRANCH   8   9
ENDBRANCH   1   8
BRANCH   4  21
ATOM     21  C   LIG    1        1.153   3.594   0.010  0.00  0.00    +0.340 C 
BRANCH  21  22
ATOM     22  C   LIG    1        1.172   2.087   0.002  0.00  0.00    -0.100 A 
ATOM     23  C   LIG    1        2.378   1.412  -0.013  0.00  0.00    +0.070 A 
ATOM     24  C   LIG    1        2.397   0.029  -0.021  0.00  0.00    +0.030 A 
ATOM     25  C   LIG    1        1.210  -0.679  -0.013  0.00  0.00    +0.070 A 
ATOM     26  C   LIG    1        0.002  -0.004   0.002  0.00  0.00    -0.090 A 
ATOM     27 BR   LIG    1       -1.622  -0.972   0.012  0.00  0.00    -0.020 Br
ATOM     28  C   LIG    1       -0.017   1.380   0.010  0.00  0.00    -0.000 A 
ATOM     29 CL   LIG    1       -1.532   2.228   0.021  0.00  0.00    -0.030 Cl
ENDBRANCH  21  22
ENDBRANCH   4  21
TORSDOF 5
