REMARK  Name = ZINCqH00000363pX.0
REMARK                            x       y       z     vdW  Elec       q    Type
REMARK                         _______ _______ _______ _____ _____    ______ ____
ROOT
ATOM      1  C   LIG    1       -1.989   2.448   3.518  0.00  0.00    +0.280 C 
ATOM      2  C   LIG    1       -3.237   1.552   3.378  0.00  0.00    +0.050 C 
ATOM      3  C   LIG    1       -4.278   2.261   4.284  0.00  0.00    +0.040 C 
ATOM      4  C   LIG    1       -3.382   2.787   5.434  0.00  0.00    +0.250 C 
ATOM      5  N   LIG    1       -2.127   3.194   4.777  0.00  0.00    -0.620 N 
ATOM      6  C   LIG    1       -1.250   4.101   5.253  0.00  0.00    +0.530 C 
ATOM      7  O   LIG    1       -0.245   4.359   4.626  0.00  0.00    -0.500 OA
ENDROOT
BRANCH   1  12
ATOM      8  C   LIG    1        0.937   0.439   4.816  0.00  0.00    +0.100 A 
ATOM      9  C   LIG    1        1.536   0.027   3.636  0.00  0.00    -0.040 A 
ATOM     10  C   LIG    1        0.991   0.392   2.420  0.00  0.00    -0.040 A 
ATOM     11  C   LIG    1       -0.148   1.182   2.380  0.00  0.00    +0.100 A 
ATOM     12  C   LIG    1       -0.748   1.595   3.561  0.00  0.00    -0.080 A 
ATOM     13  C   LIG    1       -0.206   1.224   4.777  0.00  0.00    +0.030 A 
BRANCH   8  15
ATOM     14  C   LIG    1        2.648  -0.734   5.979  0.00  0.00    +0.230 C 
ATOM     15  O   LIG    1        1.470   0.075   6.013  0.00  0.00    -0.320 OA
ENDBRANCH   8  15
BRANCH  11  16
ATOM     16  O   LIG    1       -0.682   1.547   1.184  0.00  0.00    -0.310 OA
ATOM     17  C   LIG    1       -0.013   1.086   0.008  0.00  0.00    +0.230 C 
ENDBRANCH  11  16
ENDBRANCH   1  12
BRANCH   6  18
ATOM     18  C   LIG    1       -1.520   4.793   6.564  0.00  0.00    +0.230 C 
BRANCH  18  19
ATOM     19  O   LIG    1       -0.454   5.701   6.851  0.00  0.00    -0.290 OA
BRANCH  19  20
ATOM     20  C   LIG    1       -0.542   6.411   8.007  0.00  0.00    +0.130 A 
ATOM     21  C   LIG    1       -1.635   6.242   8.844  0.00  0.00    -0.080 A 
ATOM     22  C   LIG    1       -1.720   6.960  10.021  0.00  0.00    +0.040 A 
ATOM     23  C   LIG    1       -0.723   7.857  10.358  0.00  0.00    -0.030 A 
ATOM     24  C   LIG    1        0.365   8.032   9.522  0.00  0.00    +0.050 A 
ATOM     25  C   LIG    1        0.457   7.311   8.348  0.00  0.00    -0.110 A 
ATOM     26  C   LIG    1        1.643   7.502   7.437  0.00  0.00    +0.100 C 
ENDBRANCH  19  20
ENDBRANCH  18  19
ENDBRANCH   6  18
TORSDOF 6
