REMARK  Name = ZINCqH0000034Fwq.0
REMARK                            x       y       z     vdW  Elec       q    Type
REMARK                         _______ _______ _______ _____ _____    ______ ____
ROOT
ATOM      1  C   LIG    1        1.151   3.176   0.017  0.00  0.00    +0.170 A 
ATOM      2  C   LIG    1       -0.059   3.856   0.037  0.00  0.00    +0.030 A 
ATOM      3  C   LIG    1       -1.246   3.149   0.053  0.00  0.00    +0.030 A 
ATOM      4  C   LIG    1       -1.230   1.767   0.045  0.00  0.00    +0.000 A 
ATOM      5  C   LIG    1       -0.025   1.087   0.032  0.00  0.00    +0.060 A 
ATOM      6  C   LIG    1        1.165   1.787   0.015  0.00  0.00    -0.120 A 
ENDROOT
BRANCH   1  10
ATOM      7  C   LIG    1        4.814   5.127  -0.133  0.00  0.00    +0.290 C 
ATOM      8  N   LIG    1        3.618   5.701  -0.755  0.00  0.00    -0.630 N 
ATOM      9  C   LIG    1        2.437   5.059  -0.663  0.00  0.00    +0.710 C 
ATOM     10  N   LIG    1        2.356   3.889   0.001  0.00  0.00    -0.690 N 
ATOM     11  H   LIG    1        3.132   3.541   0.467  0.00  0.00    +0.400 HD
ATOM     12  O   LIG    1        1.444   5.536  -1.178  0.00  0.00    -0.550 OA
BRANCH   8  13
ATOM     13  C   LIG    1        3.707   6.973  -1.476  0.00  0.00    +0.400 C 
BRANCH  13  14
ATOM     14  C   LIG    1        3.450   8.111  -0.522  0.00  0.00    +0.050 A 
ATOM     15  C   LIG    1        4.511   8.759   0.084  0.00  0.00    +0.230 A 
ATOM     16  N   LIG    1        4.286   9.757   0.920  0.00  0.00    -0.440 NA
ATOM     17  C   LIG    1        3.047  10.135   1.179  0.00  0.00    +0.220 A 
ATOM     18  C   LIG    1        1.985   9.487   0.573  0.00  0.00    +0.220 A 
ATOM     19  N   LIG    1        2.210   8.492  -0.267  0.00  0.00    -0.410 NA
ENDBRANCH  13  14
ENDBRANCH   8  13
ENDBRANCH   1  10
BRANCH   6  20
ATOM     20  C   LIG    1        2.476   1.046  -0.006  0.00  0.00    +0.250 C 
BRANCH  20  21
ATOM     21  O   LIG    1        2.228  -0.362  -0.005  0.00  0.00    -0.310 OA
BRANCH  21  22
ATOM     22  C   LIG    1        3.313  -1.180  -0.024  0.00  0.00    +0.130 A 
ATOM     23  C   LIG    1        4.590  -0.639  -0.048  0.00  0.00    -0.090 A 
ATOM     24  C   LIG    1        5.692  -1.473  -0.061  0.00  0.00    +0.050 A 
ATOM     25  C   LIG    1        5.521  -2.845  -0.060  0.00  0.00    -0.040 A 
ATOM     26  C   LIG    1        4.249  -3.386  -0.042  0.00  0.00    +0.050 A 
ATOM     27  C   LIG    1        3.145  -2.557  -0.024  0.00  0.00    -0.020 A 
ENDBRANCH  21  22
ENDBRANCH  20  21
ENDBRANCH   6  20
TORSDOF 6
