REMARK  Name = ZINCrH000004uYW4.1
REMARK                            x       y       z     vdW  Elec       q    Type
REMARK                         _______ _______ _______ _____ _____    ______ ____
ROOT
ATOM      1  C   LIG    1        1.257   2.133   0.002  0.00  0.00    -0.070 A 
ATOM      2  C   LIG    1        2.417   1.372  -0.027  0.00  0.00    +0.020 A 
ATOM      3  C   LIG    1        2.323  -0.028  -0.033  0.00  0.00    +0.200 A 
ATOM      4  N   LIG    1        1.166  -0.655  -0.012  0.00  0.00    -0.450 NA
ATOM      5  C   LIG    1        0.002  -0.004   0.017  0.00  0.00    +0.130 A 
ATOM      6  C   LIG    1       -1.220  -0.702   0.039  0.00  0.00    +0.050 A 
ATOM      7  C   LIG    1       -2.391  -0.009   0.069  0.00  0.00    +0.030 A 
ATOM      8  C   LIG    1       -2.404   1.383   0.077  0.00  0.00    +0.020 A 
ATOM      9  C   LIG    1       -1.239   2.093   0.062  0.00  0.00    +0.060 A 
ATOM     10  C   LIG    1       -0.017   1.414   0.025  0.00  0.00    -0.070 A 
ENDROOT
BRANCH   3  11
ATOM     11  C   LIG    1        3.571  -0.829  -0.064  0.00  0.00    -0.060 A 
ATOM     12  C   LIG    1        4.810  -0.192  -0.093  0.00  0.00    +0.020 A 
ATOM     13  C   LIG    1        5.968  -0.942  -0.117  0.00  0.00    +0.010 A 
ATOM     14  C   LIG    1        5.900  -2.324  -0.123  0.00  0.00    +0.030 A 
ATOM     15  C   LIG    1        4.673  -2.961  -0.100  0.00  0.00    +0.010 A 
ATOM     16  C   LIG    1        3.508  -2.221  -0.071  0.00  0.00    +0.070 A 
ENDBRANCH   3  11
BRANCH   1  18
ATOM     17  O   LIG    1        0.278   4.254  -0.071  0.00  0.00    -0.520 OA
ATOM     18  C   LIG    1        1.306   3.611   0.009  0.00  0.00    +0.570 C 
ATOM     19  N   LIG    1        2.492   4.245   0.103  0.00  0.00    -0.720 N 
ATOM     20  H   LIG    1        3.312   3.732   0.166  0.00  0.00    +0.400 HD
BRANCH  19  21
ATOM     21  C   LIG    1        2.540   5.710   0.110  0.00  0.00    +0.220 C 
ATOM     22  C   LIG    1        2.336   6.223   1.538  0.00  0.00    +0.210 C 
ATOM     23  N   LIG    1        3.516   6.994   1.952  0.00  0.00    -0.530 NA
ATOM     24  C   LIG    1        4.720   6.152   1.963  0.00  0.00    +0.210 C 
ATOM     25  C   LIG    1        4.992   5.636   0.547  0.00  0.00    -0.020 C 
ATOM     26  C   LIG    1        3.706   8.171   1.093  0.00  0.00    +0.210 C 
ATOM     27  C   LIG    1        3.941   7.714  -0.367  0.00  0.00    -0.010 C 
ATOM     28  C   LIG    1        3.910   6.181  -0.394  0.00  0.00    -0.020 C 
ENDBRANCH  19  21
ENDBRANCH   1  18
TORSDOF 3
