REMARK  Name = ZINCqH0000050RxI.0
REMARK                            x       y       z     vdW  Elec       q    Type
REMARK                         _______ _______ _______ _____ _____    ______ ____
ROOT
ATOM      1  C   LIG    1        1.028  10.185   0.150  0.00  0.00    +0.510 C 
ATOM      2  N   LIG    1       -0.127   9.496   0.055  0.00  0.00    -0.670 N 
ATOM      3  H   LIG    1       -0.970   9.970  -0.012  0.00  0.00    +0.410 HD
ATOM      4  O   LIG    1        2.088   9.596   0.137  0.00  0.00    -0.490 OA
ENDROOT
BRANCH   2   5
ATOM      5  C   LIG    1       -0.108   8.098   0.052  0.00  0.00    +0.150 A 
ATOM      6  C   LIG    1        0.849   7.415   0.793  0.00  0.00    +0.020 A 
ATOM      7  C   LIG    1        0.870   6.037   0.792  0.00  0.00    +0.040 A 
ATOM      8  C   LIG    1       -0.071   5.327   0.047  0.00  0.00    -0.060 A 
ATOM      9  C   LIG    1       -1.028   6.014  -0.699  0.00  0.00    +0.040 A 
ATOM     10  C   LIG    1       -1.047   7.393  -0.691  0.00  0.00    -0.010 A 
BRANCH   8  11
ATOM     11  C   LIG    1       -0.051   3.844   0.044  0.00  0.00    -0.040 A 
ATOM     12  C   LIG    1       -0.991   3.133  -0.700  0.00  0.00    +0.020 A 
ATOM     13  C   LIG    1       -0.968   1.753  -0.699  0.00  0.00    +0.000 A 
ATOM     14  C   LIG    1       -0.014   1.076   0.039  0.00  0.00    +0.000 A 
ATOM     15  C   LIG    1        0.918   1.776   0.783  0.00  0.00    +0.000 A 
ATOM     16  C   LIG    1        0.908   3.156   0.785  0.00  0.00    +0.020 A 
ENDBRANCH   8  11
ENDBRANCH   2   5
BRANCH   1  17
ATOM     17  C   LIG    1        1.001  11.687   0.272  0.00  0.00    +0.270 C 
BRANCH  17  18
ATOM     18  O   LIG    1        2.360  12.189   0.358  0.00  0.00    -0.320 OA
BRANCH  18  19
ATOM     19  C   LIG    1        2.513  13.523   0.473  0.00  0.00    +0.560 C 
ATOM     20  O   LIG    1        1.537  14.247   0.500  0.00  0.00    -0.480 OA
BRANCH  19  27
ATOM     21  C   LIG    1        4.460  14.522  -2.003  0.00  0.00    +0.180 C 
ATOM     22  C   LIG    1        4.744  14.555  -0.523  0.00  0.00    +0.070 A 
ATOM     23  N   LIG    1        5.820  14.991   0.064  0.00  0.00    -0.350 NA
ATOM     24  O   LIG    1        5.762  14.884   1.264  0.00  0.00    +0.100 OA
ATOM     25  C   LIG    1        4.613  14.355   1.690  0.00  0.00    +0.040 A 
ATOM     26  C   LIG    1        4.217  14.086   3.119  0.00  0.00    +0.200 C 
ATOM     27  C   LIG    1        3.863  14.105   0.566  0.00  0.00    -0.250 A 
ENDBRANCH  19  27
ENDBRANCH  18  19
ENDBRANCH  17  18
ENDBRANCH   1  17
TORSDOF 6
