REMARK  Name = ZINCqH0000007RXq.0
REMARK                            x       y       z     vdW  Elec       q    Type
REMARK                         _______ _______ _______ _____ _____    ______ ____
ROOT
ATOM      1  N   LIG    1       -0.779   2.181   0.101  0.00  0.00    -0.720 N 
ATOM      2  H   LIG    1       -1.551   2.655   0.447  0.00  0.00    +0.410 HD
ATOM      3  C   LIG    1       -0.135   2.646  -0.988  0.00  0.00    +0.600 C 
ATOM      4  O   LIG    1        0.834   2.052  -1.423  0.00  0.00    -0.510 OA
ENDROOT
BRANCH   3   5
ATOM      5  C   LIG    1       -0.603   3.868  -1.650  0.00  0.00    -0.070 A 
ATOM      6  C   LIG    1       -0.047   4.446  -2.755  0.00  0.00    +0.060 A 
ATOM      7  C   LIG    1       -0.810   5.588  -3.042  0.00  0.00    -0.020 A 
ATOM      8  C   LIG    1       -1.787   5.657  -2.111  0.00  0.00    +0.020 A 
ATOM      9  O   LIG    1       -1.662   4.616  -1.277  0.00  0.00    -0.160 OA
BRANCH   8  10
ATOM     10  C   LIG    1       -2.847   6.725  -2.028  0.00  0.00    +0.240 C 
BRANCH  10  11
ATOM     11  S   LIG    1       -4.294   6.218  -2.997  0.00  0.00    -0.210 S 
BRANCH  11  12
ATOM     12  C   LIG    1       -5.439   7.607  -2.779  0.00  0.00    +0.450 C 
ATOM     13  F   LIG    1       -4.850   8.779  -3.266  0.00  0.00    -0.180 F 
ATOM     14  F   LIG    1       -5.731   7.762  -1.419  0.00  0.00    -0.180 F 
ENDBRANCH  11  12
ENDBRANCH  10  11
ENDBRANCH   8  10
ENDBRANCH   3   5
BRANCH   1  15
ATOM     15  C   LIG    1       -0.311   0.960   0.762  0.00  0.00    +0.250 C 
BRANCH  15  16
ATOM     16  C   LIG    1       -1.313   0.550   1.843  0.00  0.00    +0.220 C 
BRANCH  16  22
ATOM     17  C   LIG    1        0.226  -0.485   3.530  0.00  0.00    +0.130 A 
ATOM     18  C   LIG    1        0.712  -1.588   4.218  0.00  0.00    -0.080 A 
ATOM     19  C   LIG    1        0.190  -2.842   3.968  0.00  0.00    +0.040 A 
ATOM     20  C   LIG    1       -0.816  -2.999   3.032  0.00  0.00    -0.040 A 
ATOM     21  C   LIG    1       -1.305  -1.901   2.349  0.00  0.00    +0.080 A 
ATOM     22  C   LIG    1       -0.783  -0.646   2.592  0.00  0.00    -0.110 A 
BRANCH  17  24
ATOM     23  C   LIG    1        1.775   0.840   4.755  0.00  0.00    +0.250 C 
ATOM     24  O   LIG    1        0.738   0.750   3.776  0.00  0.00    -0.320 OA
ENDBRANCH  17  24
ENDBRANCH  16  22
BRANCH  16  25
ATOM     25  N   LIG    1       -2.596   0.205   1.216  0.00  0.00    -0.530 NA
ATOM     26  C   LIG    1       -2.390  -0.568  -0.016  0.00  0.00    +0.190 C 
ATOM     27  C   LIG    1       -3.394   1.411   0.954  0.00  0.00    +0.190 C 
ENDBRANCH  16  25
ENDBRANCH  15  16
ENDBRANCH   1  15
TORSDOF 9
