REMARK  Name = ZINCrH00000tj0S3.0
REMARK                            x       y       z     vdW  Elec       q    Type
REMARK                         _______ _______ _______ _____ _____    ______ ____
ROOT
ATOM      1  C   LIG    1       -0.330  -5.396  -0.022  0.00  0.00    +0.280 C 
ENDROOT
BRANCH   1   4
ATOM      2  C   LIG    1       -2.123  -5.561   3.077  0.00  0.00    +0.210 A 
ATOM      3  N   LIG    1       -1.044  -5.831   2.382  0.00  0.00    -0.470 NA
ATOM      4  C   LIG    1       -1.274  -5.339   1.151  0.00  0.00    +0.180 A 
ATOM      5  N   LIG    1       -2.462  -4.812   1.158  0.00  0.00    -0.360 NA
ATOM      6  O   LIG    1       -2.966  -4.929   2.255  0.00  0.00    +0.080 OA
BRANCH   2   9
ATOM      7  C   LIG    1       -2.636  -4.745   5.488  0.00  0.00    +0.170 C 
ATOM      8  C   LIG    1       -3.777  -5.677   5.075  0.00  0.00    +0.080 C 
ATOM      9  C   LIG    1       -2.368  -5.903   4.524  0.00  0.00    +0.080 C 
BRANCH   7  10
ATOM     10  O   LIG    1       -2.135  -4.867   6.820  0.00  0.00    -0.340 OA
BRANCH  10  12
ATOM     11  C   LIG    1       -3.049  -2.734   7.498  0.00  0.00    +0.020 C 
ATOM     12  C   LIG    1       -1.802  -3.619   7.432  0.00  0.00    +0.110 C 
ATOM     13  C   LIG    1       -0.722  -2.917   6.606  0.00  0.00    +0.020 C 
ATOM     14  C   LIG    1       -1.279  -3.868   8.848  0.00  0.00    +0.070 C 
ENDBRANCH  10  12
ENDBRANCH   7  10
ENDBRANCH   2   9
ENDBRANCH   1   4
BRANCH   1  15
ATOM     15  C   LIG    1        0.542  -4.166  -0.025  0.00  0.00    +0.080 A 
ATOM     16  N   LIG    1        0.120  -2.927  -0.014  0.00  0.00    -0.260 NA
ATOM     17  N   LIG    1        1.239  -2.084  -0.021  0.00  0.00    -0.320 N 
ATOM     18  C   LIG    1        2.345  -2.861  -0.041  0.00  0.00    +0.240 A 
ATOM     19  C   LIG    1        1.941  -4.153  -0.037  0.00  0.00    -0.080 A 
BRANCH  17  20
ATOM     20  C   LIG    1        1.216  -0.681  -0.013  0.00  0.00    +0.090 A 
ATOM     21  C   LIG    1        0.002  -0.004   0.002  0.00  0.00    +0.130 A 
ATOM     22  C   LIG    1       -0.017   1.379   0.010  0.00  0.00    +0.010 A 
ATOM     23  C   LIG    1        1.170   2.089   0.002  0.00  0.00    +0.080 A 
ATOM     24  C   LIG    1        2.380   1.419  -0.013  0.00  0.00    +0.030 A 
ATOM     25  F   LIG    1       -1.158  -0.696   0.009  0.00  0.00    -0.100 F 
ATOM     26  C   LIG    1        2.407   0.036  -0.021  0.00  0.00    +0.110 A 
ATOM     27  F   LIG    1        3.589  -0.618  -0.035  0.00  0.00    -0.120 F 
ENDBRANCH  17  20
ENDBRANCH   1  15
TORSDOF 6
