REMARK  Name = ZINCrH000004v9Nz.0
REMARK                            x       y       z     vdW  Elec       q    Type
REMARK                         _______ _______ _______ _____ _____    ______ ____
ROOT
ATOM      1  O   LIG    1        0.138  -2.693   0.306  0.00  0.00    -0.550 OA
ATOM      2  C   LIG    1       -0.966  -2.201   0.164  0.00  0.00    +0.710 C 
ATOM      3  N   LIG    1       -1.111  -0.861   0.167  0.00  0.00    -0.650 N 
ATOM      4  H   LIG    1       -1.991  -0.468   0.055  0.00  0.00    +0.410 HD
ATOM      5  N   LIG    1       -2.042  -2.995   0.005  0.00  0.00    -0.680 N 
ATOM      6  H   LIG    1       -2.931  -2.607  -0.031  0.00  0.00    +0.410 HD
ENDROOT
BRANCH   5   7
ATOM      7  C   LIG    1       -1.879  -4.382  -0.110  0.00  0.00    +0.170 A 
ATOM      8  C   LIG    1       -2.847  -5.239   0.396  0.00  0.00    +0.000 A 
ATOM      9  C   LIG    1       -2.690  -6.608   0.284  0.00  0.00    +0.050 A 
ATOM     10  C   LIG    1       -1.563  -7.123  -0.333  0.00  0.00    +0.050 A 
ATOM     11  O   LIG    1       -1.398  -8.474  -0.447  0.00  0.00    -0.320 OA
ATOM     12  C   LIG    1       -1.474  -9.003  -1.772  0.00  0.00    +0.220 C 
ATOM     13  C   LIG    1       -0.130  -8.892  -2.475  0.00  0.00    -0.020 C 
ATOM     14  C   LIG    1        0.292  -7.448  -2.694  0.00  0.00    +0.230 C 
ATOM     15  O   LIG    1        0.514  -6.790  -1.445  0.00  0.00    -0.320 OA
ATOM     16  C   LIG    1       -0.593  -6.269  -0.839  0.00  0.00    +0.090 A 
ATOM     17  C   LIG    1       -0.751  -4.899  -0.735  0.00  0.00    +0.030 A 
ENDBRANCH   5   7
BRANCH   3  18
ATOM     18  C   LIG    1        0.014  -0.031   0.334  0.00  0.00    +0.020 A 
ATOM     19  C   LIG    1        0.010   1.327   0.357  0.00  0.00    +0.200 A 
ATOM     20  N   LIG    1        1.292   1.738   0.537  0.00  0.00    -0.370 N 
ATOM     21  N   LIG    1        2.100   0.597   0.627  0.00  0.00    -0.270 NA
ATOM     22  C   LIG    1        1.338  -0.459   0.506  0.00  0.00    +0.260 A 
BRANCH  20  23
ATOM     23  C   LIG    1        1.748   3.127   0.622  0.00  0.00    +0.370 C 
BRANCH  23  24
ATOM     24  C   LIG    1        2.515   3.327   1.904  0.00  0.00    -0.110 A 
ATOM     25  C   LIG    1        1.853   3.723   3.051  0.00  0.00    +0.020 A 
ATOM     26  C   LIG    1        2.555   3.901   4.228  0.00  0.00    +0.000 A 
ATOM     27  C   LIG    1        3.922   3.693   4.256  0.00  0.00    +0.010 A 
ATOM     28  C   LIG    1        4.585   3.303   3.107  0.00  0.00    +0.010 A 
ATOM     29  C   LIG    1        3.881   3.119   1.932  0.00  0.00    +0.040 A 
ENDBRANCH  23  24
ENDBRANCH  20  23
ENDBRANCH   3  18
TORSDOF 4
