REMARK  Name = ZINCtV000002qRDf.0
REMARK                            x       y       z     vdW  Elec       q    Type
REMARK                         _______ _______ _______ _____ _____    ______ ____
ROOT
ATOM      1  C   LIG    1        3.641   2.155  -0.024  0.00  0.00    -0.070 A 
ATOM      2  C   LIG    1        4.804   1.399  -0.043  0.00  0.00    +0.070 A 
ATOM      3  C   LIG    1        4.715  -0.002  -0.047  0.00  0.00    +0.190 A 
ATOM      4  N   LIG    1        3.561  -0.633  -0.032  0.00  0.00    -0.440 NA
ATOM      5  C   LIG    1        2.394   0.013  -0.013  0.00  0.00    +0.130 A 
ATOM      6  C   LIG    1        1.175  -0.689   0.004  0.00  0.00    +0.050 A 
ATOM      7  C   LIG    1        0.000  -0.001   0.024  0.00  0.00    +0.040 A 
ATOM      8  C   LIG    1       -0.018   1.391   0.028  0.00  0.00    +0.030 A 
ATOM      9  C   LIG    1        1.144   2.105   0.013  0.00  0.00    +0.050 A 
ATOM     10  C   LIG    1        2.369   1.431  -0.007  0.00  0.00    -0.060 A 
ENDROOT
BRANCH   3  11
ATOM     11  C   LIG    1        5.966  -0.798  -0.067  0.00  0.00    -0.060 A 
ATOM     12  C   LIG    1        7.204  -0.157  -0.089  0.00  0.00    +0.030 A 
ATOM     13  C   LIG    1        8.364  -0.903  -0.102  0.00  0.00    +0.010 A 
ATOM     14  C   LIG    1        8.301  -2.285  -0.105  0.00  0.00    +0.030 A 
ATOM     15  C   LIG    1        7.076  -2.927  -0.090  0.00  0.00    +0.000 A 
ATOM     16  C   LIG    1        5.909  -2.191  -0.070  0.00  0.00    +0.070 A 
ENDBRANCH   3  11
BRANCH   1  17
ATOM     17  C   LIG    1        3.684   3.632  -0.019  0.00  0.00    +0.510 C 
ATOM     18  O   LIG    1        2.655   4.270  -0.107  0.00  0.00    -0.470 OA
BRANCH  17  19
ATOM     19  O   LIG    1        4.866   4.271   0.082  0.00  0.00    -0.280 OA
BRANCH  19  23
ATOM     20  C   LIG    1        4.753   8.382   0.408  0.00  0.00    -0.060 A 
ATOM     21  C   LIG    1        4.419   7.594   1.494  0.00  0.00    +0.030 A 
ATOM     22  C   LIG    1        4.456   6.217   1.388  0.00  0.00    +0.010 A 
ATOM     23  C   LIG    1        4.828   5.625   0.190  0.00  0.00    +0.070 A 
ATOM     24  C   LIG    1        5.168   6.418  -0.897  0.00  0.00    +0.020 A 
ATOM     25  C   LIG    1        5.124   7.794  -0.787  0.00  0.00    +0.030 A 
BRANCH  20  27
ATOM     26  C   LIG    1        5.680  10.335   1.624  0.00  0.00    +0.040 C 
ATOM     27  C   LIG    1        4.712   9.884   0.528  0.00  0.00    -0.030 C 
ATOM     28  C   LIG    1        3.293  10.329   0.886  0.00  0.00    +0.040 C 
ATOM     29  C   LIG    1        5.123  10.512  -0.805  0.00  0.00    +0.030 C 
ENDBRANCH  20  27
ENDBRANCH  19  23
ENDBRANCH  17  19
ENDBRANCH   1  17
TORSDOF 5
