REMARK  Name = ZINCrg000000qcGH.0
REMARK                            x       y       z     vdW  Elec       q    Type
REMARK                         _______ _______ _______ _____ _____    ______ ____
ROOT
ATOM      1  N   LIG    1        1.154   3.498   0.027  0.00  0.00    -0.520 N 
ATOM      2  C   LIG    1        1.189   2.115   0.002  0.00  0.00    +0.220 A 
ATOM      3  C   LIG    1        2.397   1.428  -0.021  0.00  0.00    -0.040 A 
ATOM      4  C   LIG    1        2.401   0.049  -0.031  0.00  0.00    +0.080 A 
ATOM      5  C   LIG    1        1.212  -0.665  -0.018  0.00  0.00    -0.030 A 
ATOM      6  C   LIG    1        0.002  -0.004   0.002  0.00  0.00    +0.110 A 
ATOM      7  C   LIG    1       -0.017   1.388   0.010  0.00  0.00    -0.200 A 
ATOM      8  C   LIG    1       -1.285   2.148   0.020  0.00  0.00    +0.440 A 
ATOM      9  C   LIG    1       -1.203   3.534  -0.485  0.00  0.00    -0.200 A 
ATOM     10  C   LIG    1       -2.324   4.202  -0.972  0.00  0.00    +0.110 A 
ATOM     11  C   LIG    1       -2.194   5.491  -1.441  0.00  0.00    -0.030 A 
ATOM     12  C   LIG    1       -0.957   6.120  -1.430  0.00  0.00    +0.080 A 
ATOM     13  C   LIG    1        0.161   5.471  -0.949  0.00  0.00    -0.040 A 
ATOM     14  O   LIG    1       -2.329   1.664   0.419  0.00  0.00    -0.460 OA
ATOM     15  C   LIG    1        0.052   4.171  -0.469  0.00  0.00    +0.220 A 
ENDROOT
BRANCH   1  16
ATOM     16  C   LIG    1        2.284   4.249   0.579  0.00  0.00    +0.330 C 
BRANCH  16  19
ATOM     17  N   LIG    1        4.401   5.232  -0.242  0.00  0.00    -0.720 N 
ATOM     18  H   LIG    1        4.574   5.535   0.663  0.00  0.00    +0.410 HD
ATOM     19  C   LIG    1        3.274   4.545  -0.518  0.00  0.00    +0.490 C 
ATOM     20  O   LIG    1        3.057   4.166  -1.649  0.00  0.00    -0.510 OA
BRANCH  17  21
ATOM     21  C   LIG    1        5.363   5.520  -1.308  0.00  0.00    +0.300 C 
BRANCH  21  24
ATOM     22  N   LIG    1        7.540   6.670  -1.543  0.00  0.00    -0.720 N 
ATOM     23  H   LIG    1        7.522   6.444  -2.486  0.00  0.00    +0.410 HD
ATOM     24  C   LIG    1        6.526   6.293  -0.741  0.00  0.00    +0.510 C 
ATOM     25  O   LIG    1        6.548   6.575   0.439  0.00  0.00    -0.540 OA
BRANCH  22  26
ATOM     26  C   LIG    1        8.671   7.421  -0.991  0.00  0.00    +0.290 C 
BRANCH  26  27
ATOM     27  C   LIG    1        9.676   7.722  -2.105  0.00  0.00    +0.180 C 
BRANCH  27  29
ATOM     28  C   LIG    1        9.935   8.938  -4.154  0.00  0.00    +0.200 C 
ATOM     29  O   LIG    1        9.075   8.593  -3.066  0.00  0.00    -0.390 OA
ENDBRANCH  27  29
ENDBRANCH  26  27
ENDBRANCH  22  26
ENDBRANCH  21  24
ENDBRANCH  17  21
ENDBRANCH  16  19
ENDBRANCH   1  16
TORSDOF 7
