REMARK  Name = ZINCvU00000004iY.0
REMARK                            x       y       z     vdW  Elec       q    Type
REMARK                         _______ _______ _______ _____ _____    ______ ____
ROOT
ATOM      1  C   LIG    1       -0.677   0.589  -0.640  0.00  0.00    +0.510 A 
ATOM      2  N   LIG    1        0.499   0.016  -0.658  0.00  0.00    -0.520 NA
ATOM      3  C   LIG    1        1.454   0.971  -0.487  0.00  0.00    +0.040 A 
ATOM      4  C   LIG    1        2.847   0.941  -0.423  0.00  0.00    +0.200 A 
ATOM      5  C   LIG    1        3.548   2.113  -0.237  0.00  0.00    -0.670 A 
ATOM      6  C   LIG    1        2.878   3.319  -0.113  0.00  0.00    +0.140 A 
ATOM      7  C   LIG    1        1.499   3.363  -0.174  0.00  0.00    +0.060 A 
ATOM      8  C   LIG    1        0.779   2.195  -0.361  0.00  0.00    +0.050 A 
ATOM      9  O   LIG    1       -0.541   1.915  -0.461  0.00  0.00    -0.220 OA
ENDROOT
BRANCH   5  10
ATOM     10  S   LIG    1        5.308   2.077  -0.157  0.00  0.00    +2.700 S 
ATOM     11  O   LIG    1        5.665   0.759   0.239  0.00  0.00    -0.940 OA
ATOM     12  O   LIG    1        5.701   3.238   0.562  0.00  0.00    -0.940 OA
BRANCH  10  13
ATOM     13  N   LIG    1        5.873   2.270  -1.701  0.00  0.00    -1.050 N 
ATOM     14  H   LIG    1        6.423   1.582  -2.106  0.00  0.00    +0.430 HD
BRANCH  13  15
ATOM     15  C   LIG    1        5.558   3.426  -2.421  0.00  0.00    +0.170 A 
ATOM     16  C   LIG    1        5.464   4.648  -1.769  0.00  0.00    +0.010 A 
ATOM     17  C   LIG    1        5.152   5.789  -2.484  0.00  0.00    +0.060 A 
ATOM     18  C   LIG    1        4.934   5.715  -3.847  0.00  0.00    +0.020 A 
ATOM     19  C   LIG    1        5.027   4.499  -4.500  0.00  0.00    +0.050 A 
ATOM     20  C   LIG    1        5.344   3.355  -3.793  0.00  0.00    -0.060 A 
ATOM     21 CL   LIG    1        5.467   1.831  -4.615  0.00  0.00    -0.060 Cl
ENDBRANCH  13  15
ENDBRANCH  10  13
ENDBRANCH   5  10
BRANCH   1  22
ATOM     22  N   LIG    1       -1.878  -0.069  -0.785  0.00  0.00    -0.610 N 
ATOM     23  H   LIG    1       -1.890  -1.021  -0.973  0.00  0.00    +0.440 HD
BRANCH  22  27
ATOM     24  C   LIG    1       -5.462   2.035  -0.421  0.00  0.00    +0.090 A 
ATOM     25  C   LIG    1       -4.348   2.651  -0.966  0.00  0.00    +0.000 A 
ATOM     26  C   LIG    1       -3.160   1.955  -1.087  0.00  0.00    +0.000 A 
ATOM     27  C   LIG    1       -3.082   0.635  -0.662  0.00  0.00    +0.150 A 
ATOM     28  C   LIG    1       -4.198   0.013  -0.119  0.00  0.00    -0.040 A 
ATOM     29  C   LIG    1       -5.387   0.712   0.006  0.00  0.00    +0.130 A 
BRANCH  24  31
ATOM     30  C   LIG    1       -6.637   4.076  -0.761  0.00  0.00    +0.240 C 
ATOM     31  O   LIG    1       -6.631   2.722  -0.303  0.00  0.00    -0.300 OA
ENDBRANCH  24  31
BRANCH  29  32
ATOM     32  O   LIG    1       -6.480   0.106   0.542  0.00  0.00    -0.300 OA
ATOM     33  C   LIG    1       -6.330  -1.252   0.959  0.00  0.00    +0.240 C 
ENDBRANCH  29  32
ENDBRANCH  22  27
ENDBRANCH   1  22
TORSDOF 7
