REMARK  Name = ZINC650000002raU.0
REMARK                            x       y       z     vdW  Elec       q    Type
REMARK                         _______ _______ _______ _____ _____    ______ ____
ROOT
ATOM      1  C   LIG    1        0.478   3.544  -1.291  0.00  0.00    +0.040 C 
ATOM      2  C   LIG    1        1.145   3.085   0.008  0.00  0.00    -0.020 C 
ENDROOT
BRANCH   2   3
ATOM      3  C   LIG    1        1.286   1.562  -0.002  0.00  0.00    +0.200 C 
BRANCH   3   4
ATOM      4  O   LIG    1       -0.011   0.963   0.007  0.00  0.00    -0.570 OA
ATOM      5  H   LIG    1        0.002  -0.004   0.002  0.00  0.00    +0.400 HD
ENDBRANCH   3   4
ENDBRANCH   2   3
BRANCH   2   6
ATOM      6  C   LIG    1        2.530   3.725   0.124  0.00  0.00    +0.280 C 
BRANCH   6   7
ATOM      7  N   LIG    1        2.387   5.181   0.253  0.00  0.00    -0.640 N 
ATOM      8  H   LIG    1        1.914   5.547  -0.560  0.00  0.00    +0.430 HD
ATOM      9  H   LIG    1        3.300   5.604   0.330  0.00  0.00    +0.440 HD
ATOM     10  H   LIG    1        1.848   5.394   1.079  0.00  0.00    +0.440 HD
ENDBRANCH   6   7
ENDBRANCH   2   6
TORSDOF 4
