REMARK  Name = ZINCrg000000nLmt.0
REMARK                            x       y       z     vdW  Elec       q    Type
REMARK                         _______ _______ _______ _____ _____    ______ ____
ROOT
ATOM      1  N   LIG    1       -4.043   2.053   5.123  0.00  0.00    -0.540 N 
ATOM      2  C   LIG    1       -4.310   3.278   5.611  0.00  0.00    +0.710 A 
ATOM      3  N   LIG    1       -4.153   4.379   4.855  0.00  0.00    -0.660 N 
ATOM      4  H   LIG    1       -4.352   5.251   5.230  0.00  0.00    +0.430 HD
ATOM      5  C   LIG    1       -3.723   4.284   3.581  0.00  0.00    +0.570 A 
ATOM      6  C   LIG    1       -3.435   3.018   3.038  0.00  0.00    -0.150 A 
ATOM      7  O   LIG    1       -3.585   5.289   2.904  0.00  0.00    -0.530 OA
ATOM      8  O   LIG    1       -4.700   3.392   6.758  0.00  0.00    -0.540 OA
ATOM      9  C   LIG    1       -3.606   1.900   3.828  0.00  0.00    +0.510 A 
ENDROOT
BRANCH   6  10
ATOM     10  N   LIG    1       -2.983   2.895   1.707  0.00  0.00    -0.510 N 
ATOM     11  C   LIG    1       -1.754   2.400   1.455  0.00  0.00    +0.510 C 
ATOM     12  O   LIG    1       -1.004   2.141   2.373  0.00  0.00    -0.510 OA
BRANCH  11  13
ATOM     13  C   LIG    1       -1.311   2.168   0.033  0.00  0.00    +0.110 C 
BRANCH  13  14
ATOM     14  C   LIG    1        0.090   1.615   0.027  0.00  0.00    -0.070 A 
ATOM     15  C   LIG    1        1.168   2.466  -0.131  0.00  0.00    +0.020 A 
ATOM     16  C   LIG    1        2.454   1.958  -0.143  0.00  0.00    +0.000 A 
ATOM     17  C   LIG    1        2.662   0.599   0.003  0.00  0.00    +0.010 A 
ATOM     18  C   LIG    1        1.584  -0.252   0.161  0.00  0.00    +0.000 A 
ATOM     19  C   LIG    1        0.298   0.256   0.173  0.00  0.00    -0.070 A 
ATOM     20  C   LIG    1       -0.877  -0.672   0.345  0.00  0.00    +0.080 C 
ENDBRANCH  13  14
ENDBRANCH  11  13
BRANCH  10  21
ATOM     21  C   LIG    1       -3.849   3.304   0.599  0.00  0.00    +0.310 C 
BRANCH  21  22
ATOM     22  C   LIG    1       -4.686   2.108   0.137  0.00  0.00    +0.160 C 
BRANCH  22  23
ATOM     23  O   LIG    1       -5.573   1.715   1.185  0.00  0.00    -0.380 OA
ATOM     24  C   LIG    1       -6.404   0.600   0.856  0.00  0.00    +0.190 C 
ENDBRANCH  22  23
ENDBRANCH  21  22
ENDBRANCH  10  21
ENDBRANCH   6  10
BRANCH   9  25
ATOM     25  N   LIG    1       -3.340   0.648   3.328  0.00  0.00    -0.820 N 
ATOM     26  H   LIG    1       -3.389  -0.127   3.909  0.00  0.00    +0.410 HD
ATOM     27  H   LIG    1       -3.103   0.539   2.393  0.00  0.00    +0.420 HD
ENDBRANCH   9  25
BRANCH   1  28
ATOM     28  C   LIG    1       -4.224   0.875   5.975  0.00  0.00    +0.300 C 
BRANCH  28  30
ATOM     29  C   LIG    1       -5.840  -0.883   6.708  0.00  0.00    +0.030 C 
ATOM     30  C   LIG    1       -5.651   0.347   5.819  0.00  0.00    +0.010 C 
ENDBRANCH  28  30
ENDBRANCH   1  28
TORSDOF 9
