REMARK  Name = ZINCpe00000gMOMX.0
REMARK                            x       y       z     vdW  Elec       q    Type
REMARK                         _______ _______ _______ _____ _____    ______ ____
ROOT
ATOM      1  C   LIG    1        0.039   3.088   6.677  0.00  0.00    +0.520 C 
ATOM      2  N   LIG    1        1.217   3.098   7.332  0.00  0.00    -0.690 N 
ATOM      3  H   LIG    1        2.029   2.830   6.875  0.00  0.00    +0.420 HD
ATOM      4  O   LIG    1       -0.977   3.423   7.249  0.00  0.00    -0.500 OA
ENDROOT
BRANCH   2   5
ATOM      5  C   LIG    1        1.270   3.513   8.736  0.00  0.00    +0.260 C 
ATOM      6  C   LIG    1        1.420   5.047   8.854  0.00  0.00    +0.050 C 
ATOM      7  C   LIG    1        2.338   5.240  10.041  0.00  0.00    +0.520 C 
ATOM      8  N   LIG    1        2.964   4.087  10.334  0.00  0.00    -0.610 N 
ATOM      9  O   LIG    1        2.487   6.283  10.642  0.00  0.00    -0.520 OA
ATOM     10  C   LIG    1        2.568   3.016   9.410  0.00  0.00    +0.270 C 
BRANCH   8  11
ATOM     11  C   LIG    1        3.917   3.919  11.433  0.00  0.00    +0.360 C 
BRANCH  11  12
ATOM     12  C   LIG    1        3.179   3.505  12.680  0.00  0.00    -0.120 A 
ATOM     13  C   LIG    1        2.703   4.466  13.553  0.00  0.00    +0.030 A 
ATOM     14  C   LIG    1        2.023   4.086  14.694  0.00  0.00    +0.000 A 
ATOM     15  C   LIG    1        1.825   2.746  14.968  0.00  0.00    +0.010 A 
ATOM     16  C   LIG    1        2.305   1.785  14.097  0.00  0.00    +0.000 A 
ATOM     17  C   LIG    1        2.982   2.165  12.954  0.00  0.00    +0.010 A 
ENDBRANCH  11  12
ENDBRANCH   8  11
ENDBRANCH   2   5
BRANCH   1  20
ATOM     18  N   LIG    1       -1.193   2.655   4.589  0.00  0.00    -0.600 N 
ATOM     19  H   LIG    1       -2.005   2.923   5.047  0.00  0.00    +0.430 HD
ATOM     20  C   LIG    1       -0.015   2.665   5.245  0.00  0.00    +0.520 C 
ATOM     21  O   LIG    1        1.001   2.330   4.672  0.00  0.00    -0.490 OA
BRANCH  18  25
ATOM     22  C   LIG    1       -0.013   1.086   0.008  0.00  0.00    +0.200 C 
ATOM     23  C   LIG    1       -0.718   1.572   1.248  0.00  0.00    -0.010 A 
ATOM     24  C   LIG    1       -0.152   1.842   2.446  0.00  0.00    -0.040 A 
ATOM     25  C   LIG    1       -1.243   2.260   3.254  0.00  0.00    +0.240 A 
ATOM     26  N   LIG    1       -2.305   2.201   2.493  0.00  0.00    -0.380 NA
ATOM     27  O   LIG    1       -2.028   1.826   1.377  0.00  0.00    +0.110 OA
ENDBRANCH  18  25
ENDBRANCH   1  20
TORSDOF 5
