REMARK  Name = ZINCrH000004mTmy.0
REMARK                            x       y       z     vdW  Elec       q    Type
REMARK                         _______ _______ _______ _____ _____    ______ ____
ROOT
ATOM      1  N   LIG    1        2.513   4.492   1.458  0.00  0.00    -0.490 NA
ENDROOT
BRANCH   1   2
ATOM      2  C   LIG    1        1.512   5.488   1.864  0.00  0.00    +0.090 C 
ATOM      3  C   LIG    1        0.623   5.149   3.062  0.00  0.00    +0.030 C 
ATOM      4  C   LIG    1        0.038   5.137   1.649  0.00  0.00    +0.030 C 
ENDBRANCH   1   2
BRANCH   1   5
ATOM      5  C   LIG    1        2.483   4.277   0.005  0.00  0.00    +0.250 C 
BRANCH   5  10
ATOM      6  C   LIG    1        4.974   1.706  -1.206  0.00  0.00    +0.090 A 
ATOM      7  C   LIG    1        4.311   0.522  -0.922  0.00  0.00    -0.040 A 
ATOM      8  C   LIG    1        3.063   0.554  -0.330  0.00  0.00    -0.040 A 
ATOM      9  C   LIG    1        2.469   1.770  -0.030  0.00  0.00    +0.120 A 
ATOM     10  C   LIG    1        3.129   2.955  -0.320  0.00  0.00    -0.080 A 
ATOM     11  C   LIG    1        4.379   2.923  -0.907  0.00  0.00    +0.030 A 
BRANCH   6  13
ATOM     12  C   LIG    1        6.756   0.387  -2.065  0.00  0.00    +0.230 C 
ATOM     13  O   LIG    1        6.204   1.675  -1.784  0.00  0.00    -0.320 OA
ENDBRANCH   6  13
BRANCH   9  14
ATOM     14  O   LIG    1        1.238   1.802   0.548  0.00  0.00    -0.300 OA
ATOM     15  C   LIG    1        0.663   0.547   0.919  0.00  0.00    +0.230 C 
ENDBRANCH   9  14
ENDBRANCH   5  10
ENDBRANCH   1   5
BRANCH   1  16
ATOM     16  C   LIG    1        3.856   4.883   1.906  0.00  0.00    +0.210 C 
BRANCH  16  17
ATOM     17  C   LIG    1        3.913   4.855   3.434  0.00  0.00    -0.310 C 
BRANCH  17  18
ATOM     18  S   LIG    1        5.572   5.338   3.987  0.00  0.00    +2.490 S 
ATOM     19  O   LIG    1        5.811   6.711   3.707  0.00  0.00    -0.930 OA
ATOM     20  O   LIG    1        6.524   4.343   3.637  0.00  0.00    -0.930 OA
BRANCH  18  21
ATOM     21  C   LIG    1        5.489   5.262   5.745  0.00  0.00    -0.660 A 
ATOM     22  C   LIG    1        5.118   6.380   6.469  0.00  0.00    +0.140 A 
ATOM     23  C   LIG    1        5.048   6.319   7.848  0.00  0.00    +0.020 A 
ATOM     24  C   LIG    1        5.362   5.142   8.505  0.00  0.00    +0.020 A 
ATOM     25  C   LIG    1        5.739   4.025   7.780  0.00  0.00    +0.020 A 
ATOM     26 CL   LIG    1        5.282   5.067  10.237  0.00  0.00    -0.050 Cl
ATOM     27  C   LIG    1        5.802   4.086   6.401  0.00  0.00    +0.140 A 
ENDBRANCH  18  21
ENDBRANCH  17  18
ENDBRANCH  16  17
ENDBRANCH   1  16
TORSDOF 9
