REMARK  Name = ZINCqH0000007UfS.0
REMARK                            x       y       z     vdW  Elec       q    Type
REMARK                         _______ _______ _______ _____ _____    ______ ____
ROOT
ATOM      1  C   LIG    1       -0.213   3.287  -4.505  0.00  0.00    +0.080 A 
ATOM      2  C   LIG    1       -1.234   3.443  -5.386  0.00  0.00    +0.090 A 
ATOM      3  N   LIG    1       -2.350   2.931  -4.799  0.00  0.00    -0.220 N 
ATOM      4  N   LIG    1       -2.067   2.477  -3.631  0.00  0.00    -0.240 NA
ATOM      5  C   LIG    1       -0.784   2.650  -3.373  0.00  0.00    -0.000 A 
ENDROOT
BRANCH   5   6
ATOM      6  C   LIG    1       -0.078   2.261  -2.138  0.00  0.00    +0.600 C 
ATOM      7  N   LIG    1       -0.772   1.778  -1.089  0.00  0.00    -0.600 N 
ATOM      8  C   LIG    1       -2.241   1.775  -1.101  0.00  0.00    +0.270 C 
ATOM      9  C   LIG    1       -2.746   2.478   0.163  0.00  0.00    -0.000 C 
ATOM     10  C   LIG    1       -2.126   1.813   1.394  0.00  0.00    +0.020 C 
ATOM     11  C   LIG    1       -0.600   1.953   1.340  0.00  0.00    -0.040 C 
ATOM     12  C   LIG    1        0.020   1.316   2.586  0.00  0.00    +0.030 C 
ATOM     13  C   LIG    1       -0.074   1.244   0.088  0.00  0.00    +0.280 C 
ATOM     14  O   LIG    1        1.130   2.377  -2.067  0.00  0.00    -0.520 OA
ENDBRANCH   5   6
BRANCH   3  15
ATOM     15  C   LIG    1       -3.624   2.905  -5.382  0.00  0.00    +0.140 A 
ATOM     16  C   LIG    1       -3.818   3.431  -6.652  0.00  0.00    +0.050 A 
ATOM     17  C   LIG    1       -5.074   3.399  -7.227  0.00  0.00    +0.060 A 
ATOM     18  C   LIG    1       -6.139   2.852  -6.535  0.00  0.00    +0.080 A 
ATOM     19  C   LIG    1       -5.949   2.332  -5.268  0.00  0.00    -0.160 A 
ATOM     20  C   LIG    1       -4.696   2.357  -4.690  0.00  0.00    +0.090 A 
BRANCH  19  21
ATOM     21  C   LIG    1       -7.113   1.737  -4.517  0.00  0.00    +0.510 C 
ATOM     22  F   LIG    1       -6.652   0.726  -3.667  0.00  0.00    -0.170 F 
ATOM     23  F   LIG    1       -8.029   1.199  -5.427  0.00  0.00    -0.170 F 
ATOM     24  F   LIG    1       -7.738   2.734  -3.760  0.00  0.00    -0.170 F 
ENDBRANCH  19  21
ENDBRANCH   3  15
BRANCH   1  26
ATOM     25  C   LIG    1        1.423   4.291  -5.910  0.00  0.00    +0.250 C 
ATOM     26  O   LIG    1        1.084   3.660  -4.673  0.00  0.00    -0.270 OA
ENDBRANCH   1  26
TORSDOF 4
