REMARK  Name = ZINCqH0000000oi5.0
REMARK                            x       y       z     vdW  Elec       q    Type
REMARK                         _______ _______ _______ _____ _____    ______ ____
ROOT
ATOM      1  C   LIG    1       -1.765   2.393  -1.440  0.00  0.00    +0.060 C 
ENDROOT
BRANCH   1  13
ATOM      2  C   LIG    1       -4.254   0.934   2.195  0.00  0.00    +0.100 C 
ATOM      3  C   LIG    1       -3.222   1.805   1.527  0.00  0.00    +0.510 C 
ATOM      4  N   LIG    1       -2.348   1.267   0.654  0.00  0.00    -0.560 N 
ATOM      5  C   LIG    1       -2.398  -0.092   0.368  0.00  0.00    +0.240 C 
ATOM      6  C   LIG    1       -1.272  -0.746   0.060  0.00  0.00    -0.040 C 
ATOM      7  C   LIG    1        0.002  -0.004   0.002  0.00  0.00    -0.030 A 
ATOM      8  C   LIG    1        1.220  -0.681  -0.038  0.00  0.00    +0.020 A 
ATOM      9  C   LIG    1        2.400   0.037  -0.053  0.00  0.00    +0.010 A 
ATOM     10  C   LIG    1        2.374   1.420  -0.029  0.00  0.00    +0.000 A 
ATOM     11  C   LIG    1        1.166   2.098   0.002  0.00  0.00    +0.030 A 
ATOM     12  C   LIG    1       -0.017   1.393   0.010  0.00  0.00    -0.100 A 
ATOM     13  C   LIG    1       -1.342   2.113   0.003  0.00  0.00    +0.320 C 
ATOM     14  O   LIG    1       -3.177   2.992   1.776  0.00  0.00    -0.480 OA
ENDBRANCH   1  13
BRANCH   1  15
ATOM     15  C   LIG    1       -3.026   3.219  -1.443  0.00  0.00    +0.500 C 
ATOM     16  N   LIG    1       -3.587   3.589  -2.611  0.00  0.00    -0.720 N 
ATOM     17  H   LIG    1       -3.179   3.324  -3.451  0.00  0.00    +0.400 HD
ATOM     18  O   LIG    1       -3.536   3.551  -0.394  0.00  0.00    -0.500 OA
BRANCH  16  19
ATOM     19  C   LIG    1       -4.812   4.392  -2.614  0.00  0.00    +0.290 C 
ATOM     20  C   LIG    1       -5.557   4.229  -3.956  0.00  0.00    +0.040 C 
ATOM     21  C   LIG    1       -4.999   5.402  -4.789  0.00  0.00    +0.080 C 
ATOM     22  C   LIG    1       -4.583   6.446  -3.775  0.00  0.00    -0.090 A 
ATOM     23  C   LIG    1       -4.319   7.796  -3.933  0.00  0.00    +0.010 A 
ATOM     24  C   LIG    1       -3.949   8.563  -2.845  0.00  0.00    +0.010 A 
ATOM     25  C   LIG    1       -3.842   7.983  -1.595  0.00  0.00    -0.010 A 
ATOM     26  C   LIG    1       -4.104   6.636  -1.436  0.00  0.00    +0.050 A 
ATOM     27  C   LIG    1       -4.475   5.865  -2.525  0.00  0.00    -0.110 A 
ENDBRANCH  16  19
ENDBRANCH   1  15
TORSDOF 3
