REMARK  Name = ZINCrD000000CPJi.0
REMARK                            x       y       z     vdW  Elec       q    Type
REMARK                         _______ _______ _______ _____ _____    ______ ____
ROOT
ATOM      1  N   LIG    1        4.430   0.431   2.656  0.00  0.00    -0.670 N 
ATOM      2  H   LIG    1        3.750   0.880   3.182  0.00  0.00    +0.420 HD
ATOM      3  C   LIG    1        4.113  -0.103   1.460  0.00  0.00    +0.550 C 
ATOM      4  O   LIG    1        4.941  -0.736   0.840  0.00  0.00    -0.510 OA
ENDROOT
BRANCH   3   5
ATOM      5  C   LIG    1        2.730   0.086   0.893  0.00  0.00    -0.040 C 
ATOM      6  C   LIG    1        2.580   0.058  -0.630  0.00  0.00    +0.110 C 
ATOM      7  C   LIG    1        2.452   1.377   0.127  0.00  0.00    -0.060 C 
ATOM      8  C   LIG    1        3.593   2.393  -0.003  0.00  0.00    +0.050 C 
ATOM      9  C   LIG    1        3.309   3.533   0.987  0.00  0.00    +0.250 C 
ATOM     10  O   LIG    1        2.061   4.139   0.655  0.00  0.00    -0.310 OA
ATOM     11  C   LIG    1        0.964   3.352   0.517  0.00  0.00    +0.150 A 
ATOM     12  C   LIG    1       -0.299   3.917   0.640  0.00  0.00    +0.010 A 
ATOM     13  C   LIG    1       -1.426   3.133   0.495  0.00  0.00    +0.070 A 
ATOM     14  C   LIG    1       -1.302   1.782   0.220  0.00  0.00    -0.060 A 
ATOM     15  C   LIG    1       -0.046   1.213   0.105  0.00  0.00    +0.070 A 
ATOM     16 CL   LIG    1       -2.721   0.801   0.027  0.00  0.00    -0.060 Cl
ATOM     17  C   LIG    1        1.082   1.995   0.251  0.00  0.00    -0.120 A 
ENDBRANCH   3   5
BRANCH   1  25
ATOM     18  O   LIG    1       10.393  -3.191   3.631  0.00  0.00    -0.510 OA
ATOM     19  C   LIG    1        9.689  -2.228   3.848  0.00  0.00    +0.490 C 
ATOM     20  C   LIG    1       10.060  -1.247   4.931  0.00  0.00    +0.300 C 
ATOM     21  O   LIG    1        9.609   0.061   4.570  0.00  0.00    -0.300 OA
ATOM     22  C   LIG    1        8.335   0.162   4.103  0.00  0.00    +0.060 A 
ATOM     23  C   LIG    1        7.581   1.294   4.353  0.00  0.00    +0.060 A 
ATOM     24  C   LIG    1        6.287   1.382   3.873  0.00  0.00    +0.010 A 
ATOM     25  C   LIG    1        5.742   0.337   3.140  0.00  0.00    +0.150 A 
ATOM     26  C   LIG    1        6.493  -0.804   2.891  0.00  0.00    +0.030 A 
ATOM     27  C   LIG    1        7.790  -0.890   3.366  0.00  0.00    +0.110 A 
ATOM     28  N   LIG    1        8.569  -2.030   3.120  0.00  0.00    -0.660 N 
ATOM     29  H   LIG    1        8.306  -2.667   2.437  0.00  0.00    +0.420 HD
ENDBRANCH   1  25
TORSDOF 2
