REMARK  Name = ZINCrD00000hQ6ig.0
REMARK                            x       y       z     vdW  Elec       q    Type
REMARK                         _______ _______ _______ _____ _____    ______ ____
ROOT
ATOM      1  C   LIG    1        1.891   2.167  -5.856  0.00  0.00    -0.090 A 
ATOM      2  C   LIG    1        3.022   1.399  -6.138  0.00  0.00    +0.000 A 
ATOM      3  C   LIG    1        3.666   0.722  -5.122  0.00  0.00    +0.050 A 
ATOM      4  C   LIG    1        3.198   0.807  -3.824  0.00  0.00    -0.060 A 
ATOM      5  C   LIG    1        2.070   1.563  -3.535  0.00  0.00    +0.130 A 
ATOM      6  C   LIG    1        1.416   2.247  -4.547  0.00  0.00    +0.040 A 
ENDROOT
BRANCH   1   8
ATOM      7  O   LIG    1       -0.015   2.864  -7.015  0.00  0.00    -0.530 OA
ATOM      8  C   LIG    1        1.198   2.893  -6.942  0.00  0.00    +0.570 C 
ATOM      9  N   LIG    1        1.911   3.587  -7.851  0.00  0.00    -0.610 N 
ATOM     10  C   LIG    1        1.249   4.385  -8.897  0.00  0.00    +0.290 C 
ATOM     11  C   LIG    1        1.600   5.853  -8.660  0.00  0.00    +0.070 C 
ATOM     12  C   LIG    1        3.078   6.020  -8.424  0.00  0.00    -0.070 A 
ATOM     13  C   LIG    1        3.621   7.286  -8.607  0.00  0.00    +0.000 A 
ATOM     14  C   LIG    1        4.966   7.509  -8.400  0.00  0.00    +0.000 A 
ATOM     15  C   LIG    1        5.784   6.467  -8.006  0.00  0.00    +0.000 A 
ATOM     16  C   LIG    1        5.248   5.208  -7.826  0.00  0.00    +0.010 A 
ATOM     17  C   LIG    1        3.896   4.981  -8.039  0.00  0.00    -0.100 A 
ATOM     18  C   LIG    1        3.378   3.583  -7.835  0.00  0.00    +0.330 C 
ENDBRANCH   1   8
BRANCH   5  19
ATOM     19  O   LIG    1        1.611   1.638  -2.258  0.00  0.00    -0.300 OA
BRANCH  19  20
ATOM     20  C   LIG    1        2.334   0.909  -1.265  0.00  0.00    +0.250 C 
BRANCH  20  21
ATOM     21  C   LIG    1        1.674   1.113   0.100  0.00  0.00    +0.070 C 
ATOM     22  C   LIG    1        0.484   2.072   0.176  0.00  0.00    +0.180 C 
ATOM     23  N   LIG    1        0.302   0.618   0.273  0.00  0.00    -0.440 NA
BRANCH  23  24
ATOM     24  C   LIG    1        0.062   0.209   1.664  0.00  0.00    +0.190 C 
BRANCH  24  25
ATOM     25  C   LIG    1       -1.240  -0.592   1.743  0.00  0.00    -0.030 C 
ATOM     26  C   LIG    1       -2.385   0.001   2.566  0.00  0.00    +0.010 C 
ATOM     27  C   LIG    1       -1.609  -1.208   3.093  0.00  0.00    +0.010 C 
ENDBRANCH  24  25
ENDBRANCH  23  24
ENDBRANCH  20  21
ENDBRANCH  19  20
ENDBRANCH   5  19
TORSDOF 6
