REMARK  Name = ZINCpe000000WnMX.0
REMARK                            x       y       z     vdW  Elec       q    Type
REMARK                         _______ _______ _______ _____ _____    ______ ____
ROOT
ATOM      1  C   LIG    1        4.383  -3.337  -2.823  0.00  0.00    -0.020 C 
ATOM      2  C   LIG    1        4.208  -4.238  -1.596  0.00  0.00    +0.000 C 
ATOM      3  C   LIG    1        5.486  -4.187  -0.751  0.00  0.00    +0.210 C 
ATOM      4  O   LIG    1        6.601  -4.592  -1.549  0.00  0.00    -0.380 OA
ATOM      5  C   LIG    1        6.839  -3.758  -2.685  0.00  0.00    +0.210 C 
ATOM      6  C   LIG    1        5.618  -3.792  -3.607  0.00  0.00    +0.020 C 
ENDROOT
BRANCH   1  10
ATOM      7  C   LIG    1        0.922  -3.626  -5.312  0.00  0.00    +0.130 A 
ATOM      8  C   LIG    1        2.020  -2.890  -5.732  0.00  0.00    -0.020 A 
ATOM      9  C   LIG    1        3.138  -2.799  -4.926  0.00  0.00    +0.060 A 
ATOM     10  C   LIG    1        3.162  -3.439  -3.701  0.00  0.00    -0.120 A 
ATOM     11  C   LIG    1        2.071  -4.178  -3.282  0.00  0.00    +0.050 A 
ATOM     12  C   LIG    1        0.949  -4.268  -4.083  0.00  0.00    -0.070 A 
BRANCH   7  14
ATOM     13  C   LIG    1       -1.273  -4.492  -5.608  0.00  0.00    +0.250 C 
ATOM     14  O   LIG    1       -0.179  -3.718  -6.104  0.00  0.00    -0.320 OA
ENDBRANCH   7  14
ENDBRANCH   1  10
BRANCH   1  15
ATOM     15  C   LIG    1        4.569  -1.887  -2.371  0.00  0.00    +0.300 C 
BRANCH  15  16
ATOM     16  N   LIG    1        3.373  -1.444  -1.649  0.00  0.00    -0.740 N 
ATOM     17  H   LIG    1        2.600  -2.026  -1.588  0.00  0.00    +0.400 HD
ATOM     18  C   LIG    1        3.349  -0.227  -1.070  0.00  0.00    +0.710 C 
ATOM     19  N   LIG    1        2.249   0.181  -0.406  0.00  0.00    -0.640 N 
ATOM     20  C   LIG    1        2.190   1.504   0.239  0.00  0.00    +0.310 C 
ATOM     21  C   LIG    1        1.061   2.303  -0.414  0.00  0.00    +0.250 C 
ATOM     22  N   LIG    1       -0.146   1.496  -0.526  0.00  0.00    -0.710 N 
ATOM     23  H   LIG    1       -0.992   1.961  -0.617  0.00  0.00    +0.400 HD
ATOM     24  C   LIG    1       -0.168   0.162  -0.517  0.00  0.00    +0.510 C 
ATOM     25  O   LIG    1       -1.228  -0.399  -0.698  0.00  0.00    -0.540 OA
ATOM     26  C   LIG    1        1.060  -0.677  -0.295  0.00  0.00    +0.320 C 
ATOM     27  O   LIG    1        4.319   0.502  -1.146  0.00  0.00    -0.580 OA
ENDBRANCH  15  16
ENDBRANCH   1  15
TORSDOF 4
