REMARK  Name = ZINCnE000001Pf1O.1
REMARK                            x       y       z     vdW  Elec       q    Type
REMARK                         _______ _______ _______ _____ _____    ______ ____
ROOT
ATOM      1  C   LIG    1        1.362  -4.144   1.682  0.00  0.00    +0.280 A 
ATOM      2  C   LIG    1        1.990  -4.956   0.746  0.00  0.00    -0.160 A 
ATOM      3  C   LIG    1        2.189  -6.295   1.020  0.00  0.00    +0.030 A 
ATOM      4  C   LIG    1        1.755  -6.829   2.219  0.00  0.00    -0.110 A 
ATOM      5  C   LIG    1        1.125  -6.024   3.151  0.00  0.00    -0.080 A 
ATOM      6  C   LIG    1        0.927  -4.684   2.886  0.00  0.00    -0.030 A 
ENDROOT
BRANCH   1   7
ATOM      7  N   LIG    1        1.163  -2.788   1.411  0.00  0.00    -1.090 NA
BRANCH   7   8
ATOM      8  S   LIG    1        1.683  -2.146  -0.025  0.00  0.00    +2.620 S 
ATOM      9  O   LIG    1        3.102  -2.212  -0.004  0.00  0.00    -1.030 OA
ATOM     10  O   LIG    1        0.891  -2.745  -1.042  0.00  0.00    -1.030 OA
BRANCH   8  14
ATOM     11  C   LIG    1        2.567   3.066  -0.006  0.00  0.00    +0.130 C 
ATOM     12  C   LIG    1        1.736   1.808  -0.005  0.00  0.00    -0.200 A 
ATOM     13  C   LIG    1        2.222   0.566  -0.016  0.00  0.00    +0.080 A 
ATOM     14  C   LIG    1        1.265  -0.434  -0.012  0.00  0.00    -0.640 A 
ATOM     15  C   LIG    1        0.002  -0.004   0.002  0.00  0.00    -0.040 A 
ATOM     16  C   LIG    1       -1.217  -0.889   0.010  0.00  0.00    +0.160 C 
ATOM     17  S   LIG    1       -0.022   1.755   0.012  0.00  0.00    +0.090 S 
ENDBRANCH   8  14
ENDBRANCH   7   8
ENDBRANCH   1   7
BRANCH   5  18
ATOM     18  C   LIG    1        0.654  -6.611   4.456  0.00  0.00    +0.370 C 
BRANCH  18  19
ATOM     19  N   LIG    1       -0.721  -7.095   4.306  0.00  0.00    -0.360 N 
ATOM     20  C   LIG    1       -1.157  -8.344   4.574  0.00  0.00    +0.220 A 
ATOM     21  C   LIG    1       -2.483  -8.384   4.306  0.00  0.00    -0.140 A 
ATOM     22  C   LIG    1       -2.870  -7.116   3.860  0.00  0.00    +0.210 A 
ATOM     23  N   LIG    1       -1.816  -6.341   3.864  0.00  0.00    -0.270 NA
ENDBRANCH  18  19
ENDBRANCH   5  18
TORSDOF 5
