REMARK  Name = ZINCkj00000AVZQt.1
REMARK                            x       y       z     vdW  Elec       q    Type
REMARK                         _______ _______ _______ _____ _____    ______ ____
ROOT
ATOM      1  C   LIG    1        0.489   2.230   5.467  0.00  0.00    +0.210 C 
ATOM      2  C   LIG    1       -0.855   2.493   4.839  0.00  0.00    +0.180 A 
ATOM      3  N   LIG    1       -1.908   2.963   5.449  0.00  0.00    -0.280 NA
ATOM      4  N   LIG    1       -2.960   3.060   4.531  0.00  0.00    -0.340 N 
ATOM      5  C   LIG    1       -2.518   2.639   3.332  0.00  0.00    +0.280 A 
ATOM      6  C   LIG    1       -1.195   2.277   3.483  0.00  0.00    -0.230 A 
ENDROOT
BRANCH   6   7
ATOM      7  C   LIG    1       -0.304   1.755   2.431  0.00  0.00    +0.610 C 
ATOM      8  N   LIG    1       -0.767   1.594   1.175  0.00  0.00    -0.640 N 
ATOM      9  C   LIG    1       -2.127   1.886   0.681  0.00  0.00    +0.420 C 
ATOM     10  O   LIG    1       -2.187   1.540  -0.712  0.00  0.00    -0.360 OA
ATOM     11  C   LIG    1       -0.826   1.631  -1.193  0.00  0.00    +0.160 C 
ATOM     12  C   LIG    1       -0.625   0.751  -2.429  0.00  0.00    +0.070 C 
ATOM     13  C   LIG    1       -0.013   1.086   0.008  0.00  0.00    +0.270 C 
ATOM     14  O   LIG    1        0.848   1.471   2.695  0.00  0.00    -0.500 OA
ENDBRANCH   6   7
BRANCH   4  15
ATOM     15  C   LIG    1       -4.252   3.517   4.813  0.00  0.00    +0.300 C 
ATOM     16  C   LIG    1       -5.222   3.575   3.815  0.00  0.00    +0.020 C 
ATOM     17  C   LIG    1       -6.487   4.027   4.135  0.00  0.00    +0.390 C 
ATOM     18  N   LIG    1       -6.777   4.409   5.364  0.00  0.00    -0.460 NA
ATOM     19  C   LIG    1       -5.885   4.373   6.335  0.00  0.00    +0.380 C 
ATOM     20  H   LIG    1       -7.673   4.725   5.559  0.00  0.00    +0.460 HD
ATOM     21  C   LIG    1       -4.599   3.929   6.098  0.00  0.00    +0.060 C 
ENDBRANCH   4  15
TORSDOF 2
