REMARK  Name = ZINCrH000004mRgH.0
REMARK                            x       y       z     vdW  Elec       q    Type
REMARK                         _______ _______ _______ _____ _____    ______ ____
ROOT
ATOM      1  C   LIG    1       -1.243   3.126   0.012  0.00  0.00    +0.220 A 
ATOM      2  C   LIG    1       -1.220   1.739  -0.004  0.00  0.00    -0.070 A 
ATOM      3  C   LIG    1       -0.013   1.068  -0.007  0.00  0.00    +0.130 A 
ATOM      4  C   LIG    1        1.178   1.783  -0.006  0.00  0.00    +0.090 A 
ATOM      5  C   LIG    1        1.154   3.171   0.004  0.00  0.00    +0.140 A 
ATOM      6  C   LIG    1       -0.054   3.840   0.013  0.00  0.00    -0.690 A 
ENDROOT
BRANCH   4   7
ATOM      7  N   LIG    1        2.402   1.103  -0.015  0.00  0.00    -0.670 N 
ATOM      8  H   LIG    1        3.159   1.473  -0.497  0.00  0.00    +0.410 HD
ATOM      9  C   LIG    1        2.531  -0.063   0.648  0.00  0.00    +0.560 C 
ATOM     10  O   LIG    1        1.562  -0.569   1.182  0.00  0.00    -0.510 OA
BRANCH   9  11
ATOM     11  C   LIG    1        3.848  -0.729   0.725  0.00  0.00    -0.130 A 
ATOM     12  C   LIG    1        4.961  -0.154   0.108  0.00  0.00    +0.050 A 
ATOM     13  C   LIG    1        6.189  -0.777   0.188  0.00  0.00    +0.030 A 
ATOM     14  C   LIG    1        6.319  -1.974   0.869  0.00  0.00    +0.060 A 
ATOM     15  C   LIG    1        5.218  -2.553   1.478  0.00  0.00    -0.040 A 
ATOM     16 CL   LIG    1        5.390  -4.056   2.330  0.00  0.00    -0.050 Cl
ATOM     17  C   LIG    1        3.984  -1.937   1.410  0.00  0.00    +0.100 A 
ENDBRANCH   9  11
ENDBRANCH   4   7
BRANCH   6  18
ATOM     18  S   LIG    1       -0.085   5.602   0.027  0.00  0.00    +2.700 S 
ATOM     19  O   LIG    1        1.270   6.027  -0.008  0.00  0.00    -0.960 OA
ATOM     20  O   LIG    1       -0.991   5.979   1.054  0.00  0.00    -0.940 OA
BRANCH  18  21
ATOM     21  N   LIG    1       -0.766   6.091  -1.401  0.00  0.00    -0.990 NA
ATOM     22  C   LIG    1        0.070   6.343  -2.582  0.00  0.00    +0.290 C 
ATOM     23  C   LIG    1       -0.478   5.516  -3.754  0.00  0.00    +0.000 C 
ATOM     24  C   LIG    1       -1.960   5.843  -3.953  0.00  0.00    +0.010 C 
ATOM     25  C   LIG    1       -2.741   5.467  -2.691  0.00  0.00    +0.010 C 
ATOM     26  C   LIG    1       -2.218   6.288  -1.508  0.00  0.00    +0.290 C 
ENDBRANCH  18  21
ENDBRANCH   6  18
BRANCH   1  28
ATOM     27  C   LIG    1       -3.617   2.986   0.018  0.00  0.00    +0.250 C 
ATOM     28  O   LIG    1       -2.432   3.785   0.021  0.00  0.00    -0.310 OA
ENDBRANCH   1  28
TORSDOF 5
