REMARK  Name = ZINCvU0000000Cr3.0
REMARK                            x       y       z     vdW  Elec       q    Type
REMARK                         _______ _______ _______ _____ _____    ______ ____
ROOT
ATOM      1  C   LIG    1        7.552   0.792   3.468  0.00  0.00    +0.540 C 
ATOM      2  N   LIG    1        8.495   0.023   2.890  0.00  0.00    -0.610 N 
ATOM      3  H   LIG    1        8.305  -0.434   2.056  0.00  0.00    +0.430 HD
ATOM      4  O   LIG    1        7.790   1.363   4.511  0.00  0.00    -0.480 OA
ENDROOT
BRANCH   2   5
ATOM      5  C   LIG    1        9.741  -0.116   3.490  0.00  0.00    +0.270 A 
ATOM      6  N   LIG    1       10.721  -0.827   3.025  0.00  0.00    -0.490 NA
ATOM      7  C   LIG    1       11.842  -0.842   3.733  0.00  0.00    +0.120 A 
ATOM      8  C   LIG    1       11.822  -0.108   4.860  0.00  0.00    -0.100 A 
ATOM      9  S   LIG    1       10.239   0.653   4.994  0.00  0.00    +0.220 S 
BRANCH   7  10
ATOM     10  C   LIG    1       13.036  -1.615   3.311  0.00  0.00    -0.000 A 
ATOM     11  C   LIG    1       14.192  -1.593   4.088  0.00  0.00    +0.060 A 
ATOM     12  C   LIG    1       15.300  -2.318   3.695  0.00  0.00    +0.030 A 
ATOM     13  C   LIG    1       15.267  -3.058   2.526  0.00  0.00    +0.070 A 
ATOM     14  C   LIG    1       14.119  -3.079   1.745  0.00  0.00    +0.070 A 
ATOM     15  F   LIG    1       14.092  -3.803   0.605  0.00  0.00    -0.130 F 
ATOM     16  F   LIG    1       16.354  -3.762   2.143  0.00  0.00    -0.130 F 
ATOM     17  C   LIG    1       13.005  -2.361   2.134  0.00  0.00    +0.060 A 
ENDBRANCH   7  10
ENDBRANCH   2   5
BRANCH   1  18
ATOM     18  C   LIG    1        6.200   0.943   2.818  0.00  0.00    +0.020 C 
ATOM     19  C   LIG    1        6.290   1.969   1.687  0.00  0.00    +0.110 C 
BRANCH  18  20
ATOM     20  S   LIG    1        4.998   1.504   4.049  0.00  0.00    +0.160 S 
BRANCH  20  24
ATOM     21  C   LIG    1        1.467   1.584   2.445  0.00  0.00    +0.230 A 
ATOM     22  N   LIG    1        2.205   1.161   1.448  0.00  0.00    -0.260 NA
ATOM     23  N   LIG    1        3.432   1.085   1.827  0.00  0.00    -0.280 NA
ATOM     24  C   LIG    1        3.524   1.449   3.085  0.00  0.00    +0.120 A 
ATOM     25  O   LIG    1        2.286   1.772   3.503  0.00  0.00    -0.200 OA
BRANCH  21  32
ATOM     26  C   LIG    1       -0.013   1.086   0.008  0.00  0.00    +0.110 C 
ATOM     27  C   LIG    1       -0.718   1.572   1.248  0.00  0.00    -0.030 A 
ATOM     28  C   LIG    1       -2.080   1.789   1.228  0.00  0.00    +0.020 A 
ATOM     29  C   LIG    1       -2.730   2.230   2.368  0.00  0.00    +0.050 A 
ATOM     30  C   LIG    1       -2.018   2.466   3.530  0.00  0.00    +0.000 A 
ATOM     31  C   LIG    1       -0.655   2.259   3.562  0.00  0.00    +0.050 A 
ATOM     32  C   LIG    1        0.006   1.808   2.418  0.00  0.00    -0.040 A 
ENDBRANCH  21  32
ENDBRANCH  20  24
ENDBRANCH  18  20
ENDBRANCH   1  18
TORSDOF 6
