REMARK  Name = ZINCrH000004tL2I.0
REMARK                            x       y       z     vdW  Elec       q    Type
REMARK                         _______ _______ _______ _____ _____    ______ ____
ROOT
ATOM      1  O   LIG    1        1.012   6.278  -0.356  0.00  0.00    -0.520 OA
ATOM      2  C   LIG    1        0.892   5.604  -1.357  0.00  0.00    +0.520 C 
ATOM      3  N   LIG    1        0.567   6.188  -2.528  0.00  0.00    -0.710 N 
ATOM      4  H   LIG    1        0.537   5.660  -3.341  0.00  0.00    +0.410 HD
ENDROOT
BRANCH   3   5
ATOM      5  C   LIG    1        0.258   7.619  -2.572  0.00  0.00    +0.190 C 
ATOM      6  C   LIG    1        0.309   8.218  -3.987  0.00  0.00    +0.050 C 
ATOM      7  C   LIG    1        1.802   8.494  -3.729  0.00  0.00    +0.020 C 
ATOM      8  C   LIG    1        1.457   8.519  -2.231  0.00  0.00    +0.040 C 
BRANCH   5   9
ATOM      9  C   LIG    1       -0.996   7.971  -1.812  0.00  0.00    -0.070 A 
ATOM     10  C   LIG    1       -1.909   6.984  -1.492  0.00  0.00    +0.030 A 
ATOM     11  C   LIG    1       -3.058   7.306  -0.794  0.00  0.00    +0.020 A 
ATOM     12  C   LIG    1       -3.296   8.615  -0.419  0.00  0.00    +0.040 A 
ATOM     13  C   LIG    1       -2.382   9.603  -0.740  0.00  0.00    -0.090 A 
ATOM     14 BR   LIG    1       -2.706  11.393  -0.226  0.00  0.00    -0.050 Br
ATOM     15  C   LIG    1       -1.229   9.279  -1.432  0.00  0.00    +0.050 A 
ENDBRANCH   5   9
ENDBRANCH   3   5
BRANCH   2  16
ATOM     16  C   LIG    1        1.108   4.114  -1.293  0.00  0.00    +0.050 C 
BRANCH  16  17
ATOM     17  C   LIG    1        1.464   3.712   0.140  0.00  0.00    +0.350 C 
BRANCH  17  18
ATOM     18  N   LIG    1        1.673   2.264   0.203  0.00  0.00    -0.340 N 
ATOM     19  N   LIG    1        0.672   1.505   0.459  0.00  0.00    -0.180 NA
ATOM     20  C   LIG    1        0.731   0.209   0.541  0.00  0.00    +0.150 A 
ATOM     21  C   LIG    1        1.965  -0.468   0.342  0.00  0.00    +0.390 A 
ATOM     22  C   LIG    1        3.137   0.373   0.046  0.00  0.00    -0.210 A 
ATOM     23  C   LIG    1        4.404  -0.162  -0.171  0.00  0.00    +0.120 A 
ATOM     24  C   LIG    1        5.451   0.675  -0.442  0.00  0.00    -0.020 A 
ATOM     25  C   LIG    1        5.259   2.049  -0.503  0.00  0.00    +0.090 A 
ATOM     26  C   LIG    1        4.014   2.599  -0.292  0.00  0.00    -0.030 A 
ATOM     27  O   LIG    1        2.049  -1.683   0.413  0.00  0.00    -0.470 OA
ATOM     28  C   LIG    1        2.934   1.767  -0.015  0.00  0.00    +0.150 A 
ENDBRANCH  17  18
ENDBRANCH  16  17
ENDBRANCH   2  16
TORSDOF 5
