REMARK  Name = ZINCzw0000000aC4.0
REMARK                            x       y       z     vdW  Elec       q    Type
REMARK                         _______ _______ _______ _____ _____    ______ ____
ROOT
ATOM      1  C   LIG    1        2.632   0.811  -6.068  0.00  0.00    +0.010 C 
ATOM      2  C   LIG    1        4.139   0.728  -5.814  0.00  0.00    +0.030 C 
ATOM      3  C   LIG    1        4.822   0.080  -7.022  0.00  0.00    +0.300 C 
ATOM      4  N   LIG    1        4.455   0.830  -8.231  0.00  0.00    -1.000 NA
ATOM      5  C   LIG    1        3.031   1.046  -8.523  0.00  0.00    +0.300 C 
ATOM      6  C   LIG    1        2.368   1.683  -7.298  0.00  0.00    +0.050 C 
ENDROOT
BRANCH   1   8
ATOM      7  O   LIG    1        1.320   2.445  -4.983  0.00  0.00    -0.530 OA
ATOM      8  C   LIG    1        1.953   1.417  -4.867  0.00  0.00    +0.520 C 
ATOM      9  N   LIG    1        2.049   0.816  -3.664  0.00  0.00    -0.730 N 
ATOM     10  H   LIG    1        2.555  -0.006  -3.572  0.00  0.00    +0.410 HD
BRANCH   9  11
ATOM     11  C   LIG    1        1.388   1.405  -2.497  0.00  0.00    +0.240 C 
ATOM     12  C   LIG    1        2.108   0.958  -1.221  0.00  0.00    +0.050 C 
ATOM     13  C   LIG    1        1.366   1.511  -0.003  0.00  0.00    +0.270 C 
ATOM     14  N   LIG    1       -0.012   1.005   0.008  0.00  0.00    -0.380 N 
ATOM     15  C   LIG    1       -0.730   1.490  -1.177  0.00  0.00    +0.250 C 
ATOM     16  H   LIG    1        0.002  -0.004   0.002  0.00  0.00    +0.420 HD
ATOM     17  C   LIG    1       -0.068   0.935  -2.441  0.00  0.00    +0.050 C 
BRANCH  14  18
ATOM     18  C   LIG    1       -0.696   1.477   1.218  0.00  0.00    +0.320 C 
BRANCH  18  19
ATOM     19  C   LIG    1       -2.067   0.856   1.295  0.00  0.00    -0.160 A 
ATOM     20  C   LIG    1       -3.149   1.497   0.719  0.00  0.00    +0.030 A 
ATOM     21  C   LIG    1       -4.406   0.925   0.785  0.00  0.00    +0.030 A 
ATOM     22  C   LIG    1       -4.583  -0.282   1.435  0.00  0.00    +0.060 A 
ATOM     23  C   LIG    1       -3.502  -0.920   2.015  0.00  0.00    +0.030 A 
ATOM     24  C   LIG    1       -2.244  -0.351   1.945  0.00  0.00    +0.040 A 
ENDBRANCH  18  19
ENDBRANCH  14  18
ENDBRANCH   9  11
ENDBRANCH   1   8
BRANCH   4  25
ATOM     25  S   LIG    1        5.623   1.420  -9.245  0.00  0.00    +2.690 S 
ATOM     26  O   LIG    1        5.009   1.576 -10.517  0.00  0.00    -0.950 OA
ATOM     27  O   LIG    1        6.779   0.621  -9.034  0.00  0.00    -0.950 OA
BRANCH  25  28
ATOM     28  C   LIG    1        6.029   3.041  -8.686  0.00  0.00    -0.680 A 
ATOM     29  C   LIG    1        7.037   3.217  -7.757  0.00  0.00    +0.130 A 
ATOM     30  C   LIG    1        7.357   4.487  -7.315  0.00  0.00    +0.020 A 
ATOM     31  C   LIG    1        6.670   5.588  -7.804  0.00  0.00    +0.110 A 
ATOM     32  O   LIG    1        6.994   6.832  -7.356  0.00  0.00    -0.300 OA
ATOM     33  C   LIG    1        6.538   7.938  -8.143  0.00  0.00    +0.240 C 
ATOM     34  C   LIG    1        5.064   7.699  -8.499  0.00  0.00    +0.230 C 
ATOM     35  O   LIG    1        4.973   6.476  -9.237  0.00  0.00    -0.300 OA
ATOM     36  C   LIG    1        5.658   5.410  -8.741  0.00  0.00    +0.030 A 
ATOM     37  C   LIG    1        5.344   4.134  -9.182  0.00  0.00    +0.140 A 
ENDBRANCH  25  28
ENDBRANCH   4  25
TORSDOF 6
