REMARK  Name = ZINCpk00000xDwnD.1
REMARK                            x       y       z     vdW  Elec       q    Type
REMARK                         _______ _______ _______ _____ _____    ______ ____
ROOT
ATOM      1  C   LIG    1       -6.018   9.308   1.655  0.00  0.00    +0.000 C 
ATOM      2  C   LIG    1       -7.356   8.658   2.020  0.00  0.00    +0.070 C 
ATOM      3  C   LIG    1       -7.089   7.341   2.754  0.00  0.00    +0.070 C 
ATOM      4  C   LIG    1       -6.227   6.436   1.871  0.00  0.00    +0.080 C 
ATOM      5  N   LIG    1       -4.952   7.103   1.579  0.00  0.00    -0.360 N 
ATOM      6  H   LIG    1       -4.490   7.335   2.446  0.00  0.00    +0.420 HD
ATOM      7  C   LIG    1       -5.195   8.331   0.813  0.00  0.00    +0.260 C 
ENDROOT
BRANCH   1  10
ATOM      8  C   LIG    1       -3.347  10.630   4.055  0.00  0.00    +0.300 C 
ATOM      9  N   LIG    1       -4.152  10.406   2.851  0.00  0.00    -0.620 N 
ATOM     10  C   LIG    1       -5.263   9.646   2.915  0.00  0.00    +0.490 C 
ATOM     11  O   LIG    1       -5.654   9.233   3.986  0.00  0.00    -0.500 OA
ATOM     12  C   LIG    1       -3.749  11.009   1.578  0.00  0.00    +0.290 C 
ENDBRANCH   1  10
BRANCH   4  13
ATOM     13  C   LIG    1       -5.962   5.139   2.589  0.00  0.00    +0.490 C 
ATOM     14  O   LIG    1       -6.728   4.200   2.455  0.00  0.00    -0.640 OA
ATOM     15  O   LIG    1       -4.981   5.027   3.304  0.00  0.00    -0.670 OA
ENDBRANCH   4  13
BRANCH   5  16
ATOM     16  C   LIG    1       -4.097   6.200   0.797  0.00  0.00    +0.260 C 
BRANCH  16  17
ATOM     17  C   LIG    1       -2.720   6.840   0.606  0.00  0.00    +0.090 C 
BRANCH  17  18
ATOM     18  C   LIG    1       -1.843   5.914  -0.196  0.00  0.00    -0.120 A 
ATOM     19  C   LIG    1       -1.818   6.004  -1.576  0.00  0.00    +0.060 A 
ATOM     20  C   LIG    1       -1.020   5.155  -2.316  0.00  0.00    -0.010 A 
ATOM     21  C   LIG    1       -0.232   4.200  -1.679  0.00  0.00    +0.120 A 
ATOM     22  O   LIG    1        0.610   3.270  -2.207  0.00  0.00    -0.300 OA
ATOM     23  C   LIG    1        1.519   2.822  -1.187  0.00  0.00    +0.240 C 
ATOM     24  C   LIG    1        0.709   3.027   0.115  0.00  0.00    +0.090 C 
ATOM     25  C   LIG    1       -0.259   4.125  -0.292  0.00  0.00    -0.170 A 
ATOM     26  C   LIG    1       -1.059   4.970   0.445  0.00  0.00    +0.080 A 
ENDBRANCH  17  18
ENDBRANCH  16  17
ENDBRANCH   5  16
TORSDOF 5
