REMARK  Name = ZINCpk00000xDwnD.0
REMARK                            x       y       z     vdW  Elec       q    Type
REMARK                         _______ _______ _______ _____ _____    ______ ____
ROOT
ATOM      1  C   LIG    1        6.900  -0.133  -0.699  0.00  0.00    -0.020 C 
ATOM      2  C   LIG    1        6.665  -0.215  -2.210  0.00  0.00    +0.050 C 
ATOM      3  C   LIG    1        5.436  -1.088  -2.479  0.00  0.00    +0.080 C 
ATOM      4  C   LIG    1        4.231  -0.505  -1.736  0.00  0.00    +0.070 C 
ATOM      5  N   LIG    1        4.507  -0.477  -0.295  0.00  0.00    -0.350 N 
ATOM      6  H   LIG    1        4.731  -1.409   0.022  0.00  0.00    +0.390 HD
ATOM      7  C   LIG    1        5.641   0.415  -0.022  0.00  0.00    +0.290 C 
ENDROOT
BRANCH   1  10
ATOM      8  C   LIG    1       10.455   1.234  -0.339  0.00  0.00    +0.290 C 
ATOM      9  N   LIG    1        9.317   0.391  -0.713  0.00  0.00    -0.620 N 
ATOM     10  C   LIG    1        8.062   0.785  -0.419  0.00  0.00    +0.530 C 
ATOM     11  O   LIG    1        7.868   1.877   0.070  0.00  0.00    -0.520 OA
ATOM     12  C   LIG    1        9.543  -0.879  -1.406  0.00  0.00    +0.280 C 
ENDBRANCH   1  10
BRANCH   4  13
ATOM     13  C   LIG    1        3.971   0.897  -2.224  0.00  0.00    +0.500 C 
ATOM     14  O   LIG    1        3.766   1.101  -3.409  0.00  0.00    -0.630 OA
ATOM     15  O   LIG    1        3.965   1.826  -1.435  0.00  0.00    -0.660 OA
ENDBRANCH   4  13
BRANCH   5  16
ATOM     16  C   LIG    1        3.320   0.010   0.420  0.00  0.00    +0.270 C 
BRANCH  16  17
ATOM     17  C   LIG    1        3.562  -0.078   1.929  0.00  0.00    +0.080 C 
BRANCH  17  18
ATOM     18  C   LIG    1        2.344   0.422   2.662  0.00  0.00    -0.120 A 
ATOM     19  C   LIG    1        1.333  -0.456   3.007  0.00  0.00    +0.050 A 
ATOM     20  C   LIG    1        0.215  -0.004   3.678  0.00  0.00    -0.010 A 
ATOM     21  C   LIG    1        0.100   1.341   4.022  0.00  0.00    +0.110 A 
ATOM     22  O   LIG    1       -0.895   1.990   4.687  0.00  0.00    -0.300 OA
ATOM     23  C   LIG    1       -0.800   3.400   4.421  0.00  0.00    +0.240 C 
ATOM     24  C   LIG    1        0.708   3.595   4.138  0.00  0.00    +0.080 C 
ATOM     25  C   LIG    1        1.119   2.215   3.663  0.00  0.00    -0.170 A 
ATOM     26  C   LIG    1        2.233   1.761   2.993  0.00  0.00    +0.080 A 
ENDBRANCH  17  18
ENDBRANCH  16  17
ENDBRANCH   5  16
TORSDOF 5
