REMARK  Name = ZINCrg00000SjSsY.0
REMARK                            x       y       z     vdW  Elec       q    Type
REMARK                         _______ _______ _______ _____ _____    ______ ____
ROOT
ATOM      1  C   LIG    1        4.107   0.173   1.872  0.00  0.00    -0.720 A 
ATOM      2  C   LIG    1        3.065   0.866   1.375  0.00  0.00    +0.220 A 
ATOM      3  C   LIG    1        2.231   0.543   0.163  0.00  0.00    +0.420 C 
ATOM      4  N   LIG    1        1.071   1.454   0.176  0.00  0.00    -0.630 N 
ATOM      5  C   LIG    1        1.305   2.865   0.521  0.00  0.00    +0.310 C 
ATOM      6  C   LIG    1        1.820   2.953   1.962  0.00  0.00    +0.320 C 
ATOM      7  C   LIG    1       -0.166   1.006  -0.114  0.00  0.00    +0.530 C 
ATOM      8  O   LIG    1       -0.326  -0.138  -0.484  0.00  0.00    -0.510 OA
ATOM      9  N   LIG    1        2.869   1.949   2.162  0.00  0.00    -0.350 N 
ATOM     10  N   LIG    1        3.832   1.921   3.174  0.00  0.00    -0.270 NA
ATOM     11  C   LIG    1        4.574   0.855   3.003  0.00  0.00    +0.320 A 
ENDROOT
BRANCH   1  13
ATOM     12  N   LIG    1        4.600  -1.313  -0.267  0.00  0.00    -1.130 NA
ATOM     13  S   LIG    1        4.764  -1.325   1.218  0.00  0.00    +2.440 S 
ATOM     14  O   LIG    1        4.012  -2.410   1.742  0.00  0.00    -0.920 OA
ATOM     15  C   LIG    1        6.538  -1.382   1.595  0.00  0.00    -0.210 C 
BRANCH  12  17
ATOM     16  C   LIG    1        4.856  -2.327  -2.486  0.00  0.00    +0.120 C 
ATOM     17  C   LIG    1        5.022  -2.340  -0.988  0.00  0.00    +0.550 C 
ATOM     18  O   LIG    1        5.543  -3.292  -0.443  0.00  0.00    -0.590 OA
ENDBRANCH  12  17
ENDBRANCH   1  13
BRANCH   7  19
ATOM     19  C   LIG    1       -1.351   1.928   0.016  0.00  0.00    +0.060 C 
ATOM     20  C   LIG    1       -1.522   2.724  -1.279  0.00  0.00    +0.070 C 
BRANCH  19  21
ATOM     21  C   LIG    1       -2.594   1.116   0.275  0.00  0.00    +0.070 A 
ATOM     22  C   LIG    1       -3.295   0.585  -0.792  0.00  0.00    +0.050 A 
ATOM     23  C   LIG    1       -4.433  -0.166  -0.547  0.00  0.00    -0.030 A 
ATOM     24  C   LIG    1       -4.835  -0.346   0.774  0.00  0.00    +0.170 A 
ATOM     25  C   LIG    1       -4.081   0.225   1.792  0.00  0.00    +0.180 A 
ATOM     26  N   LIG    1       -3.001   0.927   1.515  0.00  0.00    -0.440 NA
BRANCH  24  27
ATOM     27  N   LIG    1       -5.980  -1.090   1.072  0.00  0.00    -0.870 N 
ATOM     28  H   LIG    1       -6.501  -1.485   0.356  0.00  0.00    +0.400 HD
ATOM     29  H   LIG    1       -6.253  -1.210   1.994  0.00  0.00    +0.400 HD
ENDBRANCH  24  27
ENDBRANCH  19  21
ENDBRANCH   7  19
TORSDOF 5
