REMARK  Name = ZINCqH0000003cEo.0
REMARK                            x       y       z     vdW  Elec       q    Type
REMARK                         _______ _______ _______ _____ _____    ______ ____
ROOT
ATOM      1  N   LIG    1       -4.553   1.384  -1.027  0.00  0.00    -0.680 N 
ATOM      2  H   LIG    1       -4.667   1.433  -0.065  0.00  0.00    +0.410 HD
ATOM      3  C   LIG    1       -3.317   1.294  -1.556  0.00  0.00    +0.720 C 
ATOM      4  N   LIG    1       -2.235   1.379  -0.758  0.00  0.00    -0.630 N 
ATOM      5  C   LIG    1       -2.258   1.567   0.700  0.00  0.00    +0.230 C 
ATOM      6  C   LIG    1       -0.792   1.576   1.185  0.00  0.00    +0.050 C 
ATOM      7  C   LIG    1       -0.047   0.827   0.049  0.00  0.00    +0.030 C 
ATOM      8  C   LIG    1       -0.831   1.296  -1.202  0.00  0.00    +0.280 C 
ATOM      9  O   LIG    1       -3.178   1.137  -2.754  0.00  0.00    -0.560 OA
ENDROOT
BRANCH   7  10
ATOM     10  C   LIG    1        1.396   1.256  -0.026  0.00  0.00    -0.080 A 
ATOM     11  C   LIG    1        1.712   2.589  -0.207  0.00  0.00    +0.010 A 
ATOM     12  C   LIG    1        3.036   2.983  -0.272  0.00  0.00    +0.000 A 
ATOM     13  C   LIG    1        4.043   2.042  -0.163  0.00  0.00    +0.010 A 
ATOM     14  C   LIG    1        3.727   0.708   0.014  0.00  0.00    +0.000 A 
ATOM     15  C   LIG    1        2.403   0.315   0.082  0.00  0.00    -0.080 A 
ATOM     16  C   LIG    1        2.058  -1.140   0.274  0.00  0.00    +0.090 C 
ENDBRANCH   7  10
BRANCH   1  20
ATOM     17  C   LIG    1       -7.887   1.458  -3.524  0.00  0.00    -0.160 A 
ATOM     18  C   LIG    1       -7.965   0.849  -2.268  0.00  0.00    +0.110 A 
ATOM     19  C   LIG    1       -6.862   0.826  -1.446  0.00  0.00    -0.030 A 
ATOM     20  C   LIG    1       -5.669   1.409  -1.863  0.00  0.00    +0.200 A 
ATOM     21  C   LIG    1       -5.589   2.020  -3.110  0.00  0.00    +0.010 A 
ATOM     22  C   LIG    1       -6.688   2.042  -3.940  0.00  0.00    +0.070 A 
BRANCH  17  25
ATOM     23  N   LIG    1       -8.991   2.072  -5.618  0.00  0.00    -0.730 N 
ATOM     24  H   LIG    1       -8.159   2.477  -5.908  0.00  0.00    +0.400 HD
ATOM     25  C   LIG    1       -9.068   1.484  -4.408  0.00  0.00    +0.560 C 
ATOM     26  O   LIG    1      -10.111   0.976  -4.044  0.00  0.00    -0.540 OA
BRANCH  23  28
ATOM     27  C   LIG    1       -9.810   2.818  -7.799  0.00  0.00    +0.030 C 
ATOM     28  C   LIG    1      -10.164   2.098  -6.496  0.00  0.00    +0.250 C 
ENDBRANCH  23  28
ENDBRANCH  17  25
ENDBRANCH   1  20
TORSDOF 4
