REMARK  Name = ZINCqH0000001Lry.0
REMARK                            x       y       z     vdW  Elec       q    Type
REMARK                         _______ _______ _______ _____ _____    ______ ____
ROOT
ATOM      1  C   LIG    1       -2.972  10.930  -0.200  0.00  0.00    +0.300 A 
ATOM      2  N   LIG    1       -2.944   9.862  -0.934  0.00  0.00    -0.330 NA
ATOM      3  N   LIG    1       -2.256   8.793  -0.404  0.00  0.00    -0.260 NA
ATOM      4  C   LIG    1       -1.732   8.987   0.766  0.00  0.00    -0.000 A 
ATOM      5  S   LIG    1       -2.087  10.630   1.292  0.00  0.00    +0.100 S 
ENDROOT
BRANCH   1   6
ATOM      6  N   LIG    1       -3.602  12.123  -0.537  0.00  0.00    -0.620 N 
ATOM      7  H   LIG    1       -3.503  12.901   0.033  0.00  0.00    +0.430 HD
BRANCH   6  11
ATOM      8  C   LIG    1       -5.913  12.353  -3.993  0.00  0.00    -0.090 A 
ATOM      9  C   LIG    1       -5.793  11.149  -3.322  0.00  0.00    +0.040 A 
ATOM     10  C   LIG    1       -5.028  11.069  -2.176  0.00  0.00    +0.020 A 
ATOM     11  C   LIG    1       -4.378  12.200  -1.696  0.00  0.00    +0.150 A 
ATOM     12  C   LIG    1       -4.505  13.408  -2.369  0.00  0.00    -0.010 A 
ATOM     13  C   LIG    1       -5.268  13.480  -3.518  0.00  0.00    +0.040 A 
BRANCH   8  15
ATOM     14  C   LIG    1       -7.877  13.450  -5.037  0.00  0.00    +0.040 C 
ATOM     15  C   LIG    1       -6.750  12.436  -5.244  0.00  0.00    +0.020 C 
ATOM     16  C   LIG    1       -5.872  12.881  -6.415  0.00  0.00    +0.030 C 
ENDBRANCH   8  15
ENDBRANCH   6  11
ENDBRANCH   1   6
BRANCH   4  17
ATOM     17  S   LIG    1       -0.806   7.800   1.681  0.00  0.00    +0.100 S 
BRANCH  17  18
ATOM     18  C   LIG    1       -0.816   6.349   0.592  0.00  0.00    +0.110 C 
BRANCH  18  19
ATOM     19  C   LIG    1       -0.050   5.226   1.245  0.00  0.00    +0.540 C 
ATOM     20  N   LIG    1        0.076   4.042   0.615  0.00  0.00    -0.720 N 
ATOM     21  H   LIG    1       -0.326   3.911  -0.258  0.00  0.00    +0.410 HD
ATOM     22  O   LIG    1        0.452   5.389   2.337  0.00  0.00    -0.520 OA
BRANCH  20  23
ATOM     23  C   LIG    1        0.820   2.950   1.249  0.00  0.00    +0.290 C 
BRANCH  23  24
ATOM     24  C   LIG    1        0.812   1.727   0.331  0.00  0.00    +0.150 C 
ATOM     25  C   LIG    1        1.534   0.537   1.014  0.00  0.00    +0.020 C 
ATOM     26  C   LIG    1        0.873  -0.665   0.286  0.00  0.00    +0.010 C 
ATOM     27  C   LIG    1       -0.565  -0.156   0.051  0.00  0.00    +0.190 C 
ATOM     28  O   LIG    1       -0.534   1.274   0.114  0.00  0.00    -0.380 OA
ENDBRANCH  23  24
ENDBRANCH  20  23
ENDBRANCH  18  19
ENDBRANCH  17  18
ENDBRANCH   4  17
TORSDOF 8
