REMARK  Name = ZINCrH000004o1Ds.2
REMARK                            x       y       z     vdW  Elec       q    Type
REMARK                         _______ _______ _______ _____ _____    ______ ____
ROOT
ATOM      1  C   LIG    1        0.590  -0.416  -0.958  0.00  0.00    +0.520 C 
ATOM      2  N   LIG    1        0.418  -1.652  -1.466  0.00  0.00    -0.680 N 
ATOM      3  H   LIG    1        0.361  -1.779  -2.425  0.00  0.00    +0.410 HD
ATOM      4  O   LIG    1        0.738  -0.266   0.237  0.00  0.00    -0.500 OA
ENDROOT
BRANCH   2   5
ATOM      5  C   LIG    1        0.322  -2.756  -0.607  0.00  0.00    +0.120 A 
ATOM      6  C   LIG    1       -0.313  -2.626   0.622  0.00  0.00    +0.040 A 
ATOM      7  C   LIG    1       -0.413  -3.714   1.465  0.00  0.00    -0.020 A 
ATOM      8  C   LIG    1        0.131  -4.936   1.091  0.00  0.00    +0.100 A 
ATOM      9  C   LIG    1        0.771  -5.064  -0.136  0.00  0.00    +0.010 A 
ATOM     10  C   LIG    1        0.866  -3.977  -0.982  0.00  0.00    +0.010 A 
BRANCH   8  11
ATOM     11  N   LIG    1        0.035  -6.037   1.948  0.00  0.00    -0.490 N 
ATOM     12  C   LIG    1       -0.619  -7.170   1.278  0.00  0.00    +0.160 C 
ATOM     13  C   LIG    1       -0.650  -8.370   2.228  0.00  0.00    +0.220 C 
ATOM     14  O   LIG    1       -1.318  -7.997   3.437  0.00  0.00    -0.380 OA
ATOM     15  C   LIG    1       -0.707  -6.896   4.116  0.00  0.00    +0.220 C 
ATOM     16  C   LIG    1       -0.677  -5.682   3.184  0.00  0.00    +0.160 C 
ENDBRANCH   8  11
ENDBRANCH   2   5
BRANCH   1  18
ATOM     17  C   LIG    1        1.961   0.884  -2.564  0.00  0.00    +0.060 C 
ATOM     18  C   LIG    1        0.599   0.781  -1.874  0.00  0.00    +0.130 C 
BRANCH  18  19
ATOM     19  N   LIG    1        0.354   1.999  -1.091  0.00  0.00    -0.490 NA
ATOM     20  C   LIG    1       -0.919   1.901  -0.344  0.00  0.00    +0.180 C 
ATOM     21  C   LIG    1       -1.475   3.347  -0.315  0.00  0.00    +0.030 C 
ATOM     22  C   LIG    1       -1.069   3.864  -1.724  0.00  0.00    +0.010 C 
ATOM     23  C   LIG    1        0.296   3.186  -1.964  0.00  0.00    +0.250 C 
BRANCH  23  24
ATOM     24  C   LIG    1        0.418   2.767  -3.406  0.00  0.00    -0.190 A 
ATOM     25  C   LIG    1        1.401   3.130  -4.232  0.00  0.00    +0.020 A 
ATOM     26  C   LIG    1        1.302   2.621  -5.515  0.00  0.00    +0.010 A 
ATOM     27  C   LIG    1        0.240   1.845  -5.732  0.00  0.00    -0.060 A 
ATOM     28  S   LIG    1       -0.710   1.720  -4.257  0.00  0.00    +0.100 S 
ENDBRANCH  23  24
ENDBRANCH  18  19
ENDBRANCH   1  18
TORSDOF 5
