REMARK  Name = ZINCrD0000074MsM.0
REMARK                            x       y       z     vdW  Elec       q    Type
REMARK                         _______ _______ _______ _____ _____    ______ ____
ROOT
ATOM      1  C   LIG    1       -4.448   4.534   5.560  0.00  0.00    +0.250 C 
ENDROOT
BRANCH   1   8
ATOM      2  C   LIG    1       -0.154   0.667   0.137  0.00  0.00    +0.110 C 
ATOM      3  C   LIG    1       -0.785   1.373   1.309  0.00  0.00    -0.070 A 
ATOM      4  C   LIG    1       -2.042   1.880   1.187  0.00  0.00    -0.060 A 
ATOM      5  C   LIG    1       -2.639   2.535   2.279  0.00  0.00    +0.150 A 
ATOM      6  N   LIG    1       -3.873   3.040   2.190  0.00  0.00    -0.460 NA
ATOM      7  C   LIG    1       -4.432   3.657   3.204  0.00  0.00    +0.230 A 
ATOM      8  C   LIG    1       -3.770   3.818   4.420  0.00  0.00    -0.120 A 
ATOM      9  C   LIG    1       -2.506   3.325   4.577  0.00  0.00    +0.110 A 
ATOM     10 CL   LIG    1       -6.039   4.291   3.026  0.00  0.00    -0.010 Cl
ATOM     11  C   LIG    1       -1.910   2.664   3.487  0.00  0.00    -0.100 A 
ATOM     12  C   LIG    1       -0.613   2.133   3.575  0.00  0.00    +0.030 A 
ATOM     13  C   LIG    1       -2.794   1.735  -0.111  0.00  0.00    +0.110 C 
ATOM     14  C   LIG    1       -0.070   1.501   2.498  0.00  0.00    +0.030 A 
ENDBRANCH   1   8
BRANCH   1  15
ATOM     15  N   LIG    1       -4.452   5.979   5.297  0.00  0.00    -0.530 NA
ATOM     16  C   LIG    1       -3.086   6.519   5.299  0.00  0.00    +0.170 C 
ATOM     17  C   LIG    1       -3.118   7.982   4.845  0.00  0.00    +0.280 C 
ATOM     18  N   LIG    1       -4.077   8.712   5.689  0.00  0.00    -0.610 N 
ATOM     19  C   LIG    1       -5.429   8.156   5.846  0.00  0.00    +0.300 C 
ATOM     20  C   LIG    1       -3.725   9.860   6.301  0.00  0.00    +0.520 C 
ATOM     21  O   LIG    1       -4.528  10.449   6.992  0.00  0.00    -0.520 OA
ATOM     22  C   LIG    1       -5.306   6.686   6.261  0.00  0.00    +0.170 C 
BRANCH  20  23
ATOM     23  C   LIG    1       -2.333  10.412   6.126  0.00  0.00    +0.150 C 
ATOM     24  C   LIG    1       -2.112  10.819   4.656  0.00  0.00    +0.020 C 
ATOM     25  C   LIG    1       -1.763  12.326   4.729  0.00  0.00    +0.020 C 
ATOM     26  C   LIG    1       -1.294  12.480   6.198  0.00  0.00    +0.210 C 
ATOM     27  O   LIG    1       -2.171  11.593   6.929  0.00  0.00    -0.350 OA
ENDBRANCH  20  23
ENDBRANCH   1  15
TORSDOF 3
