REMARK  Name = ZINCnE000001PClc.0
REMARK                            x       y       z     vdW  Elec       q    Type
REMARK                         _______ _______ _______ _____ _____    ______ ____
ROOT
ATOM      1  C   LIG    1        0.002  -0.004   0.002  0.00  0.00    -0.080 A 
ATOM      2  N   LIG    1        1.241  -0.381  -0.012  0.00  0.00    -0.220 NA
ATOM      3  N   LIG    1        2.110   0.534  -0.015  0.00  0.00    -0.370 NA
ATOM      4  C   LIG    1        1.691   1.764  -0.005  0.00  0.00    +0.300 A 
ATOM      5  S   LIG    1       -0.022   1.760   0.012  0.00  0.00    -0.010 S 
ENDROOT
BRANCH   4   6
ATOM      6  N   LIG    1        2.499   2.896  -0.007  0.00  0.00    -0.680 NA
ATOM      7  C   LIG    1        3.841   2.766  -0.021  0.00  0.00    +0.460 C 
ATOM      8  O   LIG    1        4.343   1.662  -0.030  0.00  0.00    -0.580 OA
BRANCH   7   9
ATOM      9  C   LIG    1        4.716   3.993  -0.023  0.00  0.00    +0.050 C 
BRANCH   9  10
ATOM     10  C   LIG    1        6.186   3.570  -0.039  0.00  0.00    +0.130 C 
BRANCH  10  11
ATOM     11  C   LIG    1        7.062   4.796  -0.042  0.00  0.00    +0.080 A 
ATOM     12  C   LIG    1        8.012   5.008   0.874  0.00  0.00    -0.070 A 
ATOM     13  S   LIG    1        8.790   6.545   0.502  0.00  0.00    +0.090 S 
ATOM     14  C   LIG    1        7.755   6.753  -0.843  0.00  0.00    +0.220 A 
ATOM     15  N   LIG    1        6.950   5.750  -0.944  0.00  0.00    -0.460 NA
ENDBRANCH  10  11
ENDBRANCH   9  10
ENDBRANCH   7   9
ENDBRANCH   4   6
BRANCH   1  16
ATOM     16  C   LIG    1       -1.203  -0.909   0.008  0.00  0.00    +0.190 C 
BRANCH  16  21
ATOM     17  C   LIG    1       -2.693  -2.097   5.464  0.00  0.00    +0.080 C 
ATOM     18  C   LIG    1       -2.305  -1.787   4.041  0.00  0.00    -0.100 A 
ATOM     19  C   LIG    1       -2.845  -0.688   3.400  0.00  0.00    +0.000 A 
ATOM     20  C   LIG    1       -2.489  -0.404   2.095  0.00  0.00    +0.010 A 
ATOM     21  C   LIG    1       -1.591  -1.219   1.431  0.00  0.00    -0.070 A 
ATOM     22  C   LIG    1       -1.055  -2.321   2.070  0.00  0.00    +0.020 A 
ATOM     23  C   LIG    1       -1.407  -2.602   3.377  0.00  0.00    +0.000 A 
ENDBRANCH  16  21
ENDBRANCH   1  16
TORSDOF 6
