REMARK  Name = ZINCkj000005jpjO.0
REMARK                            x       y       z     vdW  Elec       q    Type
REMARK                         _______ _______ _______ _____ _____    ______ ____
ROOT
ATOM      1  C   LIG    1        1.923  -2.218  -1.773  0.00  0.00    +0.080 C 
ATOM      2  C   LIG    1        0.791  -1.968  -0.775  0.00  0.00    +0.160 C 
ATOM      3  C   LIG    1        0.132  -0.597  -1.058  0.00  0.00    +0.080 C 
ATOM      4  C   LIG    1       -0.167  -0.079   0.369  0.00  0.00    +0.010 C 
ATOM      5  C   LIG    1       -0.403   1.400   0.396  0.00  0.00    +0.040 C 
ATOM      6  C   LIG    1        0.821   2.272   0.273  0.00  0.00    +0.020 C 
ATOM      7  C   LIG    1        1.990   1.774   1.104  0.00  0.00    +0.030 C 
ATOM      8  C   LIG    1        2.282   0.312   0.791  0.00  0.00    +0.040 C 
ATOM      9  C   LIG    1        1.071  -0.554   1.144  0.00  0.00    +0.190 C 
ATOM     10  N   LIG    1        1.329  -1.914   0.600  0.00  0.00    -0.390 N 
ATOM     11  H   LIG    1        0.868  -2.603   1.174  0.00  0.00    +0.430 HD
ENDROOT
BRANCH  10  12
ATOM     12  C   LIG    1        2.775  -2.174   0.577  0.00  0.00    +0.230 C 
BRANCH  12  13
ATOM     13  C   LIG    1        3.300  -2.261   2.012  0.00  0.00    +0.210 C 
BRANCH  13  14
ATOM     14  O   LIG    1        2.735  -3.404   2.657  0.00  0.00    -0.540 OA
ATOM     15  H   LIG    1        2.923  -4.241   2.211  0.00  0.00    +0.390 HD
ENDBRANCH  13  14
BRANCH  13  16
ATOM     16  C   LIG    1        4.825  -2.390   1.990  0.00  0.00    +0.160 C 
BRANCH  16  17
ATOM     17  N   LIG    1        5.329  -2.473   3.367  0.00  0.00    -0.520 NA
ATOM     18  C   LIG    1        5.101  -1.213   4.089  0.00  0.00    +0.140 C 
ATOM     19  C   LIG    1        5.586  -1.363   5.533  0.00  0.00    +0.220 C 
ATOM     20  O   LIG    1        6.965  -1.745   5.531  0.00  0.00    -0.380 OA
ATOM     21  C   LIG    1        7.222  -2.968   4.837  0.00  0.00    +0.220 C 
ATOM     22  C   LIG    1        6.754  -2.834   3.385  0.00  0.00    +0.160 C 
ENDBRANCH  16  17
ENDBRANCH  13  16
ENDBRANCH  12  13
ENDBRANCH  10  12
TORSDOF 5
