REMARK  Name = ZINCkj000005jpjO.1
REMARK                            x       y       z     vdW  Elec       q    Type
REMARK                         _______ _______ _______ _____ _____    ______ ____
ROOT
ATOM      1  C   LIG    1        1.759  -1.175   2.128  0.00  0.00    +0.100 C 
ATOM      2  C   LIG    1        2.319  -0.421   0.920  0.00  0.00    +0.150 C 
ATOM      3  C   LIG    1        3.832  -0.708   0.775  0.00  0.00    +0.080 C 
ATOM      4  C   LIG    1        4.387   0.668   0.355  0.00  0.00    +0.000 C 
ATOM      5  C   LIG    1        5.868   0.799   0.607  0.00  0.00    +0.050 C 
ATOM      6  C   LIG    1        6.195   0.720   2.098  0.00  0.00    +0.020 C 
ATOM      7  C   LIG    1        5.442   1.849   2.812  0.00  0.00    +0.050 C 
ATOM      8  C   LIG    1        3.944   1.601   2.662  0.00  0.00    +0.030 C 
ATOM      9  C   LIG    1        3.528   1.636   1.189  0.00  0.00    +0.190 C 
ATOM     10  N   LIG    1        2.168   1.034   1.121  0.00  0.00    -0.390 N 
ATOM     11  H   LIG    1        1.675   1.208   1.984  0.00  0.00    +0.430 HD
ENDROOT
BRANCH  10  12
ATOM     12  C   LIG    1        1.423   1.615  -0.003  0.00  0.00    +0.230 C 
BRANCH  12  13
ATOM     13  C   LIG    1       -0.013   1.086   0.008  0.00  0.00    +0.210 C 
BRANCH  13  14
ATOM     14  O   LIG    1       -0.682   1.547   1.184  0.00  0.00    -0.540 OA
ATOM     15  H   LIG    1       -0.732   2.510   1.256  0.00  0.00    +0.390 HD
ENDBRANCH  13  14
BRANCH  13  16
ATOM     16  C   LIG    1       -0.753   1.593  -1.232  0.00  0.00    +0.160 C 
BRANCH  16  17
ATOM     17  N   LIG    1       -2.131   1.084  -1.221  0.00  0.00    -0.520 NA
ATOM     18  C   LIG    1       -2.155  -0.377  -1.381  0.00  0.00    +0.140 C 
ATOM     19  C   LIG    1       -3.602  -0.870  -1.305  0.00  0.00    +0.220 C 
ATOM     20  O   LIG    1       -4.380  -0.203  -2.302  0.00  0.00    -0.380 OA
ATOM     21  C   LIG    1       -4.380   1.221  -2.176  0.00  0.00    +0.220 C 
ATOM     22  C   LIG    1       -2.941   1.735  -2.261  0.00  0.00    +0.160 C 
ENDBRANCH  16  17
ENDBRANCH  13  16
ENDBRANCH  12  13
ENDBRANCH  10  12
TORSDOF 5
