REMARK  Name = ZINCqH0000007iAG.0
REMARK                            x       y       z     vdW  Elec       q    Type
REMARK                         _______ _______ _______ _____ _____    ______ ____
ROOT
ATOM      1  N   LIG    1       -2.459   3.834   0.045  0.00  0.00    -0.660 N 
ATOM      2  H   LIG    1       -3.293   3.342  -0.015  0.00  0.00    +0.410 HD
ATOM      3  C   LIG    1       -2.475   5.177   0.154  0.00  0.00    +0.520 C 
ATOM      4  O   LIG    1       -1.433   5.798   0.147  0.00  0.00    -0.510 OA
ENDROOT
BRANCH   1   8
ATOM      5  C   LIG    1        1.180   1.788  -0.034  0.00  0.00    +0.160 A 
ATOM      6  C   LIG    1        1.073   3.041  -0.619  0.00  0.00    -0.100 A 
ATOM      7  C   LIG    1       -0.131   3.719  -0.592  0.00  0.00    +0.110 A 
ATOM      8  C   LIG    1       -1.236   3.146   0.019  0.00  0.00    +0.080 A 
ATOM      9  C   LIG    1       -1.133   1.885   0.602  0.00  0.00    +0.150 A 
ATOM     10  C   LIG    1        0.077   1.212   0.579  0.00  0.00    -0.090 A 
BRANCH   5  12
ATOM     11  C   LIG    1        3.459   1.777  -0.710  0.00  0.00    +0.250 C 
ATOM     12  O   LIG    1        2.366   1.124  -0.062  0.00  0.00    -0.320 OA
ENDBRANCH   5  12
BRANCH   9  13
ATOM     13  O   LIG    1       -2.216   1.319   1.198  0.00  0.00    -0.310 OA
ATOM     14  C   LIG    1       -2.035   0.027   1.780  0.00  0.00    +0.250 C 
ENDBRANCH   9  13
ENDBRANCH   1   8
BRANCH   3  15
ATOM     15  C   LIG    1       -3.787   5.907   0.283  0.00  0.00    +0.090 C 
BRANCH  15  16
ATOM     16  C   LIG    1       -3.525   7.411   0.389  0.00  0.00    +0.070 C 
ATOM     17  S   LIG    1       -2.792   8.014  -1.161  0.00  0.00    -0.030 S 
ATOM     18  C   LIG    1       -4.187   8.015  -2.243  0.00  0.00    -0.150 A 
ATOM     19  C   LIG    1       -4.011   7.798  -3.600  0.00  0.00    +0.110 A 
ATOM     20  C   LIG    1       -5.104   7.805  -4.447  0.00  0.00    +0.030 A 
ATOM     21  C   LIG    1       -6.370   8.030  -3.937  0.00  0.00    -0.000 A 
ATOM     22  C   LIG    1       -6.551   8.243  -2.584  0.00  0.00    +0.010 A 
ATOM     23 CL   LIG    1       -7.740   8.042  -5.004  0.00  0.00    -0.050 Cl
ATOM     24  C   LIG    1       -5.461   8.235  -1.720  0.00  0.00    +0.170 A 
ATOM     25  N   LIG    1       -5.674   8.432  -0.359  0.00  0.00    -0.650 N 
ATOM     26  H   LIG    1       -6.523   8.823  -0.100  0.00  0.00    +0.420 HD
ATOM     27  C   LIG    1       -4.826   8.135   0.621  0.00  0.00    +0.530 C 
ATOM     28  O   LIG    1       -5.112   8.462   1.753  0.00  0.00    -0.500 OA
ENDBRANCH  15  16
ENDBRANCH   3  15
TORSDOF 5
