REMARK  Name = ZINCrD00000l5QeY.0
REMARK                            x       y       z     vdW  Elec       q    Type
REMARK                         _______ _______ _______ _____ _____    ______ ____
ROOT
ATOM      1  N   LIG    1        1.157  -2.058  -0.020  0.00  0.00    -0.690 N 
ATOM      2  H   LIG    1        2.001  -2.537  -0.030  0.00  0.00    +0.420 HD
ENDROOT
BRANCH   1   3
ATOM      3  C   LIG    1        1.148  -0.677  -0.013  0.00  0.00    +0.520 A 
ATOM      4  C   LIG    1        2.352   0.053  -0.020  0.00  0.00    -0.330 A 
ATOM      5  C   LIG    1        3.721  -0.291  -0.035  0.00  0.00    +0.310 A 
ATOM      6  N   LIG    1        4.422   0.807  -0.036  0.00  0.00    -0.240 NA
ATOM      7  N   LIG    1        3.565   1.915  -0.022  0.00  0.00    -0.370 N 
ATOM      8  C   LIG    1        2.280   1.460  -0.012  0.00  0.00    +0.380 A 
ATOM      9  N   LIG    1        1.082   2.041   0.003  0.00  0.00    -0.580 NA
ATOM     10  C   LIG    1       -0.016   1.317   0.009  0.00  0.00    +0.590 A 
ATOM     11  N   LIG    1        0.002  -0.004   0.002  0.00  0.00    -0.600 NA
BRANCH   7  12
ATOM     12  C   LIG    1        3.978   3.320  -0.018  0.00  0.00    +0.440 C 
BRANCH  12  13
ATOM     13  C   LIG    1        4.133   3.795   1.403  0.00  0.00    +0.440 C 
ATOM     14  O   LIG    1        3.920   3.037   2.320  0.00  0.00    -0.490 OA
BRANCH  13  15
ATOM     15  O   LIG    1        4.508   5.060   1.651  0.00  0.00    -0.360 OA
ATOM     16  C   LIG    1        4.637   5.448   3.045  0.00  0.00    +0.270 C 
ENDBRANCH  13  15
ENDBRANCH  12  13
ENDBRANCH   7  12
ENDBRANCH   1   3
BRANCH   1  17
ATOM     17  C   LIG    1       -0.106  -2.799  -0.011  0.00  0.00    +0.370 C 
BRANCH  17  21
ATOM     18  C   LIG    1        1.048  -6.096   1.051  0.00  0.00    -0.000 A 
ATOM     19  C   LIG    1       -0.118  -6.053   1.720  0.00  0.00    -0.060 A 
ATOM     20  C   LIG    1       -0.715  -4.807   1.421  0.00  0.00    -0.030 A 
ATOM     21  C   LIG    1        0.118  -4.167   0.580  0.00  0.00    -0.030 A 
ATOM     22  O   LIG    1        1.186  -4.952   0.362  0.00  0.00    -0.170 OA
BRANCH  18  24
ATOM     23  C   LIG    1        1.697  -8.221  -0.051  0.00  0.00    +0.040 C 
ATOM     24  C   LIG    1        2.034  -7.237   1.071  0.00  0.00    +0.120 C 
ENDBRANCH  18  24
ENDBRANCH  17  21
BRANCH  17  25
ATOM     25  C   LIG    1       -0.624  -2.941  -1.444  0.00  0.00    -0.080 C 
ATOM     26  C   LIG    1       -0.851  -1.553  -2.044  0.00  0.00    +0.040 C 
ATOM     27  C   LIG    1       -1.943  -3.716  -1.435  0.00  0.00    +0.040 C 
ATOM     28  C   LIG    1        0.406  -3.698  -2.285  0.00  0.00    +0.030 C 
ENDBRANCH  17  25
ENDBRANCH   1  17
TORSDOF 8
