REMARK  Name = ZINCqH0000006Lqw.0
REMARK                            x       y       z     vdW  Elec       q    Type
REMARK                         _______ _______ _______ _____ _____    ______ ____
ROOT
ATOM      1  C   LIG    1        4.560   4.336  -1.706  0.00  0.00    +0.510 C 
ATOM      2  N   LIG    1        3.517   3.642  -1.208  0.00  0.00    -0.720 N 
ATOM      3  H   LIG    1        3.221   2.830  -1.648  0.00  0.00    +0.400 HD
ATOM      4  O   LIG    1        4.931   5.351  -1.156  0.00  0.00    -0.520 OA
ENDROOT
BRANCH   2   5
ATOM      5  C   LIG    1        2.831   4.115  -0.003  0.00  0.00    +0.240 C 
ATOM      6  C   LIG    1        3.571   3.608   1.237  0.00  0.00    +0.010 C 
ATOM      7  C   LIG    1        3.592   2.078   1.228  0.00  0.00    +0.010 C 
ATOM      8  C   LIG    1        2.157   1.548   1.239  0.00  0.00    -0.010 C 
ATOM      9  C   LIG    1        2.178   0.019   1.231  0.00  0.00    +0.010 C 
ATOM     10  C   LIG    1        0.742  -0.511   1.242  0.00  0.00    +0.000 C 
ATOM     11  C   LIG    1        0.002  -0.004   0.002  0.00  0.00    +0.000 C 
ATOM     12  C   LIG    1       -0.019   1.526   0.010  0.00  0.00    +0.000 C 
ATOM     13  C   LIG    1        1.417   2.055  -0.000  0.00  0.00    -0.010 C 
ATOM     14  C   LIG    1        1.396   3.585   0.008  0.00  0.00    +0.030 C 
ENDBRANCH   2   5
BRANCH   1  15
ATOM     15  C   LIG    1        5.265   3.850  -2.946  0.00  0.00    +0.110 C 
BRANCH  15  18
ATOM     16  C   LIG    1        8.683   5.458  -3.083  0.00  0.00    +0.150 A 
ATOM     17  C   LIG    1        7.649   4.589  -2.769  0.00  0.00    -0.090 A 
ATOM     18  C   LIG    1        6.386   4.797  -3.290  0.00  0.00    +0.010 A 
ATOM     19  C   LIG    1        6.149   5.869  -4.131  0.00  0.00    -0.090 A 
ATOM     20  C   LIG    1        7.176   6.746  -4.445  0.00  0.00    +0.150 A 
ATOM     21  C   LIG    1        8.447   6.540  -3.923  0.00  0.00    +0.030 A 
BRANCH  16  23
ATOM     22  C   LIG    1       10.094   4.121  -1.713  0.00  0.00    +0.240 C 
ATOM     23  O   LIG    1        9.925   5.253  -2.569  0.00  0.00    -0.300 OA
ENDBRANCH  16  23
BRANCH  20  24
ATOM     24  O   LIG    1        6.940   7.803  -5.268  0.00  0.00    -0.300 OA
ATOM     25  C   LIG    1        5.610   7.952  -5.767  0.00  0.00    +0.240 C 
ENDBRANCH  20  24
BRANCH  21  26
ATOM     26  O   LIG    1        9.459   7.396  -4.233  0.00  0.00    -0.310 OA
ATOM     27  C   LIG    1       10.240   7.085  -5.389  0.00  0.00    +0.210 C 
ENDBRANCH  21  26
ENDBRANCH  15  18
ENDBRANCH   1  15
TORSDOF 6
