REMARK  Name = ZINCrH000004pCVv.0
REMARK                            x       y       z     vdW  Elec       q    Type
REMARK                         _______ _______ _______ _____ _____    ______ ____
ROOT
ATOM      1  N   LIG    1       -5.785  -2.460  -0.594  0.00  0.00    -0.530 NA
ATOM      2  C   LIG    1       -4.463  -3.067  -0.795  0.00  0.00    +0.170 C 
ATOM      3  C   LIG    1       -3.481  -2.498   0.235  0.00  0.00    +0.280 C 
ATOM      4  N   LIG    1       -3.512  -1.030   0.148  0.00  0.00    -0.620 N 
ATOM      5  C   LIG    1       -4.818  -0.356   0.210  0.00  0.00    +0.310 C 
ATOM      6  C   LIG    1       -2.373  -0.321   0.021  0.00  0.00    +0.710 C 
ATOM      7  N   LIG    1       -1.196  -0.958  -0.133  0.00  0.00    -0.690 N 
ATOM      8  H   LIG    1       -1.175  -1.923  -0.227  0.00  0.00    +0.410 HD
ATOM      9  O   LIG    1       -2.408   0.895   0.044  0.00  0.00    -0.570 OA
ATOM     10  C   LIG    1       -5.747  -1.010  -0.825  0.00  0.00    +0.180 C 
ENDROOT
BRANCH   7  11
ATOM     11  C   LIG    1       -0.001  -0.227  -0.155  0.00  0.00    +0.140 A 
ATOM     12  C   LIG    1        1.063  -0.658  -0.945  0.00  0.00    +0.050 A 
ATOM     13  C   LIG    1        2.243   0.053  -0.982  0.00  0.00    +0.030 A 
ATOM     14  C   LIG    1        2.381   1.209  -0.224  0.00  0.00    +0.120 A 
ATOM     15  O   LIG    1        3.529   1.919  -0.247  0.00  0.00    -0.220 OA
ATOM     16  C   LIG    1        3.695   3.036   0.469  0.00  0.00    +0.340 A 
ATOM     17  C   LIG    1        2.737   3.540   1.268  0.00  0.00    -0.170 A 
ATOM     18  C   LIG    1        1.487   2.874   1.370  0.00  0.00    +0.420 A 
ATOM     19  O   LIG    1        0.596   3.302   2.085  0.00  0.00    -0.460 OA
ATOM     20  C   LIG    1        1.312   1.643   0.576  0.00  0.00    -0.200 A 
ATOM     21  C   LIG    1        0.122   0.919   0.611  0.00  0.00    +0.130 A 
ENDBRANCH   7  11
BRANCH   1  23
ATOM     22  C   LIG    1       -8.173  -2.516  -1.136  0.00  0.00    +0.050 C 
ATOM     23  C   LIG    1       -6.795  -3.103  -1.447  0.00  0.00    +0.190 C 
BRANCH  23  24
ATOM     24  C   LIG    1       -6.808  -4.586  -1.179  0.00  0.00    -0.110 A 
ATOM     25  C   LIG    1       -6.809  -5.092   0.055  0.00  0.00    -0.010 A 
ATOM     26  S   LIG    1       -6.826  -6.848  -0.028  0.00  0.00    +0.090 S 
ATOM     27  C   LIG    1       -6.831  -6.795  -1.786  0.00  0.00    -0.050 A 
ATOM     28  C   LIG    1       -6.826  -5.526  -2.195  0.00  0.00    +0.010 A 
ENDBRANCH  23  24
ENDBRANCH   1  23
TORSDOF 3
