REMARK  Name = ZINCrg00000bonFi.0
REMARK                            x       y       z     vdW  Elec       q    Type
REMARK                         _______ _______ _______ _____ _____    ______ ____
ROOT
ATOM      1  C   LIG    1       -1.911   4.684  -0.479  0.00  0.00    +0.200 C 
ENDROOT
BRANCH   1   2
ATOM      2  O   LIG    1       -2.512   3.994   0.619  0.00  0.00    -0.550 OA
ATOM      3  H   LIG    1       -2.173   4.260   1.484  0.00  0.00    +0.380 HD
ENDBRANCH   1   2
BRANCH   1   4
ATOM      4  C   LIG    1       -0.404   4.418  -0.484  0.00  0.00    +0.250 C 
BRANCH   4   6
ATOM      5  C   LIG    1        1.103   2.528  -0.790  0.00  0.00    +0.520 C 
ATOM      6  N   LIG    1       -0.160   2.997  -0.740  0.00  0.00    -0.720 N 
ATOM      7  H   LIG    1       -0.907   2.393  -0.873  0.00  0.00    +0.410 HD
ATOM      8  O   LIG    1        2.037   3.284  -0.628  0.00  0.00    -0.530 OA
BRANCH   5  10
ATOM      9  C   LIG    1        0.757   0.681  -2.408  0.00  0.00    +0.070 C 
ATOM     10  C   LIG    1        1.354   1.066  -1.053  0.00  0.00    +0.040 C 
BRANCH  10  11
ATOM     11  C   LIG    1        2.838   0.805  -1.065  0.00  0.00    -0.110 A 
ATOM     12  C   LIG    1        3.645   1.448  -1.984  0.00  0.00    +0.070 A 
ATOM     13  C   LIG    1        5.008   1.214  -1.991  0.00  0.00    +0.000 A 
ATOM     14  C   LIG    1        5.562   0.327  -1.087  0.00  0.00    +0.040 A 
ATOM     15  C   LIG    1        4.756  -0.321  -0.171  0.00  0.00    -0.020 A 
ATOM     16  C   LIG    1        3.393  -0.083  -0.159  0.00  0.00    +0.100 A 
ATOM     17  F   LIG    1        2.604  -0.717   0.737  0.00  0.00    -0.140 F 
ENDBRANCH  10  11
ENDBRANCH   5  10
ENDBRANCH   4   6
ENDBRANCH   1   4
BRANCH   1  18
ATOM     18  C   LIG    1       -2.163   6.187  -0.336  0.00  0.00    +0.260 C 
BRANCH  18  19
ATOM     19  N   LIG    1       -3.606   6.441  -0.331  0.00  0.00    -0.710 N 
ATOM     20  H   LIG    1       -4.229   5.702  -0.411  0.00  0.00    +0.410 HD
ATOM     21  C   LIG    1       -4.067   7.702  -0.215  0.00  0.00    +0.490 C 
ATOM     22  O   LIG    1       -3.288   8.626  -0.115  0.00  0.00    -0.480 OA
BRANCH  21  23
ATOM     23  C   LIG    1       -5.551   7.964  -0.210  0.00  0.00    +0.260 C 
ATOM     24  F   LIG    1       -6.202   6.947   0.497  0.00  0.00    -0.180 F 
ATOM     25  F   LIG    1       -6.024   7.993  -1.526  0.00  0.00    -0.170 F 
BRANCH  23  26
ATOM     26  C   LIG    1       -5.829   9.310   0.463  0.00  0.00    +0.080 C 
ATOM     27  C   LIG    1       -7.234   9.865   0.172  0.00  0.00    +0.020 C 
ATOM     28  C   LIG    1       -6.576  11.250   0.053  0.00  0.00    +0.040 C 
ATOM     29  C   LIG    1       -5.278  10.514  -0.319  0.00  0.00    +0.080 C 
BRANCH  26  30
ATOM     30  O   LIG    1       -5.483   9.320   1.849  0.00  0.00    -0.510 OA
ATOM     31  H   LIG    1       -5.900   8.616   2.364  0.00  0.00    +0.380 HD
ENDBRANCH  26  30
ENDBRANCH  23  26
ENDBRANCH  21  23
ENDBRANCH  18  19
ENDBRANCH   1  18
TORSDOF 10
