REMARK  Name = ZINCrH000004jZwE.0
REMARK                            x       y       z     vdW  Elec       q    Type
REMARK                         _______ _______ _______ _____ _____    ______ ____
ROOT
ATOM      1  C   LIG    1        0.035  -2.944   5.548  0.00  0.00    -0.690 A 
ATOM      2  C   LIG    1        0.220  -3.814   4.490  0.00  0.00    +0.150 A 
ATOM      3  C   LIG    1        0.404  -3.322   3.212  0.00  0.00    +0.010 A 
ATOM      4  C   LIG    1        0.403  -1.951   2.992  0.00  0.00    +0.200 A 
ATOM      5  C   LIG    1        0.224  -1.079   4.058  0.00  0.00    -0.030 A 
ATOM      6  C   LIG    1        0.034  -1.578   5.332  0.00  0.00    +0.140 A 
ENDROOT
BRANCH   4   7
ATOM      7  N   LIG    1        0.590  -1.448   1.699  0.00  0.00    -0.680 N 
ATOM      8  H   LIG    1        1.079  -0.622   1.566  0.00  0.00    +0.420 HD
ATOM      9  C   LIG    1        0.088  -2.113   0.639  0.00  0.00    +0.510 C 
ATOM     10  O   LIG    1       -0.450  -3.188   0.797  0.00  0.00    -0.500 OA
BRANCH   9  11
ATOM     11  C   LIG    1        0.197  -1.520  -0.742  0.00  0.00    +0.160 C 
BRANCH  11  12
ATOM     12  C   LIG    1       -0.436  -2.454  -1.740  0.00  0.00    -0.180 A 
ATOM     13  C   LIG    1       -1.718  -2.430  -2.111  0.00  0.00    +0.020 A 
ATOM     14  C   LIG    1       -2.073  -3.388  -3.045  0.00  0.00    +0.000 A 
ATOM     15  C   LIG    1       -1.080  -4.189  -3.434  0.00  0.00    -0.040 A 
ATOM     16  S   LIG    1        0.403  -3.738  -2.602  0.00  0.00    +0.110 S 
ENDBRANCH  11  12
ENDBRANCH   9  11
ENDBRANCH   4   7
BRANCH   1  17
ATOM     17  S   LIG    1       -0.200  -3.576   7.176  0.00  0.00    +2.690 S 
ATOM     18  O   LIG    1       -0.583  -4.937   7.026  0.00  0.00    -0.950 OA
ATOM     19  O   LIG    1       -0.990  -2.619   7.868  0.00  0.00    -0.950 OA
BRANCH  17  21
ATOM     20  C   LIG    1        1.777  -2.375   8.576  0.00  0.00    +0.300 C 
ATOM     21  N   LIG    1        1.281  -3.586   7.917  0.00  0.00    -1.000 NA
BRANCH  21  22
ATOM     22  C   LIG    1        2.095  -4.804   7.912  0.00  0.00    +0.340 C 
BRANCH  22  23
ATOM     23  C   LIG    1        1.874  -5.560   9.197  0.00  0.00    -0.120 A 
ATOM     24  C   LIG    1        2.604  -5.234  10.325  0.00  0.00    +0.020 A 
ATOM     25  C   LIG    1        2.398  -5.925  11.505  0.00  0.00    -0.010 A 
ATOM     26  C   LIG    1        1.469  -6.948  11.554  0.00  0.00    +0.010 A 
ATOM     27  C   LIG    1        0.743  -7.276  10.425  0.00  0.00    +0.000 A 
ATOM     28  C   LIG    1        0.945  -6.582   9.246  0.00  0.00    +0.040 A 
ENDBRANCH  22  23
ENDBRANCH  21  22
ENDBRANCH  17  21
ENDBRANCH   1  17
TORSDOF 7
