REMARK  Name = ZINCb80000001Oep.0
REMARK                            x       y       z     vdW  Elec       q    Type
REMARK                         _______ _______ _______ _____ _____    ______ ____
ROOT
ATOM      1  C   LIG    1       -2.513   0.899  -0.219  0.00  0.00    +0.070 C 
ATOM      2  C   LIG    1       -2.974   0.339  -1.586  0.00  0.00    +0.050 C 
ATOM      3  C   LIG    1       -4.513   0.532  -1.511  0.00  0.00    +0.230 C 
ATOM      4  O   LIG    1       -4.663   1.786  -0.811  0.00  0.00    -0.360 OA
ATOM      5  F   LIG    1       -2.316  -0.141   0.696  0.00  0.00    -0.180 F 
ATOM      6  C   LIG    1       -3.676   1.803   0.234  0.00  0.00    +0.160 C 
ATOM      7  C   LIG    1       -3.171   3.232   0.449  0.00  0.00    +0.070 C 
ENDROOT
BRANCH   1  11
ATOM      8  C   LIG    1        0.675   2.873   0.554  0.00  0.00    +0.290 C 
ATOM      9  N   LIG    1       -0.557   2.095   0.710  0.00  0.00    -0.730 N 
ATOM     10  H   LIG    1       -0.871   1.856   1.596  0.00  0.00    +0.410 HD
ATOM     11  C   LIG    1       -1.250   1.705  -0.379  0.00  0.00    +0.520 C 
ATOM     12  O   LIG    1       -0.856   2.003  -1.487  0.00  0.00    -0.510 OA
ENDBRANCH   1  11
TORSDOF 1
