REMARK  Name = ZINCrH000004pyyL.0
REMARK                            x       y       z     vdW  Elec       q    Type
REMARK                         _______ _______ _______ _____ _____    ______ ____
ROOT
ATOM      1  C   LIG    1       -7.002   4.417  -0.988  0.00  0.00    +0.520 C 
ATOM      2  N   LIG    1       -7.979   4.332  -0.063  0.00  0.00    -0.720 N 
ATOM      3  H   LIG    1       -8.573   5.084   0.086  0.00  0.00    +0.400 HD
ATOM      4  O   LIG    1       -6.260   3.477  -1.175  0.00  0.00    -0.510 OA
ENDROOT
BRANCH   2   5
ATOM      5  C   LIG    1       -8.145   3.102   0.716  0.00  0.00    +0.240 C 
ATOM      6  C   LIG    1       -9.003   2.111  -0.072  0.00  0.00    +0.020 C 
ATOM      7  C   LIG    1       -9.145   0.814   0.730  0.00  0.00    +0.280 C 
ATOM      8  N   LIG    1       -9.669   1.138   2.064  0.00  0.00    -0.610 N 
ATOM      9  C   LIG    1       -8.970   2.147   2.872  0.00  0.00    +0.300 C 
ATOM     10  C   LIG    1      -10.769   0.521   2.539  0.00  0.00    +0.590 C 
ATOM     11  O   LIG    1      -11.254   0.871   3.598  0.00  0.00    -0.530 OA
ATOM     12  C   LIG    1       -8.830   3.429   2.045  0.00  0.00    +0.030 C 
BRANCH  10  13
ATOM     13  C   LIG    1      -11.386  -0.578   1.774  0.00  0.00    -0.230 A 
ATOM     14  C   LIG    1      -10.746  -1.519   1.022  0.00  0.00    +0.220 A 
ATOM     15  O   LIG    1      -11.665  -2.335   0.497  0.00  0.00    -0.170 OA
ATOM     16  C   LIG    1      -12.901  -1.964   0.865  0.00  0.00    +0.180 A 
ATOM     17  C   LIG    1      -12.819  -0.884   1.656  0.00  0.00    -0.010 A 
ENDBRANCH  10  13
ENDBRANCH   2   5
BRANCH   1  19
ATOM     18  C   LIG    1       -8.113   5.963  -2.578  0.00  0.00    +0.060 C 
ATOM     19  C   LIG    1       -6.832   5.682  -1.789  0.00  0.00    +0.160 C 
BRANCH  19  20
ATOM     20  O   LIG    1       -5.739   5.528  -2.696  0.00  0.00    -0.270 OA
BRANCH  20  21
ATOM     21  C   LIG    1       -5.116   6.663  -3.111  0.00  0.00    +0.150 A 
ATOM     22  C   LIG    1       -5.611   7.903  -2.736  0.00  0.00    -0.060 A 
ATOM     23  C   LIG    1       -4.981   9.056  -3.164  0.00  0.00    +0.080 A 
ATOM     24  C   LIG    1       -3.854   8.975  -3.961  0.00  0.00    +0.010 A 
ATOM     25  C   LIG    1       -3.354   7.739  -4.332  0.00  0.00    +0.010 A 
ATOM     26 CL   LIG    1       -1.939   7.641  -5.333  0.00  0.00    -0.040 Cl
ATOM     27  C   LIG    1       -3.982   6.582  -3.907  0.00  0.00    -0.070 A 
ATOM     28 CL   LIG    1       -3.355   5.032  -4.373  0.00  0.00    -0.030 Cl
ENDBRANCH  20  21
ENDBRANCH  19  20
ENDBRANCH   1  19
TORSDOF 5
