REMARK  Name = ZINCvU00000004eg.0
REMARK                            x       y       z     vdW  Elec       q    Type
REMARK                         _______ _______ _______ _____ _____    ______ ____
ROOT
ATOM      1  C   LIG    1        2.253  12.376   0.064  0.00  0.00    +0.000 C 
ATOM      2  C   LIG    1        3.038  12.200   1.365  0.00  0.00    +0.100 C 
ENDROOT
BRANCH   1   3
ATOM      3  C   LIG    1        1.798  13.808  -0.058  0.00  0.00    +0.540 C 
ATOM      4  N   LIG    1        2.624  14.735  -0.583  0.00  0.00    -0.660 N 
ATOM      5  H   LIG    1        3.533  14.495  -0.821  0.00  0.00    +0.420 HD
ATOM      6  O   LIG    1        0.689  14.126   0.315  0.00  0.00    -0.490 OA
BRANCH   4   7
ATOM      7  C   LIG    1        2.170  16.044  -0.783  0.00  0.00    +0.150 A 
ATOM      8  C   LIG    1        1.270  16.612   0.108  0.00  0.00    +0.100 A 
ATOM      9  C   LIG    1        0.828  17.906  -0.089  0.00  0.00    -0.160 A 
ATOM     10  C   LIG    1        1.272  18.631  -1.179  0.00  0.00    +0.080 A 
ATOM     11  C   LIG    1        2.164  18.067  -2.072  0.00  0.00    +0.060 A 
ATOM     12  C   LIG    1        2.615  16.775  -1.878  0.00  0.00    -0.030 A 
ATOM     13 CL   LIG    1        3.735  16.067  -3.000  0.00  0.00    -0.040 Cl
BRANCH   9  14
ATOM     14  C   LIG    1       -0.144  18.525   0.881  0.00  0.00    +0.510 C 
ATOM     15  F   LIG    1        0.428  18.558   2.157  0.00  0.00    -0.170 F 
ATOM     16  F   LIG    1       -1.317  17.764   0.916  0.00  0.00    -0.170 F 
ATOM     17  F   LIG    1       -0.446  19.828   0.471  0.00  0.00    -0.170 F 
ENDBRANCH   9  14
ENDBRANCH   4   7
ENDBRANCH   1   3
BRANCH   1  18
ATOM     18  S   LIG    1        0.810  11.284   0.078  0.00  0.00    +0.150 S 
BRANCH  18  22
ATOM     19  C   LIG    1        2.000   7.591   0.075  0.00  0.00    +0.230 A 
ATOM     20  N   LIG    1        3.138   8.241   0.070  0.00  0.00    -0.270 NA
ATOM     21  N   LIG    1        2.909   9.507   0.064  0.00  0.00    -0.280 NA
ATOM     22  C   LIG    1        1.613   9.716   0.074  0.00  0.00    +0.120 A 
ATOM     23  O   LIG    1        1.010   8.511   0.081  0.00  0.00    -0.200 OA
BRANCH  19  27
ATOM     24  C   LIG    1        1.512   3.371   0.088  0.00  0.00    +0.160 A 
ATOM     25  C   LIG    1        0.396   4.197   0.090  0.00  0.00    -0.070 A 
ATOM     26  C   LIG    1        0.549   5.567   0.091  0.00  0.00    +0.100 A 
ATOM     27  C   LIG    1        1.830   6.124   0.080  0.00  0.00    -0.070 A 
ATOM     28  C   LIG    1        2.950   5.289   0.072  0.00  0.00    +0.130 A 
ATOM     29  C   LIG    1        2.787   3.921   0.076  0.00  0.00    +0.000 A 
BRANCH  24  30
ATOM     30  O   LIG    1        1.356   2.022   0.092  0.00  0.00    -0.310 OA
BRANCH  30  32
ATOM     31  C   LIG    1        0.042  -0.006   0.107  0.00  0.00    +0.070 C 
ATOM     32  C   LIG    1        0.017   1.523   0.105  0.00  0.00    +0.190 C 
ENDBRANCH  30  32
ENDBRANCH  24  30
ENDBRANCH  19  27
ENDBRANCH  18  22
ENDBRANCH   1  18
TORSDOF 8
