REMARK  Name = ZINCrg000000tTBP.0
REMARK                            x       y       z     vdW  Elec       q    Type
REMARK                         _______ _______ _______ _____ _____    ______ ____
ROOT
ATOM      1  C   LIG    1       -3.916   5.436  -3.939  0.00  0.00    -0.140 A 
ATOM      2  C   LIG    1       -4.120   4.573  -5.000  0.00  0.00    +0.100 A 
ATOM      3  C   LIG    1       -3.217   3.556  -5.247  0.00  0.00    +0.000 A 
ATOM      4  C   LIG    1       -2.107   3.405  -4.438  0.00  0.00    +0.130 A 
ATOM      5  C   LIG    1       -1.905   4.265  -3.374  0.00  0.00    -0.680 A 
ATOM      6  C   LIG    1       -2.808   5.282  -3.127  0.00  0.00    +0.160 A 
ENDROOT
BRANCH   5   7
ATOM      7  S   LIG    1       -0.493   4.069  -2.339  0.00  0.00    +2.690 S 
ATOM      8  O   LIG    1        0.477   3.375  -3.111  0.00  0.00    -0.950 OA
ATOM      9  O   LIG    1       -0.251   5.337  -1.745  0.00  0.00    -0.950 OA
BRANCH   7  10
ATOM     10  N   LIG    1       -0.926   3.051  -1.107  0.00  0.00    -1.000 NA
ATOM     11  C   LIG    1       -0.756   1.595  -1.232  0.00  0.00    +0.260 C 
ATOM     12  C   LIG    1       -0.013   1.086   0.008  0.00  0.00    +0.220 C 
ATOM     13  O   LIG    1       -0.684   1.548   1.183  0.00  0.00    -0.380 OA
ATOM     14  C   LIG    1       -0.712   2.971   1.319  0.00  0.00    +0.220 C 
ATOM     15  C   LIG    1       -1.491   3.576   0.146  0.00  0.00    +0.270 C 
ENDBRANCH   7  10
ENDBRANCH   5   7
BRANCH   1  16
ATOM     16  C   LIG    1       -4.900   6.545  -3.669  0.00  0.00    +0.380 C 
BRANCH  16  28
ATOM     17  O   LIG    1       -3.199   8.657  -2.804  0.00  0.00    -0.530 OA
ATOM     18  C   LIG    1       -3.687   8.693  -3.917  0.00  0.00    +0.700 C 
ATOM     19  N   LIG    1       -3.471   9.690  -4.798  0.00  0.00    -0.720 N 
ATOM     20  H   LIG    1       -2.920  10.476  -4.664  0.00  0.00    +0.440 HD
ATOM     21  C   LIG    1       -4.241   9.350  -5.997  0.00  0.00    +0.120 C 
ATOM     22  C   LIG    1       -4.900   8.037  -5.662  0.00  0.00    +0.540 C 
ATOM     23  O   LIG    1       -5.636   7.381  -6.369  0.00  0.00    -0.460 OA
ATOM     24  C   LIG    1       -5.286  10.429  -6.309  0.00  0.00    +0.060 C 
ATOM     25  C   LIG    1       -4.621  11.287  -7.415  0.00  0.00    +0.030 C 
ATOM     26  C   LIG    1       -3.866  10.233  -8.263  0.00  0.00    +0.040 C 
ATOM     27  C   LIG    1       -3.335   9.220  -7.224  0.00  0.00    +0.050 C 
ATOM     28  N   LIG    1       -4.497   7.745  -4.406  0.00  0.00    -0.580 N 
ENDBRANCH  16  28
ENDBRANCH   1  16
TORSDOF 4
