REMARK  Name = ZINCkj000005h9MW.1
REMARK                            x       y       z     vdW  Elec       q    Type
REMARK                         _______ _______ _______ _____ _____    ______ ____
ROOT
ATOM      1  N   LIG    1       -1.809   6.084   1.296  0.00  0.00    -0.760 N 
ATOM      2  H   LIG    1       -2.175   6.500   0.500  0.00  0.00    +0.390 HD
ATOM      3  C   LIG    1       -1.642   6.810   2.419  0.00  0.00    +0.710 C 
ATOM      4  N   LIG    1       -1.984   8.114   2.436  0.00  0.00    -0.730 N 
ATOM      5  H   LIG    1       -2.350   8.529   1.640  0.00  0.00    +0.400 HD
ATOM      6  O   LIG    1       -1.184   6.289   3.417  0.00  0.00    -0.570 OA
ENDROOT
BRANCH   1   7
ATOM      7  C   LIG    1       -1.438   4.667   1.278  0.00  0.00    +0.340 C 
BRANCH   7   8
ATOM      8  C   LIG    1       -1.651   4.102  -0.128  0.00  0.00    +0.300 C 
BRANCH   8   9
ATOM      9  C   LIG    1       -0.706   4.777  -1.089  0.00  0.00    -0.110 A 
ATOM     10  C   LIG    1        0.452   4.264  -1.544  0.00  0.00    +0.030 A 
ATOM     11  C   LIG    1        1.013   5.228  -2.413  0.00  0.00    -0.050 A 
ATOM     12  C   LIG    1        0.160   6.268  -2.444  0.00  0.00    +0.230 A 
ATOM     13  O   LIG    1       -0.879   5.989  -1.640  0.00  0.00    -0.180 OA
ENDBRANCH   8   9
BRANCH   8  15
ATOM     14  C   LIG    1       -3.236   3.822  -1.907  0.00  0.00    +0.330 C 
ATOM     15  N   LIG    1       -3.037   4.348  -0.550  0.00  0.00    -0.390 N 
ATOM     16  C   LIG    1       -3.957   3.675   0.376  0.00  0.00    +0.340 C 
ATOM     17  H   LIG    1       -3.219   5.340  -0.544  0.00  0.00    +0.420 HD
ENDBRANCH   8  15
ENDBRANCH   7   8
ENDBRANCH   1   7
BRANCH   4  18
ATOM     18  C   LIG    1       -1.802   8.903   3.657  0.00  0.00    +0.310 C 
BRANCH  18  19
ATOM     19  C   LIG    1       -2.264  10.340   3.409  0.00  0.00    +0.140 C 
ATOM     20  C   LIG    1       -1.966  11.221   4.642  0.00  0.00    +0.010 C 
ATOM     21  C   LIG    1       -3.179  12.176   4.722  0.00  0.00    +0.000 C 
ATOM     22  C   LIG    1       -4.065  11.759   3.528  0.00  0.00    +0.200 C 
ATOM     23  O   LIG    1       -3.700  10.388   3.259  0.00  0.00    -0.370 OA
ENDBRANCH  18  19
ENDBRANCH   4  18
TORSDOF 6
