REMARK  Name = ZINCqH0000000tjU.0
REMARK                            x       y       z     vdW  Elec       q    Type
REMARK                         _______ _______ _______ _____ _____    ______ ____
ROOT
ATOM      1  N   LIG    1       -1.277   7.713   0.470  0.00  0.00    -0.670 N 
ATOM      2  H   LIG    1       -2.117   8.175   0.617  0.00  0.00    +0.410 HD
ATOM      3  C   LIG    1       -0.131   8.414   0.367  0.00  0.00    +0.520 C 
ATOM      4  O   LIG    1        0.929   7.833   0.268  0.00  0.00    -0.500 OA
ENDROOT
BRANCH   1   8
ATOM      5  C   LIG    1       -1.212   3.555   0.154  0.00  0.00    +0.130 A 
ATOM      6  C   LIG    1       -0.158   4.222   0.765  0.00  0.00    +0.040 A 
ATOM      7  C   LIG    1       -0.177   5.598   0.865  0.00  0.00    +0.040 A 
ATOM      8  C   LIG    1       -1.255   6.316   0.364  0.00  0.00    +0.120 A 
ATOM      9  C   LIG    1       -2.312   5.649  -0.242  0.00  0.00    +0.010 A 
ATOM     10  C   LIG    1       -2.290   4.273  -0.347  0.00  0.00    +0.000 A 
BRANCH   5  13
ATOM     11  C   LIG    1        0.011  -0.004   0.043  0.00  0.00    +0.110 C 
ATOM     12  C   LIG    1       -0.013   1.503   0.029  0.00  0.00    +0.510 C 
ATOM     13  N   LIG    1       -1.190   2.159   0.048  0.00  0.00    -0.670 N 
ATOM     14  H   LIG    1       -2.022   1.664  -0.012  0.00  0.00    +0.410 HD
ATOM     15  O   LIG    1        1.028   2.125  -0.005  0.00  0.00    -0.520 OA
ENDBRANCH   5  13
ENDBRANCH   1   8
BRANCH   3  16
ATOM     16  C   LIG    1       -0.166   9.921   0.376  0.00  0.00    +0.100 C 
BRANCH  16  17
ATOM     17  C   LIG    1        1.258  10.465   0.247  0.00  0.00    +0.070 C 
ATOM     18  S   LIG    1        1.931  10.032  -1.385  0.00  0.00    -0.030 S 
ATOM     19  C   LIG    1        1.070  11.156  -2.439  0.00  0.00    -0.150 A 
ATOM     20  C   LIG    1        0.797  10.804  -3.751  0.00  0.00    +0.110 A 
ATOM     21  C   LIG    1        0.140  11.693  -4.582  0.00  0.00    +0.030 A 
ATOM     22  C   LIG    1       -0.244  12.932  -4.100  0.00  0.00    -0.000 A 
ATOM     23  C   LIG    1        0.021  13.286  -2.791  0.00  0.00    +0.010 A 
ATOM     24 CL   LIG    1       -1.064  14.049  -5.146  0.00  0.00    -0.050 Cl
ATOM     25  C   LIG    1        0.678  12.399  -1.944  0.00  0.00    +0.170 A 
ATOM     26  N   LIG    1        0.923  12.777  -0.626  0.00  0.00    -0.650 N 
ATOM     27  H   LIG    1        0.857  13.723  -0.422  0.00  0.00    +0.420 HD
ATOM     28  C   LIG    1        1.239  11.965   0.378  0.00  0.00    +0.530 C 
ATOM     29  O   LIG    1        1.526  12.456   1.450  0.00  0.00    -0.500 OA
ENDBRANCH  16  17
ENDBRANCH   3  16
TORSDOF 4
