REMARK  Name = ZINCpe000000TEGa.0
REMARK                            x       y       z     vdW  Elec       q    Type
REMARK                         _______ _______ _______ _____ _____    ______ ____
ROOT
ATOM      1  C   LIG    1       -0.729   1.579   1.267  0.00  0.00    +0.130 C 
ATOM      2  N   LIG    1       -2.135   1.139   1.269  0.00  0.00    -0.720 N 
ATOM      3  H   LIG    1       -2.455   0.224   1.270  0.00  0.00    +0.440 HD
ATOM      4  C   LIG    1       -2.887   2.255   1.269  0.00  0.00    +0.700 C 
ATOM      5  N   LIG    1       -2.148   3.370   1.267  0.00  0.00    -0.570 N 
ATOM      6  O   LIG    1       -4.102   2.250   1.271  0.00  0.00    -0.510 OA
ATOM      7  C   LIG    1       -0.013   1.086   0.008  0.00  0.00    +0.100 C 
ATOM      8  C   LIG    1       -0.825   3.092   1.267  0.00  0.00    +0.530 C 
ATOM      9  O   LIG    1        0.092   3.884   1.267  0.00  0.00    -0.450 OA
ENDROOT
BRANCH   1  10
ATOM     10  C   LIG    1       -0.008   1.085   2.523  0.00  0.00    +0.080 C 
BRANCH  10  11
ATOM     11  C   LIG    1        0.028  -0.444   2.522  0.00  0.00    +0.120 C 
BRANCH  11  12
ATOM     12  C   LIG    1        0.738  -0.930   3.759  0.00  0.00    +0.460 C 
ATOM     13  O   LIG    1        1.171  -0.135   4.559  0.00  0.00    -0.500 OA
BRANCH  12  14
ATOM     14  O   LIG    1        0.890  -2.247   3.972  0.00  0.00    -0.360 OA
BRANCH  14  16
ATOM     15  C   LIG    1        1.659  -4.170   5.253  0.00  0.00    +0.070 C 
ATOM     16  C   LIG    1        1.584  -2.643   5.184  0.00  0.00    +0.200 C 
ENDBRANCH  14  16
ENDBRANCH  12  14
ENDBRANCH  11  12
ENDBRANCH  10  11
ENDBRANCH   1  10
BRANCH   5  17
ATOM     17  C   LIG    1       -2.703   4.725   1.265  0.00  0.00    +0.460 C 
BRANCH  17  18
ATOM     18  C   LIG    1       -2.892   5.192   2.686  0.00  0.00    +0.240 A 
ATOM     19  N   LIG    1       -3.970   5.034   3.410  0.00  0.00    -0.510 NA
ATOM     20  C   LIG    1       -3.785   5.567   4.617  0.00  0.00    +0.250 A 
ATOM     21  N   LIG    1       -2.585   6.082   4.675  0.00  0.00    -0.300 NA
ATOM     22  N   LIG    1       -1.984   5.850   3.428  0.00  0.00    -0.360 N 
ATOM     23  C   LIG    1       -0.634   6.246   3.016  0.00  0.00    +0.350 C 
BRANCH  20  24
ATOM     24  C   LIG    1       -4.798   5.579   5.733  0.00  0.00    +0.060 C 
ATOM     25  C   LIG    1       -4.476   6.419   6.970  0.00  0.00    +0.050 C 
ATOM     26  C   LIG    1       -4.412   4.892   7.045  0.00  0.00    +0.040 C 
ENDBRANCH  20  24
ENDBRANCH  17  18
ENDBRANCH   5  17
TORSDOF 8
