REMARK  Name = ZINCqH0000003QnW.0
REMARK                            x       y       z     vdW  Elec       q    Type
REMARK                         _______ _______ _______ _____ _____    ______ ____
ROOT
ATOM      1  N   LIG    1        1.420  -0.556   1.519  0.00  0.00    -0.480 N 
ENDROOT
BRANCH   1   2
ATOM      2  C   LIG    1        2.294  -0.502   2.584  0.00  0.00    +0.390 A 
ATOM      3  N   LIG    1        2.057   0.289   3.621  0.00  0.00    -0.540 NA
ATOM      4  C   LIG    1        2.885   0.345   4.652  0.00  0.00    +0.500 A 
ATOM      5  N   LIG    1        3.990  -0.358   4.719  0.00  0.00    -0.510 NA
ATOM      6  C   LIG    1        4.330  -1.188   3.721  0.00  0.00    +0.170 A 
ATOM      7  C   LIG    1        5.502  -1.954   3.759  0.00  0.00    +0.020 A 
ATOM      8  C   LIG    1        5.799  -2.782   2.717  0.00  0.00    +0.060 A 
ATOM      9  C   LIG    1        4.956  -2.878   1.614  0.00  0.00    +0.000 A 
ATOM     10  C   LIG    1        3.807  -2.146   1.545  0.00  0.00    -0.030 A 
ATOM     11  C   LIG    1        2.904  -2.262   0.343  0.00  0.00    +0.110 C 
ATOM     12  C   LIG    1        3.473  -1.288   2.597  0.00  0.00    -0.150 A 
ENDBRANCH   1   2
BRANCH   1  13
ATOM     13  C   LIG    1        0.264  -1.408   1.829  0.00  0.00    +0.310 C 
BRANCH  13  19
ATOM     14  C   LIG    1       -1.335   0.237   2.843  0.00  0.00    +0.150 A 
ATOM     15  C   LIG    1       -2.019   0.753   3.933  0.00  0.00    -0.080 A 
ATOM     16  C   LIG    1       -1.835   0.203   5.187  0.00  0.00    +0.050 A 
ATOM     17  C   LIG    1       -0.974  -0.866   5.354  0.00  0.00    -0.030 A 
ATOM     18  C   LIG    1       -0.295  -1.387   4.268  0.00  0.00    +0.050 A 
ATOM     19  C   LIG    1       -0.476  -0.840   3.012  0.00  0.00    -0.150 A 
BRANCH  14  20
ATOM     20  O   LIG    1       -1.510   0.780   1.610  0.00  0.00    -0.310 OA
BRANCH  20  22
ATOM     21  C   LIG    1       -2.477   2.359   0.056  0.00  0.00    +0.070 C 
ATOM     22  C   LIG    1       -2.409   1.886   1.510  0.00  0.00    +0.170 C 
ENDBRANCH  20  22
ENDBRANCH  14  20
ENDBRANCH  13  19
ENDBRANCH   1  13
BRANCH   1  23
ATOM     23  C   LIG    1        0.989   0.792   1.123  0.00  0.00    +0.210 C 
BRANCH  23  24
ATOM     24  C   LIG    1        2.198   1.588   0.627  0.00  0.00    +0.150 C 
ATOM     25  C   LIG    1        1.803   3.056   0.448  0.00  0.00    +0.060 C 
BRANCH  24  26
ATOM     26  O   LIG    1        2.637   1.057  -0.624  0.00  0.00    -0.560 OA
ATOM     27  H   LIG    1        3.024   0.173  -0.562  0.00  0.00    +0.370 HD
ENDBRANCH  24  26
ENDBRANCH  23  24
ENDBRANCH   1  23
TORSDOF 8
