REMARK  Name = ZINCwl0000000gwd.1
REMARK                            x       y       z     vdW  Elec       q    Type
REMARK                         _______ _______ _______ _____ _____    ______ ____
ROOT
ATOM      1  N   LIG    1       -5.551  -2.664  -1.557  0.00  0.00    -0.370 N 
ATOM      2  N   LIG    1       -5.004  -1.520  -2.152  0.00  0.00    -0.240 NA
ATOM      3  C   LIG    1       -3.753  -1.403  -1.810  0.00  0.00    +0.310 A 
ATOM      4  C   LIG    1       -3.418  -2.482  -0.963  0.00  0.00    -0.330 A 
ATOM      5  C   LIG    1       -2.246  -2.886  -0.293  0.00  0.00    +0.480 A 
ATOM      6  N   LIG    1       -2.286  -3.992   0.440  0.00  0.00    -0.620 NA
ATOM      7  C   LIG    1       -3.403  -4.702   0.553  0.00  0.00    +0.630 A 
ATOM      8  N   LIG    1       -4.525  -4.360  -0.057  0.00  0.00    -0.610 NA
ATOM      9  C   LIG    1       -4.578  -3.268  -0.818  0.00  0.00    +0.400 A 
ENDROOT
BRANCH   5  10
ATOM     10  N   LIG    1       -1.082  -2.152  -0.401  0.00  0.00    -0.460 N 
ATOM     11  C   LIG    1        0.003  -2.765   0.382  0.00  0.00    +0.230 C 
ATOM     12  C   LIG    1        1.329  -2.129  -0.042  0.00  0.00    +0.140 C 
ATOM     13  C   LIG    1        1.206  -0.631  -0.019  0.00  0.00    -0.140 A 
ATOM     14  C   LIG    1        0.002  -0.004   0.002  0.00  0.00    -0.050 A 
ATOM     15  C   LIG    1       -0.017   1.403   0.010  0.00  0.00    +0.230 A 
ATOM     16  N   LIG    1        1.099   2.078   0.003  0.00  0.00    -0.210 NA
ATOM     17  N   LIG    1        2.249   1.508  -0.011  0.00  0.00    -0.350 N 
ATOM     18  C   LIG    1        3.457   2.337  -0.015  0.00  0.00    +0.360 C 
ATOM     19  C   LIG    1        2.372   0.167  -0.023  0.00  0.00    +0.480 A 
ATOM     20  O   LIG    1        3.477  -0.352  -0.037  0.00  0.00    -0.520 OA
ATOM     21  C   LIG    1       -1.295  -0.763   0.022  0.00  0.00    +0.300 C 
ENDBRANCH   5  10
BRANCH   1  23
ATOM     22  C   LIG    1       -7.892  -2.057  -1.191  0.00  0.00    +0.050 C 
ATOM     23  C   LIG    1       -6.932  -3.132  -1.704  0.00  0.00    +0.270 C 
ATOM     24  C   LIG    1       -7.221  -3.411  -3.180  0.00  0.00    +0.050 C 
ENDBRANCH   1  23
BRANCH   7  25
ATOM     25  N   LIG    1       -3.390  -5.844   1.334  0.00  0.00    -0.690 N 
ATOM     26  H   LIG    1       -2.577  -6.111   1.790  0.00  0.00    +0.420 HD
BRANCH  25  27
ATOM     27  C   LIG    1       -4.606  -6.649   1.473  0.00  0.00    +0.270 C 
ATOM     28  C   LIG    1       -5.476  -6.074   2.595  0.00  0.00    +0.050 C 
ATOM     29  C   LIG    1       -6.704  -6.966   2.789  0.00  0.00    +0.260 C 
ATOM     30  N   LIG    1       -6.276  -8.325   3.145  0.00  0.00    -0.390 N 
ATOM     31  C   LIG    1       -5.503  -8.908   2.043  0.00  0.00    +0.270 C 
ATOM     32  C   LIG    1       -7.459  -9.156   3.405  0.00  0.00    +0.310 C 
ATOM     33  H   LIG    1       -5.703  -8.288   3.975  0.00  0.00    +0.430 HD
ATOM     34  C   LIG    1       -4.228  -8.092   1.821  0.00  0.00    +0.060 C 
ENDBRANCH  25  27
ENDBRANCH   7  25
TORSDOF 4
