REMARK  Name = ZINCrH000004u6AF.0
REMARK                            x       y       z     vdW  Elec       q    Type
REMARK                         _______ _______ _______ _____ _____    ______ ____
ROOT
ATOM      1  O   LIG    1       -1.106   1.250  -2.023  0.00  0.00    -0.530 OA
ATOM      2  C   LIG    1       -0.737   2.045  -1.184  0.00  0.00    +0.530 C 
ATOM      3  N   LIG    1       -0.982   3.360  -1.347  0.00  0.00    -0.730 N 
ATOM      4  H   LIG    1       -0.625   4.002  -0.714  0.00  0.00    +0.400 HD
ENDROOT
BRANCH   2   5
ATOM      5  C   LIG    1       -0.004   1.561   0.041  0.00  0.00    +0.040 C 
ATOM      6  C   LIG    1       -0.564   0.203   0.460  0.00  0.00    +0.040 C 
ATOM      7  C   LIG    1        0.331  -0.368   1.566  0.00  0.00    +0.030 C 
ATOM      8  C   LIG    1        1.674  -0.752   0.948  0.00  0.00    +0.080 C 
ATOM      9  C   LIG    1        2.237   0.394   0.151  0.00  0.00    -0.060 A 
ATOM     10  C   LIG    1        3.590   0.360  -0.164  0.00  0.00    +0.000 A 
ATOM     11  C   LIG    1        4.165   1.378  -0.896  0.00  0.00    +0.010 A 
ATOM     12  C   LIG    1        3.390   2.441  -1.321  0.00  0.00    +0.000 A 
ATOM     13  C   LIG    1        2.047   2.478  -1.008  0.00  0.00    +0.000 A 
ATOM     14  C   LIG    1        1.466   1.455  -0.269  0.00  0.00    -0.070 A 
ENDBRANCH   2   5
BRANCH   3  15
ATOM     15  C   LIG    1       -1.789   3.819  -2.480  0.00  0.00    +0.240 C 
ATOM     16  C   LIG    1       -0.893   3.983  -3.711  0.00  0.00    +0.010 C 
ATOM     17  C   LIG    1       -1.746   4.429  -4.902  0.00  0.00    +0.270 C 
ATOM     18  N   LIG    1       -2.483   5.644  -4.527  0.00  0.00    -0.620 N 
ATOM     19  C   LIG    1       -3.304   5.623  -3.309  0.00  0.00    +0.280 C 
ATOM     20  C   LIG    1       -2.407   6.755  -5.286  0.00  0.00    +0.520 C 
ATOM     21  O   LIG    1       -2.939   7.780  -4.915  0.00  0.00    -0.540 OA
ATOM     22  C   LIG    1       -2.434   5.163  -2.135  0.00  0.00    +0.010 C 
BRANCH  20  23
ATOM     23  C   LIG    1       -1.661   6.724  -6.595  0.00  0.00    -0.020 C 
ATOM     24  C   LIG    1       -0.226   7.209  -6.375  0.00  0.00    +0.020 C 
ATOM     25  C   LIG    1        0.532   7.178  -7.704  0.00  0.00    +0.010 C 
ATOM     26  C   LIG    1       -0.168   8.093  -8.711  0.00  0.00    +0.000 C 
ATOM     27  C   LIG    1       -1.602   7.608  -8.931  0.00  0.00    +0.010 C 
ATOM     28  C   LIG    1       -2.360   7.640  -7.602  0.00  0.00    +0.040 C 
ENDBRANCH  20  23
ENDBRANCH   3  15
TORSDOF 3
