REMARK  Name = ZINCtV00000tRP4H.0
REMARK                            x       y       z     vdW  Elec       q    Type
REMARK                         _______ _______ _______ _____ _____    ______ ____
ROOT
ATOM      1  C   LIG    1       -6.468   1.574  -0.793  0.00  0.00    -0.060 A 
ATOM      2  C   LIG    1       -7.232   0.543  -0.277  0.00  0.00    +0.040 A 
ATOM      3  C   LIG    1       -8.573   0.743   0.004  0.00  0.00    -0.030 A 
ATOM      4  C   LIG    1       -9.157   1.970  -0.241  0.00  0.00    +0.040 A 
ATOM      5  C   LIG    1       -8.392   3.010  -0.767  0.00  0.00    -0.030 A 
ATOM      6 CL   LIG    1       -9.523  -0.553   0.660  0.00  0.00    -0.060 Cl
ATOM      7  C   LIG    1       -7.042   2.804  -1.043  0.00  0.00    +0.040 A 
ENDROOT
BRANCH   5   8
ATOM      8  C   LIG    1       -9.014   4.330  -1.034  0.00  0.00    -0.040 A 
ATOM      9  C   LIG    1       -8.248   5.371  -1.555  0.00  0.00    +0.020 A 
ATOM     10  C   LIG    1       -8.833   6.596  -1.806  0.00  0.00    +0.030 A 
ATOM     11  C   LIG    1      -10.174   6.794  -1.532  0.00  0.00    -0.060 A 
ATOM     12  C   LIG    1      -10.937   5.766  -1.009  0.00  0.00    +0.020 A 
ATOM     13  C   LIG    1      -10.364   4.536  -0.759  0.00  0.00    +0.030 A 
BRANCH  11  14
ATOM     14  C   LIG    1      -10.805   8.136  -1.803  0.00  0.00    +0.030 C 
ATOM     15  C   LIG    1      -11.893   8.612  -0.838  0.00  0.00    +0.090 C 
ATOM     16  C   LIG    1      -12.269   8.150  -2.249  0.00  0.00    +0.200 C 
ATOM     17  F   LIG    1      -12.918   6.917  -2.374  0.00  0.00    -0.150 F 
ATOM     18  F   LIG    1      -12.654   9.132  -3.168  0.00  0.00    -0.160 F 
ENDBRANCH  11  14
ENDBRANCH   5   8
BRANCH   1  19
ATOM     19  C   LIG    1       -5.007   1.351  -1.091  0.00  0.00    +0.120 C 
BRANCH  19  22
ATOM     20  N   LIG    1       -2.847   1.576   0.092  0.00  0.00    -0.670 N 
ATOM     21  H   LIG    1       -2.402   1.341  -0.737  0.00  0.00    +0.410 HD
ATOM     22  C   LIG    1       -4.188   1.698   0.126  0.00  0.00    +0.510 C 
ATOM     23  O   LIG    1       -4.737   2.088   1.135  0.00  0.00    -0.500 OA
BRANCH  20  30
ATOM     24  C   LIG    1       -0.090   2.356  -0.166  0.00  0.00    +0.110 C 
ATOM     25  C   LIG    1       -0.758   2.165   1.172  0.00  0.00    -0.080 A 
ATOM     26  C   LIG    1       -0.058   2.367   2.350  0.00  0.00    -0.010 A 
ATOM     27  C   LIG    1       -0.703   2.182   3.559  0.00  0.00    +0.240 A 
ATOM     28  N   LIG    1       -1.969   1.817   3.603  0.00  0.00    -0.470 NA
ATOM     29  C   LIG    1       -2.671   1.614   2.506  0.00  0.00    +0.270 A 
ATOM     30  C   LIG    1       -2.096   1.786   1.254  0.00  0.00    +0.090 A 
ENDBRANCH  20  30
ENDBRANCH  19  22
ENDBRANCH   1  19
TORSDOF 5
