REMARK  Name = ZINCqH0000006RP3.0
REMARK                            x       y       z     vdW  Elec       q    Type
REMARK                         _______ _______ _______ _____ _____    ______ ____
ROOT
ATOM      1  N   LIG    1       -3.045   8.595   0.146  0.00  0.00    -0.670 N 
ATOM      2  H   LIG    1       -3.865   8.079   0.087  0.00  0.00    +0.420 HD
ATOM      3  C   LIG    1       -1.869   7.970   0.353  0.00  0.00    +0.540 C 
ATOM      4  O   LIG    1       -0.857   8.620   0.510  0.00  0.00    -0.490 OA
ENDROOT
BRANCH   1   7
ATOM      5  C   LIG    1       -2.068  12.039  -0.712  0.00  0.00    +0.190 A 
ATOM      6  C   LIG    1       -2.029  10.659  -0.584  0.00  0.00    -0.040 A 
ATOM      7  C   LIG    1       -3.084   9.988   0.017  0.00  0.00    +0.220 A 
ATOM      8  C   LIG    1       -4.182  10.698   0.484  0.00  0.00    -0.070 A 
ATOM      9  C   LIG    1       -4.217  12.078   0.361  0.00  0.00    +0.190 A 
ATOM     10  C   LIG    1       -3.162  12.749  -0.239  0.00  0.00    -0.170 A 
BRANCH   5  12
ATOM     11  C   LIG    1       -1.142  14.118  -1.399  0.00  0.00    +0.250 C 
ATOM     12  O   LIG    1       -1.034  12.697  -1.300  0.00  0.00    -0.310 OA
ENDBRANCH   5  12
BRANCH   9  13
ATOM     13  O   LIG    1       -5.289  12.774   0.824  0.00  0.00    -0.310 OA
ATOM     14  C   LIG    1       -5.261  14.194   0.659  0.00  0.00    +0.250 C 
ENDBRANCH   9  13
ENDBRANCH   1   7
BRANCH   3  15
ATOM     15  C   LIG    1       -1.812   6.465   0.391  0.00  0.00    +0.000 C 
ATOM     16  C   LIG    1       -2.272   5.971   1.764  0.00  0.00    +0.080 C 
BRANCH  15  17
ATOM     17  S   LIG    1       -0.109   5.917   0.091  0.00  0.00    -0.070 S 
BRANCH  17  18
ATOM     18  C   LIG    1       -0.273   4.167  -0.040  0.00  0.00    -0.160 A 
ATOM     19  C   LIG    1       -0.430   3.575  -1.287  0.00  0.00    +0.090 A 
ATOM     20  C   LIG    1       -0.558   2.205  -1.389  0.00  0.00    +0.000 A 
ATOM     21  C   LIG    1       -0.529   1.417  -0.245  0.00  0.00    +0.180 A 
ATOM     22  C   LIG    1       -0.377   2.009   1.002  0.00  0.00    -0.030 A 
ATOM     23  C   LIG    1       -0.244   3.379   1.104  0.00  0.00    +0.090 A 
BRANCH  21  24
ATOM     24  N   LIG    1       -0.659   0.026  -0.349  0.00  0.00    -0.680 N 
ATOM     25  H   LIG    1       -1.068  -0.478   0.371  0.00  0.00    +0.410 HD
ATOM     26  C   LIG    1       -0.215  -0.612  -1.451  0.00  0.00    +0.510 C 
ATOM     27  O   LIG    1        0.371   0.006  -2.314  0.00  0.00    -0.520 OA
ATOM     28  C   LIG    1       -0.448  -2.092  -1.609  0.00  0.00    +0.110 C 
ENDBRANCH  21  24
ENDBRANCH  17  18
ENDBRANCH  15  17
ENDBRANCH   3  15
TORSDOF 7
