REMARK  Name = ZINCpe000000Wivp.0
REMARK                            x       y       z     vdW  Elec       q    Type
REMARK                         _______ _______ _______ _____ _____    ______ ____
ROOT
ATOM      1  C   LIG    1       -3.275  -1.982  -2.998  0.00  0.00    -0.130 A 
ATOM      2  C   LIG    1       -2.512  -1.502  -4.065  0.00  0.00    +0.050 A 
ATOM      3  C   LIG    1       -2.917  -1.737  -5.362  0.00  0.00    -0.040 A 
ATOM      4  C   LIG    1       -4.082  -2.449  -5.610  0.00  0.00    +0.130 A 
ATOM      5  C   LIG    1       -4.848  -2.930  -4.550  0.00  0.00    +0.100 A 
ATOM      6  C   LIG    1       -4.445  -2.704  -3.248  0.00  0.00    +0.040 A 
ENDROOT
BRANCH   1   9
ATOM      7  N   LIG    1       -1.711  -1.040  -1.369  0.00  0.00    -0.720 N 
ATOM      8  H   LIG    1       -1.181  -0.707  -2.110  0.00  0.00    +0.400 HD
ATOM      9  C   LIG    1       -2.843  -1.732  -1.609  0.00  0.00    +0.570 C 
ATOM     10  O   LIG    1       -3.508  -2.150  -0.681  0.00  0.00    -0.530 OA
BRANCH   7  11
ATOM     11  C   LIG    1       -1.282  -0.792   0.010  0.00  0.00    +0.340 C 
BRANCH  11  14
ATOM     12  C   LIG    1        2.390   0.112  -0.020  0.00  0.00    +0.320 A 
ATOM     13  C   LIG    1        1.228  -0.648  -0.013  0.00  0.00    -0.030 A 
ATOM     14  C   LIG    1        0.002  -0.004   0.002  0.00  0.00    -0.030 A 
ATOM     15  C   LIG    1       -0.017   1.384   0.010  0.00  0.00    -0.050 A 
ATOM     16  C   LIG    1        1.178   2.075   0.002  0.00  0.00    +0.300 A 
ATOM     17  N   LIG    1        2.331   1.434  -0.013  0.00  0.00    -0.530 NA
BRANCH  12  19
ATOM     18  C   LIG    1        4.755   0.331  -0.041  0.00  0.00    +0.260 C 
ATOM     19  O   LIG    1        3.597  -0.506  -0.035  0.00  0.00    -0.310 OA
ENDBRANCH  12  19
ENDBRANCH  11  14
ENDBRANCH   7  11
ENDBRANCH   1   9
BRANCH   5  20
ATOM     20  O   LIG    1       -5.989  -3.628  -4.796  0.00  0.00    -0.300 OA
ATOM     21  C   LIG    1       -6.725  -4.090  -3.662  0.00  0.00    +0.250 C 
ENDBRANCH   5  20
BRANCH   4  22
ATOM     22  O   LIG    1       -4.476  -2.678  -6.889  0.00  0.00    -0.270 OA
BRANCH  22  23
ATOM     23  C   LIG    1       -3.644  -2.157  -7.928  0.00  0.00    +0.240 C 
BRANCH  23  24
ATOM     24  C   LIG    1       -4.236  -2.506  -9.269  0.00  0.00    +0.520 C 
ATOM     25  O   LIG    1       -5.268  -3.139  -9.330  0.00  0.00    -0.510 OA
ATOM     26  N   LIG    1       -3.618  -2.115 -10.401  0.00  0.00    -0.850 N 
ATOM     27  H   LIG    1       -3.999  -2.340 -11.264  0.00  0.00    +0.410 HD
ATOM     28  H   LIG    1       -2.792  -1.609 -10.352  0.00  0.00    +0.400 HD
ENDBRANCH  23  24
ENDBRANCH  22  23
ENDBRANCH   4  22
TORSDOF 8
