REMARK  Name = ZINCrD0000074H0p.0
REMARK                            x       y       z     vdW  Elec       q    Type
REMARK                         _______ _______ _______ _____ _____    ______ ____
ROOT
ATOM      1  O   LIG    1       -0.019   1.426  -0.016  0.00  0.00    -0.280 OA
ENDROOT
BRANCH   1   2
ATOM      2  C   LIG    1        1.181   2.059  -0.035  0.00  0.00    +0.180 A 
ATOM      3  C   LIG    1        2.357   1.311  -0.056  0.00  0.00    -0.090 A 
ATOM      4  C   LIG    1        3.572   1.933  -0.075  0.00  0.00    +0.130 A 
ATOM      5  C   LIG    1        3.638   3.330  -0.075  0.00  0.00    -0.170 A 
ATOM      6  C   LIG    1        2.454   4.091  -0.055  0.00  0.00    +0.190 A 
ATOM      7  O   LIG    1        2.524   5.439  -0.057  0.00  0.00    -0.260 OA
ATOM      8  C   LIG    1        3.702   6.080  -0.078  0.00  0.00    +0.520 A 
ATOM      9  C   LIG    1        4.930   5.381  -0.098  0.00  0.00    -0.240 A 
ATOM     10  C   LIG    1        6.353   5.896  -0.123  0.00  0.00    +0.110 C 
ATOM     11  C   LIG    1        7.224   4.693   0.301  0.00  0.00    +0.050 C 
ATOM     12  C   LIG    1        6.343   3.496  -0.117  0.00  0.00    +0.100 C 
ATOM     13  O   LIG    1        3.713   7.298  -0.081  0.00  0.00    -0.460 OA
ATOM     14  C   LIG    1        4.927   4.025  -0.096  0.00  0.00    +0.010 A 
ATOM     15  C   LIG    1        1.228   3.444  -0.040  0.00  0.00    -0.010 A 
ENDBRANCH   1   2
BRANCH   1  16
ATOM     16  C   LIG    1        0.001  -0.003  -0.018  0.00  0.00    +0.240 C 
BRANCH  16  19
ATOM     17  N   LIG    1       -1.640  -1.854   0.008  0.00  0.00    -0.660 N 
ATOM     18  H   LIG    1       -0.898  -2.473  -0.071  0.00  0.00    +0.420 HD
ATOM     19  C   LIG    1       -1.412  -0.526   0.005  0.00  0.00    +0.510 C 
ATOM     20  O   LIG    1       -2.345   0.250   0.022  0.00  0.00    -0.490 OA
BRANCH  17  25
ATOM     21  C   LIG    1       -6.946  -3.822   0.473  0.00  0.00    +0.090 C 
ATOM     22  C   LIG    1       -5.537  -3.301   0.351  0.00  0.00    -0.080 A 
ATOM     23  C   LIG    1       -5.292  -2.131  -0.343  0.00  0.00    +0.020 A 
ATOM     24  C   LIG    1       -4.002  -1.646  -0.453  0.00  0.00    +0.040 A 
ATOM     25  C   LIG    1       -2.949  -2.340   0.123  0.00  0.00    +0.110 A 
ATOM     26  C   LIG    1       -3.197  -3.520   0.823  0.00  0.00    +0.090 A 
ATOM     27  C   LIG    1       -4.493  -3.996   0.934  0.00  0.00    +0.000 A 
BRANCH  26  28
ATOM     28  O   LIG    1       -2.169  -4.202   1.395  0.00  0.00    -0.500 OA
ATOM     29  H   LIG    1       -1.978  -3.935   2.304  0.00  0.00    +0.390 HD
ENDBRANCH  26  28
ENDBRANCH  17  25
ENDBRANCH  16  19
ENDBRANCH   1  16
TORSDOF 5
