REMARK  Name = ZINCkj000005l1Cc.0
REMARK                            x       y       z     vdW  Elec       q    Type
REMARK                         _______ _______ _______ _____ _____    ______ ____
ROOT
ATOM      1  C   LIG    1        3.906   5.647  -0.506  0.00  0.00    +0.180 C 
ATOM      2  C   LIG    1        4.643   4.399   0.034  0.00  0.00    +0.100 C 
ATOM      3  C   LIG    1        3.575   3.329   0.081  0.00  0.00    +0.520 C 
ATOM      4  N   LIG    1        2.356   3.889  -0.001  0.00  0.00    -0.550 N 
ATOM      5  O   LIG    1        3.788   2.139   0.179  0.00  0.00    -0.470 OA
ATOM      6  C   LIG    1        2.446   5.350  -0.105  0.00  0.00    +0.300 C 
ENDROOT
BRANCH   4   7
ATOM      7  C   LIG    1        1.155   3.170   0.008  0.00  0.00    +0.140 A 
ATOM      8  C   LIG    1        1.174   1.782  -0.016  0.00  0.00    +0.000 A 
ATOM      9  C   LIG    1       -0.013   1.076  -0.009  0.00  0.00    +0.040 A 
ATOM     10  C   LIG    1       -1.220   1.750   0.017  0.00  0.00    +0.000 A 
ATOM     11  C   LIG    1       -1.243   3.132   0.046  0.00  0.00    +0.040 A 
ATOM     12  C   LIG    1       -0.059   3.844   0.039  0.00  0.00    -0.030 A 
ENDBRANCH   4   7
BRANCH   1  13
ATOM     13  N   LIG    1        4.396   6.869   0.146  0.00  0.00    -0.500 N 
ATOM     14  H   LIG    1        4.337   6.763   1.148  0.00  0.00    +0.430 HD
ATOM     15  H   LIG    1        3.830   7.653  -0.143  0.00  0.00    +0.430 HD
BRANCH  13  16
ATOM     16  C   LIG    1        5.793   7.104  -0.241  0.00  0.00    +0.390 C 
BRANCH  16  22
ATOM     17  C   LIG    1        5.464  10.054  -1.256  0.00  0.00    +0.340 C 
ATOM     18  N   LIG    1        6.145   9.641  -0.026  0.00  0.00    -0.460 N 
ATOM     19  C   LIG    1        6.741  10.454   0.872  0.00  0.00    +0.460 A 
ATOM     20  N   LIG    1        7.237   9.724   1.833  0.00  0.00    -0.490 NA
ATOM     21  C   LIG    1        6.973   8.432   1.589  0.00  0.00    +0.230 A 
ATOM     22  C   LIG    1        6.295   8.358   0.428  0.00  0.00    -0.130 A 
ENDBRANCH  16  22
ENDBRANCH  13  16
ENDBRANCH   1  13
TORSDOF 4
