REMARK  Name = ZINCrg000000s8V1.0
REMARK                            x       y       z     vdW  Elec       q    Type
REMARK                         _______ _______ _______ _____ _____    ______ ____
ROOT
ATOM      1  C   LIG    1       -1.270   3.271  -1.165  0.00  0.00    +0.510 C 
ATOM      2  N   LIG    1       -0.696   2.052  -1.184  0.00  0.00    -0.690 N 
ATOM      3  H   LIG    1       -0.731   1.513  -1.990  0.00  0.00    +0.420 HD
ATOM      4  O   LIG    1       -1.227   3.946  -0.157  0.00  0.00    -0.500 OA
ENDROOT
BRANCH   2   5
ATOM      5  C   LIG    1       -0.019   1.542   0.011  0.00  0.00    +0.250 C 
ATOM      6  C   LIG    1        0.002  -0.004   0.002  0.00  0.00    +0.080 C 
ATOM      7  C   LIG    1        1.373  -0.297  -0.647  0.00  0.00    +0.270 C 
ATOM      8  N   LIG    1        2.199   0.884  -0.367  0.00  0.00    -0.580 N 
ATOM      9  C   LIG    1        1.442   1.933  -0.001  0.00  0.00    +0.510 C 
ATOM     10  O   LIG    1        1.870   3.033   0.278  0.00  0.00    -0.490 OA
BRANCH   8  11
ATOM     11  C   LIG    1        3.595   0.913  -0.469  0.00  0.00    +0.110 A 
ATOM     12  C   LIG    1        4.198   1.258  -1.671  0.00  0.00    +0.060 A 
ATOM     13  C   LIG    1        5.576   1.293  -1.766  0.00  0.00    +0.020 A 
ATOM     14  C   LIG    1        6.356   0.973  -0.670  0.00  0.00    +0.060 A 
ATOM     15  C   LIG    1        5.760   0.622   0.528  0.00  0.00    -0.010 A 
ATOM     16  C   LIG    1        4.381   0.592   0.632  0.00  0.00    +0.110 A 
ATOM     17  F   LIG    1        3.799   0.250   1.803  0.00  0.00    -0.130 F 
ENDBRANCH   8  11
ENDBRANCH   2   5
BRANCH   1  20
ATOM     18  N   LIG    1       -2.535   5.011  -2.364  0.00  0.00    -0.690 N 
ATOM     19  H   LIG    1       -2.501   5.550  -1.558  0.00  0.00    +0.420 HD
ATOM     20  C   LIG    1       -1.961   3.792  -2.384  0.00  0.00    +0.510 C 
ATOM     21  O   LIG    1       -2.004   3.117  -3.391  0.00  0.00    -0.520 OA
BRANCH  18  22
ATOM     22  C   LIG    1       -3.212   5.521  -3.559  0.00  0.00    +0.350 C 
BRANCH  22  27
ATOM     23  C   LIG    1       -5.395  10.704  -2.442  0.00  0.00    +0.110 C 
ATOM     24  C   LIG    1       -4.790   9.358  -2.751  0.00  0.00    -0.130 A 
ATOM     25  C   LIG    1       -3.544   9.270  -3.352  0.00  0.00    +0.060 A 
ATOM     26  C   LIG    1       -3.026   8.011  -3.617  0.00  0.00    +0.000 A 
ATOM     27  C   LIG    1       -3.765   6.894  -3.275  0.00  0.00    +0.090 A 
ATOM     28  N   LIG    1       -4.950   7.016  -2.709  0.00  0.00    -0.460 NA
ATOM     29  C   LIG    1       -5.470   8.196  -2.438  0.00  0.00    +0.260 A 
ENDBRANCH  22  27
ENDBRANCH  18  22
ENDBRANCH   1  20
TORSDOF 5
