REMARK  Name = ZINCpe00000gMR1v.0
REMARK                            x       y       z     vdW  Elec       q    Type
REMARK                         _______ _______ _______ _____ _____    ______ ____
ROOT
ATOM      1  C   LIG    1        3.790   5.140  -0.006  0.00  0.00    +0.570 C 
ATOM      2  O   LIG    1        3.373   6.285   0.003  0.00  0.00    -0.570 OA
ENDROOT
BRANCH   1   8
ATOM      3  C   LIG    1       -2.577   1.391   0.020  0.00  0.00    +0.180 C 
ATOM      4  C   LIG    1       -1.153   1.882   0.017  0.00  0.00    +0.130 A 
ATOM      5  N   LIG    1       -0.777   3.136   0.025  0.00  0.00    -0.280 NA
ATOM      6  N   LIG    1        0.624   3.180   0.013  0.00  0.00    -0.340 N 
ATOM      7  C   LIG    1        1.496   4.234   0.010  0.00  0.00    +0.430 A 
ATOM      8  C   LIG    1        2.841   4.009  -0.004  0.00  0.00    -0.240 A 
ATOM      9  C   LIG    1        3.331   2.623  -0.015  0.00  0.00    +0.550 A 
ATOM     10  N   LIG    1        2.434   1.615  -0.012  0.00  0.00    -0.630 N 
ATOM     11  H   LIG    1        2.740   0.694  -0.020  0.00  0.00    +0.430 HD
ATOM     12  O   LIG    1        4.526   2.388  -0.027  0.00  0.00    -0.470 OA
ATOM     13  C   LIG    1        1.079   1.893   0.002  0.00  0.00    +0.320 A 
ATOM     14  C   LIG    1       -0.013   1.076   0.008  0.00  0.00    -0.120 A 
ENDBRANCH   1   8
BRANCH   1  15
ATOM     15  N   LIG    1        5.109   4.907  -0.019  0.00  0.00    -0.640 NA
ATOM     16  C   LIG    1        5.963   5.925  -0.022  0.00  0.00    +0.480 A 
ATOM     17  C   LIG    1        5.631   7.297  -0.018  0.00  0.00    -0.110 A 
ATOM     18  C   LIG    1        6.778   8.010  -0.018  0.00  0.00    +0.340 A 
ATOM     19  N   LIG    1        7.835   7.148  -0.032  0.00  0.00    -0.390 N 
ATOM     20  N   LIG    1        7.335   5.838  -0.035  0.00  0.00    -0.470 N 
ATOM     21  H   LIG    1        7.860   5.022  -0.043  0.00  0.00    +0.450 HD
BRANCH  19  22
ATOM     22  C   LIG    1        9.251   7.526  -0.042  0.00  0.00    +0.350 C 
BRANCH  22  23
ATOM     23  C   LIG    1        9.699   7.786  -1.482  0.00  0.00    -0.050 C 
ATOM     24  C   LIG    1       11.205   8.138  -1.537  0.00  0.00    +0.010 C 
ATOM     25  C   LIG    1       11.289   9.280  -2.568  0.00  0.00    +0.190 C 
ATOM     26  O   LIG    1        9.960   9.499  -3.072  0.00  0.00    -0.370 OA
ATOM     27  C   LIG    1        9.043   9.074  -2.041  0.00  0.00    +0.220 C 
ENDBRANCH  22  23
ENDBRANCH  19  22
ENDBRANCH   1  15
TORSDOF 4
