REMARK  Name = ZINCpk00000y6xW3.1
REMARK                            x       y       z     vdW  Elec       q    Type
REMARK                         _______ _______ _______ _____ _____    ______ ____
ROOT
ATOM      1  O   LIG    1       -1.177   3.256  -0.420  0.00  0.00    -0.510 OA
ATOM      2  C   LIG    1       -1.302   2.179   0.130  0.00  0.00    +0.550 C 
ATOM      3  N   LIG    1       -0.256   1.626   0.775  0.00  0.00    -0.610 N 
ATOM      4  C   LIG    1       -0.409   0.377   1.537  0.00  0.00    +0.250 C 
ATOM      5  C   LIG    1        0.189   0.586   2.933  0.00  0.00    +0.210 C 
ATOM      6  O   LIG    1        1.520   1.091   2.804  0.00  0.00    -0.380 OA
ATOM      7  C   LIG    1        1.602   2.368   2.166  0.00  0.00    +0.230 C 
ATOM      8  C   LIG    1        1.076   2.250   0.731  0.00  0.00    +0.230 C 
ENDROOT
BRANCH   2   9
ATOM      9  C   LIG    1       -2.602   1.477   0.093  0.00  0.00    -0.120 A 
ATOM     10  C   LIG    1       -2.641   0.080   0.086  0.00  0.00    +0.050 A 
ATOM     11  C   LIG    1       -3.851  -0.574   0.056  0.00  0.00    +0.020 A 
ATOM     12  C   LIG    1       -5.040   0.159   0.023  0.00  0.00    +0.010 A 
ATOM     13  C   LIG    1       -5.001   1.555   0.025  0.00  0.00    +0.070 A 
ATOM     14  C   LIG    1       -3.791   2.209   0.060  0.00  0.00    +0.080 A 
BRANCH  12  15
ATOM     15  C   LIG    1       -6.340  -0.544  -0.014  0.00  0.00    +0.210 A 
ATOM     16  N   LIG    1       -7.531   0.013  -0.042  0.00  0.00    -0.270 NA
ATOM     17  N   LIG    1       -8.434  -0.901  -0.072  0.00  0.00    -0.290 NA
ATOM     18  C   LIG    1       -7.875  -2.082  -0.057  0.00  0.00    +0.400 A 
ATOM     19  N   LIG    1       -6.534  -1.899  -0.020  0.00  0.00    -0.580 N 
ATOM     20  H   LIG    1       -5.851  -2.588  -0.001  0.00  0.00    +0.430 HD
ENDBRANCH  12  15
ENDBRANCH   2   9
BRANCH   8  21
ATOM     21  C   LIG    1        0.973   3.642   0.105  0.00  0.00    +0.040 C 
ATOM     22  C   LIG    1        0.175   4.582   1.033  0.00  0.00    +0.030 C 
ATOM     23  C   LIG    1        0.886   5.950   0.890  0.00  0.00    +0.020 C 
ATOM     24  C   LIG    1        2.380   5.551   0.798  0.00  0.00    -0.020 C 
ATOM     25  C   LIG    1        2.375   4.258  -0.046  0.00  0.00    +0.150 C 
BRANCH  25  26
ATOM     26  O   LIG    1        3.363   3.350   0.443  0.00  0.00    -0.560 OA
ATOM     27  H   LIG    1        4.269   3.681   0.376  0.00  0.00    +0.380 HD
ENDBRANCH  25  26
ENDBRANCH   8  21
TORSDOF 4
