REMARK  Name = ZINCpk00000y6xW3.0
REMARK                            x       y       z     vdW  Elec       q    Type
REMARK                         _______ _______ _______ _____ _____    ______ ____
ROOT
ATOM      1  O   LIG    1       -0.555   2.793   2.840  0.00  0.00    -0.520 OA
ATOM      2  C   LIG    1       -1.483   3.240   3.485  0.00  0.00    +0.560 C 
ATOM      3  N   LIG    1       -2.504   3.857   2.857  0.00  0.00    -0.610 N 
ATOM      4  C   LIG    1       -3.566   4.533   3.621  0.00  0.00    +0.240 C 
ATOM      5  C   LIG    1       -4.922   4.040   3.105  0.00  0.00    +0.200 C 
ATOM      6  O   LIG    1       -4.968   4.190   1.684  0.00  0.00    -0.380 OA
ATOM      7  C   LIG    1       -3.995   3.414   0.981  0.00  0.00    +0.220 C 
ATOM      8  C   LIG    1       -2.591   3.875   1.389  0.00  0.00    +0.230 C 
ENDROOT
BRANCH   2   9
ATOM      9  C   LIG    1       -1.492   3.108   4.956  0.00  0.00    -0.120 A 
ATOM     10  C   LIG    1       -2.701   2.936   5.635  0.00  0.00    +0.030 A 
ATOM     11  C   LIG    1       -2.708   2.807   7.005  0.00  0.00    +0.050 A 
ATOM     12  C   LIG    1       -1.509   2.859   7.717  0.00  0.00    +0.010 A 
ATOM     13  C   LIG    1       -0.302   3.036   7.041  0.00  0.00    +0.060 A 
ATOM     14  C   LIG    1       -0.293   3.160   5.670  0.00  0.00    +0.070 A 
BRANCH  12  15
ATOM     15  C   LIG    1       -1.518   2.726   9.194  0.00  0.00    +0.260 A 
ATOM     16  N   LIG    1       -2.587   2.556   9.942  0.00  0.00    -0.300 NA
ATOM     17  N   LIG    1       -2.141   2.480  11.272  0.00  0.00    -0.480 N 
ATOM     18  H   LIG    1       -2.690   2.356  12.062  0.00  0.00    +0.450 HD
ATOM     19  C   LIG    1       -0.802   2.612  11.234  0.00  0.00    +0.500 A 
ATOM     20  N   LIG    1       -0.438   2.753   9.988  0.00  0.00    -0.530 NA
ENDBRANCH  12  15
ENDBRANCH   2   9
BRANCH   8  21
ATOM     21  C   LIG    1       -1.546   2.925   0.799  0.00  0.00    +0.040 C 
ATOM     22  C   LIG    1       -1.873   1.467   1.189  0.00  0.00    +0.020 C 
ATOM     23  C   LIG    1       -1.494   0.646  -0.069  0.00  0.00    +0.020 C 
ATOM     24  C   LIG    1       -1.933   1.572  -1.231  0.00  0.00    -0.020 C 
ATOM     25  C   LIG    1       -1.582   2.991  -0.738  0.00  0.00    +0.160 C 
BRANCH  25  26
ATOM     26  O   LIG    1       -2.581   3.919  -1.166  0.00  0.00    -0.560 OA
ATOM     27  H   LIG    1       -2.666   3.989  -2.127  0.00  0.00    +0.380 HD
ENDBRANCH  25  26
ENDBRANCH   8  21
TORSDOF 4
