REMARK  Name = ZINCpk00000y6yN3.0
REMARK                            x       y       z     vdW  Elec       q    Type
REMARK                         _______ _______ _______ _____ _____    ______ ____
ROOT
ATOM      1  C   LIG    1       -1.292  -0.776   0.024  0.00  0.00    +0.270 C 
ATOM      2  C   LIG    1       -2.039  -0.537   1.337  0.00  0.00    +0.290 C 
ATOM      3  N   LIG    1       -3.119  -1.501   1.500  0.00  0.00    -0.710 N 
ATOM      4  H   LIG    1       -3.846  -1.267   2.098  0.00  0.00    +0.410 HD
ATOM      5  C   LIG    1       -3.178  -2.683   0.885  0.00  0.00    +0.510 C 
ATOM      6  C   LIG    1       -2.167  -3.127  -0.137  0.00  0.00    +0.350 C 
ATOM      7  O   LIG    1       -4.090  -3.434   1.161  0.00  0.00    -0.530 OA
ATOM      8  N   LIG    1       -1.013  -2.217  -0.090  0.00  0.00    -0.610 N 
ATOM      9  C   LIG    1        0.250  -2.684  -0.150  0.00  0.00    +0.550 C 
ATOM     10  O   LIG    1        1.185  -1.921  -0.030  0.00  0.00    -0.500 OA
ENDROOT
BRANCH   9  11
ATOM     11  C   LIG    1        0.501  -4.154  -0.366  0.00  0.00    -0.050 C 
ATOM     12  C   LIG    1        1.113  -4.578  -1.703  0.00  0.00    +0.080 C 
ATOM     13  C   LIG    1        1.957  -4.621  -0.426  0.00  0.00    +0.060 C 
BRANCH  13  14
ATOM     14  C   LIG    1        2.277  -5.976   0.150  0.00  0.00    -0.060 A 
ATOM     15  C   LIG    1        1.666  -7.107  -0.360  0.00  0.00    +0.000 A 
ATOM     16  C   LIG    1        1.964  -8.350   0.165  0.00  0.00    +0.010 A 
ATOM     17  C   LIG    1        2.865  -8.462   1.208  0.00  0.00    -0.070 A 
ATOM     18  C   LIG    1        3.472  -7.332   1.722  0.00  0.00    +0.000 A 
ATOM     19  C   LIG    1        3.178  -6.089   1.193  0.00  0.00    +0.020 A 
BRANCH  17  20
ATOM     20  C   LIG    1        3.184  -9.817   1.785  0.00  0.00    +0.020 C 
ATOM     21  C   LIG    1        3.772 -10.711   0.691  0.00  0.00    +0.030 C 
ATOM     22  C   LIG    1        1.905 -10.454   2.331  0.00  0.00    +0.030 C 
ENDBRANCH  17  20
ENDBRANCH  13  14
ENDBRANCH   9  11
BRANCH   1  23
ATOM     23  C   LIG    1        0.003  -0.006   0.028  0.00  0.00    +0.490 C 
ATOM     24  O   LIG    1        0.338   0.618  -0.951  0.00  0.00    -0.500 OA
BRANCH  23  26
ATOM     25  C   LIG    1        2.017   0.752   1.052  0.00  0.00    +0.270 C 
ATOM     26  O   LIG    1        0.784  -0.012   1.119  0.00  0.00    -0.340 OA
ENDBRANCH  23  26
ENDBRANCH   1  23
TORSDOF 5
