REMARK  Name = ZINCrD0000075ti8.0
REMARK                            x       y       z     vdW  Elec       q    Type
REMARK                         _______ _______ _______ _____ _____    ______ ____
ROOT
ATOM      1  C   LIG    1       -2.598   2.916   4.312  0.00  0.00    +0.150 A 
ATOM      2  C   LIG    1       -3.012   1.738   3.699  0.00  0.00    -0.020 A 
ATOM      3  C   LIG    1       -2.681   1.517   2.374  0.00  0.00    +0.200 A 
ATOM      4  C   LIG    1       -1.935   2.480   1.708  0.00  0.00    -0.750 A 
ATOM      5  C   LIG    1       -1.558   3.627   2.378  0.00  0.00    +0.400 A 
ATOM      6  N   LIG    1       -1.891   3.813   3.641  0.00  0.00    -0.510 NA
ENDROOT
BRANCH   4   7
ATOM      7  S   LIG    1       -1.482   2.246   0.021  0.00  0.00    +2.690 S 
ATOM      8  O   LIG    1       -2.423   1.331  -0.524  0.00  0.00    -0.950 OA
ATOM      9  O   LIG    1       -1.255   3.541  -0.517  0.00  0.00    -0.950 OA
BRANCH   7  10
ATOM     10  N   LIG    1       -0.018   1.472   0.010  0.00  0.00    -0.990 NA
ATOM     11  C   LIG    1        1.188   2.270   0.003  0.00  0.00    +0.280 C 
ATOM     12  C   LIG    1        1.597   2.579  -1.458  0.00  0.00    +0.010 C 
ATOM     13  C   LIG    1        2.102   1.365  -2.116  0.00  0.00    +0.000 C 
ATOM     14  C   LIG    1        1.074   0.244  -2.241  0.00  0.00    +0.010 C 
ATOM     15  C   LIG    1        1.058  -0.565  -0.968  0.00  0.00    +0.020 C 
ATOM     16  C   LIG    1        0.002  -0.004   0.002  0.00  0.00    +0.280 C 
ENDBRANCH   7  10
ENDBRANCH   4   7
BRANCH   1  17
ATOM     17  S   LIG    1       -3.015   3.216   5.997  0.00  0.00    +0.010 S 
BRANCH  17  18
ATOM     18  C   LIG    1       -2.267   4.837   6.321  0.00  0.00    +0.090 C 
BRANCH  18  20
ATOM     19  O   LIG    1       -3.178   4.508   8.473  0.00  0.00    -0.430 OA
ATOM     20  C   LIG    1       -2.541   5.241   7.746  0.00  0.00    +0.420 C 
BRANCH  20  21
ATOM     21  C   LIG    1       -2.036   6.523   8.256  0.00  0.00    -0.180 A 
ATOM     22  C   LIG    1       -1.295   7.368   7.421  0.00  0.00    +0.090 A 
ATOM     23  C   LIG    1       -0.830   8.566   7.900  0.00  0.00    -0.020 A 
ATOM     24  C   LIG    1       -1.084   8.937   9.216  0.00  0.00    +0.150 A 
ATOM     25  C   LIG    1       -1.815   8.098  10.051  0.00  0.00    -0.020 A 
ATOM     26  C   LIG    1       -2.289   6.901   9.581  0.00  0.00    +0.100 A 
BRANCH  24  27
ATOM     27  O   LIG    1       -0.617  10.120   9.688  0.00  0.00    -0.500 OA
ATOM     28  H   LIG    1        0.265  10.066  10.080  0.00  0.00    +0.400 HD
ENDBRANCH  24  27
ENDBRANCH  20  21
ENDBRANCH  18  20
ENDBRANCH  17  18
ENDBRANCH   1  17
TORSDOF 7
