REMARK  Name = ZINCpe00000yKOE2.0
REMARK                            x       y       z     vdW  Elec       q    Type
REMARK                         _______ _______ _______ _____ _____    ______ ____
ROOT
ATOM      1  N   LIG    1       -2.042   0.903  -1.484  0.00  0.00    -0.680 N 
ATOM      2  H   LIG    1       -1.987  -0.058  -1.368  0.00  0.00    +0.410 HD
ATOM      3  C   LIG    1       -2.954   1.429  -2.326  0.00  0.00    +0.580 C 
ATOM      4  O   LIG    1       -3.092   2.635  -2.396  0.00  0.00    -0.520 OA
ENDROOT
BRANCH   3   5
ATOM      5  C   LIG    1       -3.788   0.540  -3.163  0.00  0.00    +0.060 A 
ATOM      6  C   LIG    1       -4.729   1.093  -4.031  0.00  0.00    +0.060 A 
ATOM      7  C   LIG    1       -5.504   0.254  -4.810  0.00  0.00    +0.050 A 
ATOM      8  C   LIG    1       -5.310  -1.125  -4.696  0.00  0.00    -0.010 A 
ATOM      9  C   LIG    1       -4.347  -1.605  -3.804  0.00  0.00    +0.250 A 
ATOM     10  N   LIG    1       -3.627  -0.777  -3.084  0.00  0.00    -0.450 NA
BRANCH   8  11
ATOM     11  C   LIG    1       -6.116  -2.067  -5.510  0.00  0.00    -0.210 A 
ATOM     12  C   LIG    1       -6.026  -3.430  -5.494  0.00  0.00    +0.280 A 
ATOM     13  N   LIG    1       -6.926  -3.908  -6.375  0.00  0.00    -0.470 N 
ATOM     14  H   LIG    1       -7.085  -4.844  -6.573  0.00  0.00    +0.450 HD
ATOM     15  N   LIG    1       -7.592  -2.822  -6.954  0.00  0.00    -0.290 NA
ATOM     16  C   LIG    1       -7.118  -1.719  -6.438  0.00  0.00    +0.260 A 
ENDBRANCH   8  11
ENDBRANCH   3   5
BRANCH   1  17
ATOM     17  C   LIG    1       -1.133   1.783  -0.746  0.00  0.00    +0.080 C 
ATOM     18  C   LIG    1       -0.221   1.139   0.301  0.00  0.00    +0.040 C 
ATOM     19  C   LIG    1       -1.409   1.996   0.744  0.00  0.00    +0.040 C 
BRANCH  17  20
ATOM     20  C   LIG    1       -0.573   2.967  -1.537  0.00  0.00    +0.330 C 
BRANCH  20  22
ATOM     21  C   LIG    1        1.260   3.408  -3.080  0.00  0.00    +0.510 C 
ATOM     22  N   LIG    1        0.544   2.515  -2.369  0.00  0.00    -0.730 N 
ATOM     23  H   LIG    1        0.769   1.572  -2.409  0.00  0.00    +0.400 HD
ATOM     24  O   LIG    1        0.980   4.587  -3.031  0.00  0.00    -0.510 OA
BRANCH  21  25
ATOM     25  C   LIG    1        2.410   2.942  -3.936  0.00  0.00    +0.160 C 
ATOM     26  C   LIG    1        1.879   2.057  -5.066  0.00  0.00    +0.040 C 
BRANCH  25  28
ATOM     27  C   LIG    1        4.474   3.871  -4.726  0.00  0.00    +0.200 C 
ATOM     28  O   LIG    1        3.079   4.076  -4.493  0.00  0.00    -0.360 OA
ENDBRANCH  25  28
ENDBRANCH  21  25
ENDBRANCH  20  22
ENDBRANCH  17  20
ENDBRANCH   1  17
TORSDOF 7
