REMARK  Name = ZINCrH000004pVtK.0
REMARK                            x       y       z     vdW  Elec       q    Type
REMARK                         _______ _______ _______ _____ _____    ______ ____
ROOT
ATOM      1  C   LIG    1        3.892  -2.218  -1.889  0.00  0.00    +0.040 C 
ENDROOT
BRANCH   1   2
ATOM      2  C   LIG    1        3.964  -3.681  -2.242  0.00  0.00    +0.520 C 
ATOM      3  N   LIG    1        4.133  -4.058  -3.525  0.00  0.00    -0.730 N 
ATOM      4  H   LIG    1        4.209  -3.386  -4.221  0.00  0.00    +0.400 HD
ATOM      5  O   LIG    1        3.870  -4.521  -1.371  0.00  0.00    -0.540 OA
BRANCH   3   6
ATOM      6  C   LIG    1        4.203  -5.480  -3.868  0.00  0.00    +0.340 C 
BRANCH   6   7
ATOM      7  C   LIG    1        4.394  -5.629  -5.355  0.00  0.00    -0.110 A 
ATOM      8  C   LIG    1        3.400  -5.917  -6.173  0.00  0.00    +0.000 A 
ATOM      9  S   LIG    1        3.948  -6.018  -7.835  0.00  0.00    +0.100 S 
ATOM     10  C   LIG    1        5.609  -5.659  -7.381  0.00  0.00    -0.140 A 
ATOM     11  C   LIG    1        6.761  -5.547  -8.164  0.00  0.00    +0.050 A 
ATOM     12  C   LIG    1        7.970  -5.253  -7.577  0.00  0.00    +0.030 A 
ATOM     13  C   LIG    1        8.052  -5.067  -6.204  0.00  0.00    +0.020 A 
ATOM     14  C   LIG    1        6.942  -5.173  -5.423  0.00  0.00    +0.050 A 
ATOM     15  C   LIG    1        5.689  -5.473  -5.998  0.00  0.00    -0.070 A 
ENDBRANCH   6   7
ENDBRANCH   3   6
ENDBRANCH   1   2
BRANCH   1  16
ATOM     16  C   LIG    1        3.699  -2.067  -0.379  0.00  0.00    +0.320 C 
BRANCH  16  26
ATOM     17  C   LIG    1        5.949   2.214   0.272  0.00  0.00    +0.100 C 
ATOM     18  C   LIG    1        4.654   1.497   0.660  0.00  0.00    +0.180 C 
ATOM     19  O   LIG    1        3.552   2.104  -0.019  0.00  0.00    -0.300 OA
ATOM     20  C   LIG    1        2.378   1.419  -0.013  0.00  0.00    +0.080 A 
ATOM     21  C   LIG    1        1.169   2.091   0.002  0.00  0.00    +0.030 A 
ATOM     22  C   LIG    1       -0.017   1.378   0.010  0.00  0.00    +0.030 A 
ATOM     23  C   LIG    1        0.002  -0.004   0.002  0.00  0.00    +0.020 A 
ATOM     24  C   LIG    1        1.207  -0.684  -0.013  0.00  0.00    +0.000 A 
ATOM     25  C   LIG    1        2.397   0.025  -0.020  0.00  0.00    +0.090 A 
ATOM     26  N   LIG    1        3.629  -0.644  -0.035  0.00  0.00    -0.550 N 
ATOM     27  C   LIG    1        4.751   0.043   0.271  0.00  0.00    +0.490 C 
ATOM     28  O   LIG    1        5.831  -0.507   0.234  0.00  0.00    -0.500 OA
ENDBRANCH  16  26
ENDBRANCH   1  16
TORSDOF 5
