REMARK  Name = ZINCpk000000p8ix.0
REMARK                            x       y       z     vdW  Elec       q    Type
REMARK                         _______ _______ _______ _____ _____    ______ ____
ROOT
ATOM      1  C   LIG    1        3.435   0.465  -3.897  0.00  0.00    +0.340 C 
ATOM      2  C   LIG    1        3.810   0.613  -5.387  0.00  0.00    +0.050 C 
ATOM      3  C   LIG    1        2.830   1.708  -5.885  0.00  0.00    +0.040 C 
ATOM      4  C   LIG    1        1.556   1.380  -5.062  0.00  0.00    +0.250 C 
ATOM      5  N   LIG    1        2.061   0.962  -3.741  0.00  0.00    -0.610 N 
ATOM      6  C   LIG    1        1.373   1.021  -2.583  0.00  0.00    +0.560 C 
ATOM      7  O   LIG    1        1.888   0.644  -1.552  0.00  0.00    -0.520 OA
ENDROOT
BRANCH   6   8
ATOM      8  C   LIG    1       -0.036   1.556  -2.570  0.00  0.00    -0.060 C 
ATOM      9  C   LIG    1       -0.277   2.896  -1.869  0.00  0.00    +0.070 C 
ATOM     10  C   LIG    1       -0.762   1.597  -1.227  0.00  0.00    -0.090 C 
ATOM     11  C   LIG    1       -0.013   1.086   0.008  0.00  0.00    +0.060 C 
ATOM     12  C   LIG    1       -0.739   1.584   1.263  0.00  0.00    +0.200 C 
ATOM     13  O   LIG    1       -2.118   1.202   1.189  0.00  0.00    -0.390 OA
ATOM     14  C   LIG    1       -2.845   1.805   0.117  0.00  0.00    +0.220 C 
ATOM     15  C   LIG    1       -2.269   1.323  -1.220  0.00  0.00    +0.040 C 
ENDBRANCH   6   8
BRANCH   1  21
ATOM     16  C   LIG    1        4.488  -1.597  -2.688  0.00  0.00    -0.020 A 
ATOM     17  N   LIG    1        4.134  -2.871  -2.604  0.00  0.00    -0.210 NA
ATOM     18  N   LIG    1        3.057  -3.041  -3.286  0.00  0.00    -0.220 N 
ATOM     19  H   LIG    1        2.599  -3.890  -3.385  0.00  0.00    +0.480 HD
ATOM     20  N   LIG    1        2.667  -1.939  -3.820  0.00  0.00    -0.270 NA
ATOM     21  C   LIG    1        3.505  -0.985  -3.492  0.00  0.00    +0.070 A 
BRANCH  16  22
ATOM     22  C   LIG    1        5.662  -0.953  -2.066  0.00  0.00    +0.570 C 
ATOM     23  O   LIG    1        5.860   0.234  -2.227  0.00  0.00    -0.490 OA
BRANCH  22  24
ATOM     24  O   LIG    1        6.514  -1.683  -1.319  0.00  0.00    -0.340 OA
BRANCH  24  26
ATOM     25  C   LIG    1        8.495  -1.969   0.068  0.00  0.00    +0.070 C 
ATOM     26  C   LIG    1        7.646  -0.984  -0.739  0.00  0.00    +0.200 C 
ENDBRANCH  24  26
ENDBRANCH  22  24
ENDBRANCH  16  22
ENDBRANCH   1  21
TORSDOF 5
