REMARK  Name = ZINCpk00000e9Dqm.0
REMARK                            x       y       z     vdW  Elec       q    Type
REMARK                         _______ _______ _______ _____ _____    ______ ____
ROOT
ATOM      1  N   LIG    1        1.537  -3.993  -0.322  0.00  0.00    -0.740 N 
ATOM      2  H   LIG    1        2.005  -3.857  -1.160  0.00  0.00    +0.400 HD
ATOM      3  C   LIG    1        0.970  -2.946   0.310  0.00  0.00    +0.710 C 
ATOM      4  N   LIG    1        1.053  -1.711  -0.224  0.00  0.00    -0.740 N 
ATOM      5  H   LIG    1        1.521  -1.576  -1.062  0.00  0.00    +0.400 HD
ATOM      6  O   LIG    1        0.383  -3.115   1.361  0.00  0.00    -0.590 OA
ENDROOT
BRANCH   4   7
ATOM      7  C   LIG    1        0.436  -0.573   0.463  0.00  0.00    +0.290 C 
ATOM      8  C   LIG    1       -1.048  -0.431   0.065  0.00  0.00    +0.090 C 
ATOM      9  C   LIG    1       -1.309   1.060   0.035  0.00  0.00    -0.080 A 
ATOM     10  C   LIG    1       -2.502   1.763   0.048  0.00  0.00    +0.010 A 
ATOM     11  C   LIG    1       -2.496   3.144   0.019  0.00  0.00    +0.020 A 
ATOM     12  C   LIG    1       -1.295   3.827  -0.035  0.00  0.00    +0.010 A 
ATOM     13  C   LIG    1       -0.104   3.127  -0.054  0.00  0.00    +0.030 A 
ATOM     14  C   LIG    1       -0.108   1.744  -0.019  0.00  0.00    -0.140 A 
ATOM     15  C   LIG    1        1.041   0.758  -0.030  0.00  0.00    +0.220 C 
BRANCH  15  16
ATOM     16  O   LIG    1        2.075   1.191   0.856  0.00  0.00    -0.550 OA
ATOM     17  H   LIG    1        2.493   2.024   0.597  0.00  0.00    +0.380 HD
ENDBRANCH  15  16
ENDBRANCH   4   7
BRANCH   1  18
ATOM     18  C   LIG    1        1.447  -5.335   0.259  0.00  0.00    +0.380 C 
BRANCH  18  24
ATOM     19  C   LIG    1        3.506  -6.675  -0.560  0.00  0.00    +0.110 A 
ATOM     20  N   LIG    1        3.753  -7.551  -1.499  0.00  0.00    -0.270 NA
ATOM     21  N   LIG    1        2.567  -7.783  -2.208  0.00  0.00    -0.380 N 
ATOM     22  C   LIG    1        1.598  -7.019  -1.658  0.00  0.00    +0.280 A 
ATOM     23  C   LIG    1        2.405  -8.697  -3.342  0.00  0.00    +0.370 C 
ATOM     24  C   LIG    1        2.157  -6.317  -0.636  0.00  0.00    -0.260 A 
BRANCH  19  26
ATOM     25  C   LIG    1        4.510  -7.028   1.680  0.00  0.00    +0.040 C 
ATOM     26  C   LIG    1        4.506  -6.141   0.434  0.00  0.00    +0.120 C 
ENDBRANCH  19  26
BRANCH  22  27
ATOM     27  O   LIG    1        0.301  -6.960  -2.056  0.00  0.00    -0.310 OA
ATOM     28  C   LIG    1       -0.589  -7.938  -1.513  0.00  0.00    +0.250 C 
ENDBRANCH  22  27
ENDBRANCH  18  24
ENDBRANCH   1  18
TORSDOF 6
