REMARK  Name = ZINCrg000009AbV8.0
REMARK                            x       y       z     vdW  Elec       q    Type
REMARK                         _______ _______ _______ _____ _____    ______ ____
ROOT
ATOM      1  N   LIG    1       -5.536   2.356   2.272  0.00  0.00    -0.600 N 
ATOM      2  C   LIG    1       -6.578   2.504   1.430  0.00  0.00    +0.530 C 
ATOM      3  O   LIG    1       -6.449   2.239   0.253  0.00  0.00    -0.520 OA
ENDROOT
BRANCH   2   4
ATOM      4  C   LIG    1       -7.902   3.000   1.950  0.00  0.00    -0.040 C 
ATOM      5  C   LIG    1       -8.982   1.906   2.040  0.00  0.00    +0.320 C 
ATOM      6  N   LIG    1       -9.909   2.920   1.495  0.00  0.00    -0.650 N 
ATOM      7  C   LIG    1      -11.243   3.105   1.549  0.00  0.00    +0.540 C 
ATOM      8  O   LIG    1      -11.746   4.058   0.993  0.00  0.00    -0.540 OA
ATOM      9  C   LIG    1      -12.109   2.128   2.301  0.00  0.00    +0.110 C 
ATOM     10  C   LIG    1       -8.788   3.650   0.872  0.00  0.00    +0.320 C 
ENDBRANCH   2   4
BRANCH   1  11
ATOM     11  C   LIG    1       -4.283   1.768   1.790  0.00  0.00    +0.290 C 
BRANCH  11  12
ATOM     12  C   LIG    1       -3.369   2.876   1.262  0.00  0.00    +0.250 C 
BRANCH  12  14
ATOM     13  C   LIG    1       -1.154   3.080   0.268  0.00  0.00    +0.560 C 
ATOM     14  N   LIG    1       -2.117   2.288   0.781  0.00  0.00    -0.720 N 
ATOM     15  H   LIG    1       -1.980   1.329   0.832  0.00  0.00    +0.400 HD
ATOM     16  O   LIG    1       -1.325   4.279   0.205  0.00  0.00    -0.530 OA
BRANCH  13  17
ATOM     17  C   LIG    1        0.134   2.475  -0.227  0.00  0.00    -0.070 C 
ATOM     18  C   LIG    1        0.397   2.507  -1.734  0.00  0.00    +0.090 C 
ATOM     19  C   LIG    1        1.187   3.426  -0.800  0.00  0.00    +0.100 C 
BRANCH  17  21
ATOM     20  C   LIG    1        0.997   0.366   1.119  0.00  0.00    +0.060 C 
ATOM     21  C   LIG    1        0.614   1.302   0.522  0.00  0.00    -0.170 C 
ENDBRANCH  17  21
ENDBRANCH  13  17
ENDBRANCH  12  14
ENDBRANCH  11  12
ENDBRANCH   1  11
BRANCH   1  22
ATOM     22  C   LIG    1       -5.655   2.783   3.668  0.00  0.00    +0.340 C 
BRANCH  22  23
ATOM     23  C   LIG    1       -5.086   4.170   3.820  0.00  0.00    -0.120 A 
ATOM     24  C   LIG    1       -3.754   4.338   4.148  0.00  0.00    +0.020 A 
ATOM     25  C   LIG    1       -3.230   5.610   4.283  0.00  0.00    +0.010 A 
ATOM     26  C   LIG    1       -4.041   6.715   4.099  0.00  0.00    +0.010 A 
ATOM     27  C   LIG    1       -5.375   6.546   3.775  0.00  0.00    +0.000 A 
ATOM     28  C   LIG    1       -5.897   5.274   3.636  0.00  0.00    +0.010 A 
ENDBRANCH  22  23
ENDBRANCH   1  22
TORSDOF 8
