REMARK  Name = ZINCrg000000sxGo.0
REMARK                            x       y       z     vdW  Elec       q    Type
REMARK                         _______ _______ _______ _____ _____    ______ ____
ROOT
ATOM      1  C   LIG    1       -2.239   4.201  -7.116  0.00  0.00    +0.130 C 
ATOM      2  C   LIG    1       -3.077   3.759  -5.914  0.00  0.00    +0.040 C 
ATOM      3  C   LIG    1       -2.661   4.568  -4.682  0.00  0.00    +0.290 C 
ATOM      4  N   LIG    1       -1.211   4.427  -4.491  0.00  0.00    -0.630 N 
ATOM      5  C   LIG    1       -0.317   4.745  -5.612  0.00  0.00    +0.300 C 
ATOM      6  C   LIG    1       -0.711   4.020  -3.307  0.00  0.00    +0.720 C 
ATOM      7  N   LIG    1       -1.544   3.640  -2.318  0.00  0.00    -0.720 N 
ATOM      8  H   LIG    1       -2.503   3.730  -2.431  0.00  0.00    +0.400 HD
ATOM      9  O   LIG    1        0.492   3.995  -3.132  0.00  0.00    -0.590 OA
ATOM     10  C   LIG    1       -0.759   3.928  -6.836  0.00  0.00    +0.040 C 
ENDROOT
BRANCH   7  11
ATOM     11  C   LIG    1       -1.000   3.093  -1.073  0.00  0.00    +0.260 C 
ATOM     12  C   LIG    1       -0.750   1.589  -1.237  0.00  0.00    +0.020 C 
ATOM     13  C   LIG    1       -0.013   1.082   0.005  0.00  0.00    +0.090 C 
ATOM     14  C   LIG    1       -0.713   1.563   1.244  0.00  0.00    +0.520 C 
ATOM     15  N   LIG    1       -1.582   2.573   1.254  0.00  0.00    -0.710 N 
ATOM     16  H   LIG    1       -1.961   2.838   2.107  0.00  0.00    +0.400 HD
ATOM     17  O   LIG    1       -0.471   1.005   2.293  0.00  0.00    -0.550 OA
ATOM     18  C   LIG    1       -2.002   3.301   0.064  0.00  0.00    +0.230 C 
BRANCH  18  19
ATOM     19  C   LIG    1       -2.094   4.793   0.390  0.00  0.00    +0.150 C 
ATOM     20  C   LIG    1       -3.130   5.036   1.510  0.00  0.00    +0.000 C 
ATOM     21  C   LIG    1       -3.811   6.364   1.109  0.00  0.00    +0.010 C 
ATOM     22  C   LIG    1       -3.107   6.766  -0.205  0.00  0.00    +0.200 C 
ATOM     23  O   LIG    1       -2.598   5.527  -0.748  0.00  0.00    -0.360 OA
ENDBRANCH  18  19
ENDBRANCH   7  11
BRANCH   1  28
ATOM     24  C   LIG    1       -3.949   2.932 -11.648  0.00  0.00    +0.210 C 
ATOM     25  C   LIG    1       -3.389   2.881 -10.250  0.00  0.00    +0.170 A 
ATOM     26  N   LIG    1       -3.052   1.810  -9.596  0.00  0.00    -0.380 NA
ATOM     27  O   LIG    1       -2.635   2.104  -8.495  0.00  0.00    +0.080 OA
ATOM     28  C   LIG    1       -2.668   3.431  -8.338  0.00  0.00    +0.190 A 
ATOM     29  N   LIG    1       -3.152   3.934  -9.448  0.00  0.00    -0.480 NA
ENDBRANCH   1  28
TORSDOF 3
