REMARK  Name = ZINCqH0000034GtL.0
REMARK                            x       y       z     vdW  Elec       q    Type
REMARK                         _______ _______ _______ _____ _____    ______ ____
ROOT
ATOM      1  C   LIG    1       -2.712   5.743  -4.346  0.00  0.00    +0.310 C 
ATOM      2  N   LIG    1       -1.378   5.145  -4.250  0.00  0.00    -0.950 N 
ENDROOT
BRANCH   2   3
ATOM      3  C   LIG    1       -0.308   5.899  -3.770  0.00  0.00    +0.150 A 
ATOM      4  C   LIG    1       -0.095   6.015  -2.404  0.00  0.00    +0.020 A 
ATOM      5  C   LIG    1        0.970   6.759  -1.930  0.00  0.00    +0.020 A 
ATOM      6  C   LIG    1        1.821   7.401  -2.813  0.00  0.00    +0.020 A 
ATOM      7  C   LIG    1        1.617   7.299  -4.174  0.00  0.00    +0.030 A 
ATOM      8  C   LIG    1        0.552   6.548  -4.664  0.00  0.00    -0.020 A 
BRANCH   8   9
ATOM      9  C   LIG    1        0.329   6.435  -6.126  0.00  0.00    -0.060 A 
ATOM     10  C   LIG    1        1.345   5.960  -6.954  0.00  0.00    +0.040 A 
ATOM     11  C   LIG    1        1.131   5.852  -8.312  0.00  0.00    +0.010 A 
ATOM     12  C   LIG    1       -0.086   6.225  -8.855  0.00  0.00    +0.010 A 
ATOM     13  C   LIG    1       -1.096   6.703  -8.039  0.00  0.00    +0.010 A 
ATOM     14  C   LIG    1       -0.894   6.810  -6.678  0.00  0.00    +0.020 A 
ENDBRANCH   8   9
ENDBRANCH   2   3
BRANCH   2  15
ATOM     15  S   LIG    1       -1.141   3.572  -4.710  0.00  0.00    +2.720 S 
ATOM     16  O   LIG    1       -2.113   3.295  -5.709  0.00  0.00    -0.950 OA
ATOM     17  O   LIG    1        0.256   3.422  -4.923  0.00  0.00    -0.950 OA
BRANCH  15  18
ATOM     18  C   LIG    1       -1.546   2.557  -3.328  0.00  0.00    -0.820 A 
ATOM     19  C   LIG    1       -0.693   2.159  -2.356  0.00  0.00    +0.370 A 
ATOM     20  N   LIG    1       -1.387   1.394  -1.487  0.00  0.00    -0.350 N 
ATOM     21  N   LIG    1       -2.713   1.328  -1.935  0.00  0.00    -0.280 NA
ATOM     22  C   LIG    1       -2.807   2.025  -3.038  0.00  0.00    +0.330 A 
BRANCH  20  23
ATOM     23  C   LIG    1       -0.851   0.752  -0.284  0.00  0.00    +0.350 C 
BRANCH  23  24
ATOM     24  C   LIG    1       -1.674   1.180   0.932  0.00  0.00    -0.060 C 
ATOM     25  C   LIG    1       -0.960   1.985   2.020  0.00  0.00    +0.020 C 
ATOM     26  C   LIG    1       -1.343   0.525   2.275  0.00  0.00    +0.030 C 
ENDBRANCH  23  24
ENDBRANCH  20  23
ENDBRANCH  15  18
ENDBRANCH   2  15
TORSDOF 6
