REMARK  Name = ZINCvU0000000DHD.0
REMARK                            x       y       z     vdW  Elec       q    Type
REMARK                         _______ _______ _______ _____ _____    ______ ____
ROOT
ATOM      1  C   LIG    1        8.047  -2.886  -1.749  0.00  0.00    +0.010 A 
ATOM      2  N   LIG    1        7.623  -2.664  -0.544  0.00  0.00    -0.280 NA
ATOM      3  N   LIG    1        6.410  -2.019  -0.448  0.00  0.00    -0.280 NA
ATOM      4  C   LIG    1        5.841  -1.726  -1.576  0.00  0.00    +0.020 A 
ATOM      5  S   LIG    1        6.868  -2.265  -2.900  0.00  0.00    +0.150 S 
ENDROOT
BRANCH   1   6
ATOM      6  S   LIG    1        9.561  -3.683  -2.168  0.00  0.00    +0.090 S 
BRANCH   6   7
ATOM      7  C   LIG    1       10.284  -4.064  -0.549  0.00  0.00    +0.080 C 
BRANCH   7   8
ATOM      8  C   LIG    1       11.606  -4.761  -0.740  0.00  0.00    +0.420 C 
ATOM      9  O   LIG    1       12.021  -4.979  -1.859  0.00  0.00    -0.410 OA
BRANCH   8  14
ATOM     10  C   LIG    1       12.667  -5.318   2.815  0.00  0.00    +0.080 A 
ATOM     11  C   LIG    1       13.886  -5.960   2.635  0.00  0.00    +0.010 A 
ATOM     12  C   LIG    1       14.363  -6.212   1.363  0.00  0.00    -0.040 A 
ATOM     13  C   LIG    1       13.626  -5.824   0.254  0.00  0.00    +0.160 A 
ATOM     14  C   LIG    1       12.393  -5.175   0.428  0.00  0.00    -0.160 A 
ATOM     15  C   LIG    1       11.922  -4.921   1.721  0.00  0.00    +0.080 A 
BRANCH  10  17
ATOM     16  C   LIG    1       13.030  -5.508   5.157  0.00  0.00    +0.250 C 
ATOM     17  O   LIG    1       12.208  -5.076   4.072  0.00  0.00    -0.310 OA
ENDBRANCH  10  17
BRANCH  13  18
ATOM     18  O   LIG    1       14.096  -6.071  -0.995  0.00  0.00    -0.290 OA
ATOM     19  C   LIG    1       15.357  -6.736  -1.094  0.00  0.00    +0.250 C 
ENDBRANCH  13  18
ENDBRANCH   8  14
ENDBRANCH   7   8
ENDBRANCH   6   7
ENDBRANCH   1   6
BRANCH   4  20
ATOM     20  S   LIG    1        4.290  -0.909  -1.755  0.00  0.00    +0.040 S 
BRANCH  20  21
ATOM     21  C   LIG    1        3.771  -0.637  -0.038  0.00  0.00    +0.150 C 
BRANCH  21  22
ATOM     22  C   LIG    1        2.438   0.064  -0.021  0.00  0.00    -0.080 A 
ATOM     23  C   LIG    1        2.380   1.424  -0.013  0.00  0.00    +0.050 A 
ATOM     24  C   LIG    1        1.156   2.091   0.002  0.00  0.00    +0.010 A 
ATOM     25  C   LIG    1       -0.017   1.401   0.010  0.00  0.00    +0.040 A 
ATOM     26  C   LIG    1        0.002  -0.004   0.002  0.00  0.00    -0.050 A 
ATOM     27  C   LIG    1       -1.188  -0.750   0.009  0.00  0.00    +0.030 A 
ATOM     28  C   LIG    1       -1.131  -2.110   0.001  0.00  0.00    +0.010 A 
ATOM     29  C   LIG    1        0.092  -2.776  -0.015  0.00  0.00    +0.020 A 
ATOM     30  C   LIG    1        1.266  -2.087  -0.021  0.00  0.00    +0.020 A 
ATOM     31  C   LIG    1        1.247  -0.682  -0.013  0.00  0.00    -0.030 A 
ENDBRANCH  21  22
ENDBRANCH  20  21
ENDBRANCH   4  20
TORSDOF 9
