REMARK  Name = ZINCpe00000yzzyH.0
REMARK                            x       y       z     vdW  Elec       q    Type
REMARK                         _______ _______ _______ _____ _____    ______ ____
ROOT
ATOM      1  N   LIG    1        1.581   2.416  -1.252  0.00  0.00    -0.450 N 
ATOM      2  C   LIG    1        0.213   2.854  -1.631  0.00  0.00    +0.190 C 
ATOM      3  C   LIG    1       -0.661   1.621  -1.289  0.00  0.00    +0.180 C 
ATOM      4  C   LIG    1       -0.013   1.086   0.008  0.00  0.00    +0.140 C 
ATOM      5  C   LIG    1        1.424   1.640  -0.003  0.00  0.00    +0.240 C 
ENDROOT
BRANCH   4   6
ATOM      6  N   LIG    1       -0.738   1.577   1.182  0.00  0.00    -0.530 NA
ATOM      7  C   LIG    1       -1.266   0.728   2.029  0.00  0.00    +0.410 A 
ATOM      8  C   LIG    1       -1.143  -0.724   1.823  0.00  0.00    -0.070 A 
ATOM      9  C   LIG    1       -1.273  -1.560   2.877  0.00  0.00    +0.350 A 
ATOM     10  N   LIG    1       -1.534  -0.998   4.111  0.00  0.00    -0.350 N 
ATOM     11  N   LIG    1       -1.523  -1.570   5.378  0.00  0.00    -0.290 NA
ATOM     12  C   LIG    1       -1.842  -0.643   6.253  0.00  0.00    +0.290 A 
ATOM     13  C   LIG    1       -2.068   0.559   5.570  0.00  0.00    -0.130 A 
ATOM     14  C   LIG    1       -1.874   0.326   4.256  0.00  0.00    +0.330 A 
ATOM     15  N   LIG    1       -1.957   1.172   3.157  0.00  0.00    -0.630 N 
ATOM     16  H   LIG    1       -2.457   2.003   3.174  0.00  0.00    +0.440 HD
ENDBRANCH   4   6
BRANCH   1  19
ATOM     17  C   LIG    1        3.754   4.777   0.320  0.00  0.00    +0.580 A 
ATOM     18  N   LIG    1        2.951   3.740   0.134  0.00  0.00    -0.600 NA
ATOM     19  C   LIG    1        2.415   3.505  -1.059  0.00  0.00    +0.390 A 
ATOM     20  C   LIG    1        2.700   4.375  -2.114  0.00  0.00    -0.150 A 
ATOM     21  C   LIG    1        3.536   5.447  -1.875  0.00  0.00    +0.370 A 
ATOM     22  N   LIG    1        4.041   5.619  -0.662  0.00  0.00    -0.580 NA
BRANCH  17  24
ATOM     23  C   LIG    1        5.185   6.136   1.801  0.00  0.00    +0.310 C 
ATOM     24  N   LIG    1        4.301   4.991   1.573  0.00  0.00    -0.700 N 
ATOM     25  H   LIG    1        4.098   4.383   2.301  0.00  0.00    +0.410 HD
ENDBRANCH  17  24
ENDBRANCH   1  19
BRANCH   3  26
ATOM     26  O   LIG    1       -2.016   2.011  -1.054  0.00  0.00    -0.360 OA
ATOM     27  C   LIG    1       -2.868   1.868  -2.192  0.00  0.00    +0.200 C 
ENDBRANCH   3  26
TORSDOF 4
