REMARK  Name = ZINCrH000004pVjG.0
REMARK                            x       y       z     vdW  Elec       q    Type
REMARK                         _______ _______ _______ _____ _____    ______ ____
ROOT
ATOM      1  C   LIG    1       -1.447   6.038  -0.012  0.00  0.00    +0.560 C 
ATOM      2  N   LIG    1       -2.385   5.211  -0.515  0.00  0.00    -0.720 N 
ATOM      3  H   LIG    1       -2.946   5.503  -1.249  0.00  0.00    +0.400 HD
ATOM      4  O   LIG    1       -0.681   5.640   0.845  0.00  0.00    -0.490 OA
ENDROOT
BRANCH   1  15
ATOM      5  C   LIG    1        2.514   8.111   2.263  0.00  0.00    +0.110 C 
ATOM      6  C   LIG    1        1.799   8.430   0.949  0.00  0.00    +0.190 C 
ATOM      7  O   LIG    1        0.485   7.865   0.973  0.00  0.00    -0.270 OA
ATOM      8  C   LIG    1       -0.384   8.291   0.022  0.00  0.00    +0.140 A 
ATOM      9  C   LIG    1       -0.298   9.600  -0.452  0.00  0.00    +0.080 A 
ATOM     10  N   LIG    1        0.679  10.456   0.076  0.00  0.00    -0.660 N 
ATOM     11  H   LIG    1        0.621  11.414  -0.061  0.00  0.00    +0.420 HD
ATOM     12  C   LIG    1       -1.174  10.043  -1.427  0.00  0.00    +0.040 A 
ATOM     13  C   LIG    1       -2.136   9.187  -1.940  0.00  0.00    +0.020 A 
ATOM     14  C   LIG    1       -2.229   7.890  -1.486  0.00  0.00    +0.060 A 
ATOM     15  C   LIG    1       -1.350   7.427  -0.500  0.00  0.00    -0.130 A 
ATOM     16  C   LIG    1        1.704   9.925   0.779  0.00  0.00    +0.490 C 
ATOM     17  O   LIG    1        2.544  10.648   1.271  0.00  0.00    -0.500 OA
ENDBRANCH   1  15
BRANCH   2  18
ATOM     18  C   LIG    1       -2.555   3.869   0.048  0.00  0.00    +0.220 C 
ATOM     19  C   LIG    1       -2.845   3.963   1.560  0.00  0.00    +0.030 C 
ATOM     20  C   LIG    1       -4.390   3.902   1.655  0.00  0.00    +0.010 C 
ATOM     21  C   LIG    1       -4.761   2.878   0.554  0.00  0.00    +0.020 C 
ATOM     22  C   LIG    1       -3.773   3.180  -0.592  0.00  0.00    +0.040 C 
BRANCH  18  23
ATOM     23  C   LIG    1       -1.313   3.048  -0.190  0.00  0.00    -0.080 A 
ATOM     24  C   LIG    1       -1.097   1.895   0.541  0.00  0.00    +0.050 A 
ATOM     25  C   LIG    1        0.044   1.145   0.328  0.00  0.00    -0.010 A 
ATOM     26  C   LIG    1        0.965   1.543  -0.626  0.00  0.00    +0.100 A 
ATOM     27  C   LIG    1        0.745   2.695  -1.361  0.00  0.00    -0.020 A 
ATOM     28  F   LIG    1        2.078   0.808  -0.839  0.00  0.00    -0.140 F 
ATOM     29  C   LIG    1       -0.394   3.447  -1.142  0.00  0.00    +0.050 A 
ENDBRANCH  18  23
ENDBRANCH   2  18
TORSDOF 3
