REMARK  Name = ZINCqH00000071QR.0
REMARK                            x       y       z     vdW  Elec       q    Type
REMARK                         _______ _______ _______ _____ _____    ______ ____
ROOT
ATOM      1  N   LIG    1       -4.368   3.017  -1.137  0.00  0.00    -0.570 N 
ATOM      2  C   LIG    1       -4.526   2.669   0.145  0.00  0.00    +0.700 C 
ATOM      3  N   LIG    1       -3.515   3.101   0.923  0.00  0.00    -0.720 N 
ATOM      4  H   LIG    1       -3.419   2.965   1.879  0.00  0.00    +0.440 HD
ATOM      5  C   LIG    1       -2.586   3.818   0.038  0.00  0.00    +0.170 C 
ATOM      6  C   LIG    1       -2.470   5.277   0.461  0.00  0.00    +0.060 C 
ATOM      7  C   LIG    1       -1.366   5.937  -0.374  0.00  0.00    +0.040 C 
ATOM      8  C   LIG    1       -0.021   5.352   0.054  0.00  0.00    +0.080 C 
ATOM      9  C   LIG    1       -0.062   3.847   0.029  0.00  0.00    -0.050 A 
ATOM     10  C   LIG    1        1.147   3.165   0.011  0.00  0.00    +0.010 A 
ATOM     11  C   LIG    1        1.174   1.785   0.000  0.00  0.00    +0.030 A 
ATOM     12  C   LIG    1       -0.013   1.076   0.008  0.00  0.00    +0.010 A 
ATOM     13  C   LIG    1       -1.216   1.752   0.017  0.00  0.00    +0.020 A 
ATOM     14  C   LIG    1       -1.245   3.140   0.031  0.00  0.00    -0.090 A 
ATOM     15  O   LIG    1       -5.475   2.034   0.562  0.00  0.00    -0.540 OA
ATOM     16  C   LIG    1       -3.230   3.716  -1.326  0.00  0.00    +0.530 C 
ATOM     17  O   LIG    1       -2.812   4.168  -2.370  0.00  0.00    -0.430 OA
ENDROOT
BRANCH   1  18
ATOM     18  C   LIG    1       -5.315   2.681  -2.204  0.00  0.00    +0.390 C 
BRANCH  18  25
ATOM     19  C   LIG    1       -6.037   4.942  -3.014  0.00  0.00    +0.160 A 
ATOM     20  C   LIG    1       -6.984   5.948  -3.126  0.00  0.00    -0.070 A 
ATOM     21  C   LIG    1       -8.232   5.788  -2.553  0.00  0.00    +0.100 A 
ATOM     22  C   LIG    1       -8.535   4.625  -1.869  0.00  0.00    -0.140 A 
ATOM     23  C   LIG    1       -7.593   3.617  -1.761  0.00  0.00    +0.120 A 
ATOM     24 BR   LIG    1      -10.242   4.408  -1.085  0.00  0.00    -0.050 Br
ATOM     25  C   LIG    1       -6.343   3.776  -2.327  0.00  0.00    -0.150 A 
BRANCH  19  27
ATOM     26  C   LIG    1       -4.564   6.324  -4.268  0.00  0.00    +0.240 C 
ATOM     27  O   LIG    1       -4.809   5.098  -3.576  0.00  0.00    -0.290 OA
ENDBRANCH  19  27
ENDBRANCH  18  25
ENDBRANCH   1  18
TORSDOF 3
