REMARK  Name = ZINCkj00000dDdYz.1
REMARK                            x       y       z     vdW  Elec       q    Type
REMARK                         _______ _______ _______ _____ _____    ______ ____
ROOT
ATOM      1  N   LIG    1       -0.366   5.182   0.033  0.00  0.00    -0.480 N 
ATOM      2  C   LIG    1       -0.022   3.845   0.023  0.00  0.00    +0.080 A 
ATOM      3  C   LIG    1        1.184   3.158   0.008  0.00  0.00    +0.010 A 
ATOM      4  C   LIG    1        1.183   1.779   0.000  0.00  0.00    +0.070 A 
ATOM      5  C   LIG    1       -0.013   1.076   0.008  0.00  0.00    +0.020 A 
ATOM      6  C   LIG    1       -1.209   1.736   0.017  0.00  0.00    +0.090 A 
ATOM      7  C   LIG    1       -1.233   3.133   0.031  0.00  0.00    +0.040 A 
ATOM      8  N   LIG    1       -2.232   4.052   0.045  0.00  0.00    -0.440 NA
ATOM      9  C   LIG    1       -1.725   5.250   0.047  0.00  0.00    +0.180 A 
ENDROOT
BRANCH   1  11
ATOM     10  C   LIG    1        0.868   6.721  -1.412  0.00  0.00    +0.040 C 
ATOM     11  C   LIG    1        0.559   6.317   0.031  0.00  0.00    +0.300 C 
ENDBRANCH   1  11
BRANCH   9  12
ATOM     12  C   LIG    1       -2.526   6.527   0.061  0.00  0.00    +0.410 C 
BRANCH  12  13
ATOM     13  N   LIG    1       -2.799   6.949  -1.319  0.00  0.00    -0.500 N 
ATOM     14  H   LIG    1       -3.323   6.229  -1.794  0.00  0.00    +0.440 HD
ATOM     15  H   LIG    1       -1.927   7.104  -1.802  0.00  0.00    +0.430 HD
BRANCH  13  16
ATOM     16  C   LIG    1       -3.579   8.193  -1.305  0.00  0.00    +0.200 C 
ATOM     17  C   LIG    1       -3.781   8.705  -2.742  0.00  0.00    +0.090 C 
ATOM     18  C   LIG    1       -4.869   9.797  -2.730  0.00  0.00    -0.270 C 
ATOM     19  S   LIG    1       -5.942   9.383  -1.307  0.00  0.00    +2.410 S 
ATOM     20  O   LIG    1       -7.213   8.962  -1.783  0.00  0.00    -0.900 OA
ATOM     21  O   LIG    1       -5.857  10.418  -0.337  0.00  0.00    -0.900 OA
ATOM     22  C   LIG    1       -4.993   7.927  -0.725  0.00  0.00    -0.310 C 
ENDBRANCH  13  16
ENDBRANCH  12  13
ENDBRANCH   9  12
TORSDOF 4
