REMARK  Name = ZINCAx0000000bf0.0
REMARK                            x       y       z     vdW  Elec       q    Type
REMARK                         _______ _______ _______ _____ _____    ______ ____
ROOT
ATOM      1  C   LIG    1        6.653  -1.127   3.401  0.00  0.00    +0.350 C 
ATOM      2  C   LIG    1        6.644  -1.296   4.902  0.00  0.00    -0.220 C 
ATOM      3  C   LIG    1        5.626  -0.540   5.375  0.00  0.00    +0.100 C 
ATOM      4  C   LIG    1        4.957   0.135   4.243  0.00  0.00    +0.520 C 
ATOM      5  O   LIG    1        4.008   0.887   4.342  0.00  0.00    -0.510 OA
ATOM      6  N   LIG    1        5.551  -0.210   3.086  0.00  0.00    -0.590 N 
ENDROOT
BRANCH   1  11
ATOM      7  C   LIG    1       10.110  -0.782   1.915  0.00  0.00    +0.140 A 
ATOM      8  C   LIG    1       10.371   0.562   2.136  0.00  0.00    -0.070 A 
ATOM      9  C   LIG    1        9.429   1.353   2.764  0.00  0.00    +0.060 A 
ATOM     10  C   LIG    1        8.227   0.806   3.172  0.00  0.00    -0.010 A 
ATOM     11  C   LIG    1        7.964  -0.534   2.954  0.00  0.00    -0.060 A 
ATOM     12  C   LIG    1        8.905  -1.330   2.330  0.00  0.00    +0.000 A 
BRANCH   7  13
ATOM     13  O   LIG    1       11.035  -1.563   1.297  0.00  0.00    -0.310 OA
BRANCH  13  15
ATOM     14  C   LIG    1       13.166  -1.962   0.227  0.00  0.00    +0.070 C 
ATOM     15  C   LIG    1       12.255  -0.933   0.901  0.00  0.00    +0.170 C 
ENDBRANCH  13  15
ENDBRANCH   7  13
ENDBRANCH   1  11
BRANCH   3  16
ATOM     16  O   LIG    1        5.279  -0.418   6.677  0.00  0.00    -0.430 OA
ATOM     17  H   LIG    1        4.524   0.167   6.829  0.00  0.00    +0.410 HD
ENDBRANCH   3  16
BRANCH   2  18
ATOM     18  C   LIG    1        7.561  -2.122   5.695  0.00  0.00    +0.480 C 
ATOM     19  O   LIG    1        8.313  -1.599   6.496  0.00  0.00    -0.420 OA
BRANCH  18  20
ATOM     20  C   LIG    1        7.571  -3.588   5.521  0.00  0.00    -0.160 A 
ATOM     21  C   LIG    1        6.627  -4.203   4.694  0.00  0.00    +0.080 A 
ATOM     22  C   LIG    1        6.643  -5.570   4.530  0.00  0.00    +0.020 A 
ATOM     23  C   LIG    1        7.588  -6.345   5.193  0.00  0.00    +0.090 A 
ATOM     24  O   LIG    1        7.578  -7.693   5.024  0.00  0.00    -0.300 OA
ATOM     25  C   LIG    1        8.766  -8.398   5.401  0.00  0.00    +0.230 C 
ATOM     26  C   LIG    1        9.211  -7.888   6.778  0.00  0.00    +0.230 C 
ATOM     27  O   LIG    1        9.465  -6.482   6.674  0.00  0.00    -0.300 OA
ATOM     28  C   LIG    1        8.530  -5.738   6.022  0.00  0.00    +0.040 A 
ATOM     29  C   LIG    1        8.523  -4.366   6.187  0.00  0.00    +0.100 A 
ENDBRANCH  18  20
ENDBRANCH   2  18
BRANCH   6  30
ATOM     30  C   LIG    1        5.170   0.253   1.749  0.00  0.00    +0.320 C 
BRANCH  30  31
ATOM     31  C   LIG    1        4.141  -0.709   1.151  0.00  0.00    +0.170 C 
BRANCH  31  32
ATOM     32  N   LIG    1        3.759  -0.245  -0.189  0.00  0.00    -0.530 NA
ATOM     33  C   LIG    1        2.606  -1.002  -0.700  0.00  0.00    +0.160 C 
ATOM     34  C   LIG    1        2.280  -0.528  -2.119  0.00  0.00    +0.220 C 
ATOM     35  O   LIG    1        2.038   0.881  -2.102  0.00  0.00    -0.380 OA
ATOM     36  C   LIG    1        3.140   1.649  -1.611  0.00  0.00    +0.220 C 
ATOM     37  C   LIG    1        3.475   1.197  -0.187  0.00  0.00    +0.150 C 
ENDBRANCH  31  32
ENDBRANCH  30  31
ENDBRANCH   6  30
TORSDOF 9
