REMARK  Name = ZINCb800000011dq.0
REMARK                            x       y       z     vdW  Elec       q    Type
REMARK                         _______ _______ _______ _____ _____    ______ ____
ROOT
ATOM      1  C   LIG    1        2.178   1.355  -1.202  0.00  0.00    +0.490 C 
ATOM      2  N   LIG    1        3.256   2.142  -1.385  0.00  0.00    -0.610 N 
ATOM      3  C   LIG    1        4.066   2.014  -2.599  0.00  0.00    +0.280 C 
ATOM      4  C   LIG    1        5.471   1.538  -2.262  0.00  0.00    +0.030 C 
ATOM      5  C   LIG    1        6.198   2.590  -1.421  0.00  0.00    +0.120 C 
ATOM      6  S   LIG    1        5.335   2.772   0.169  0.00  0.00    -0.260 S 
ATOM      7  C   LIG    1        3.633   3.132  -0.365  0.00  0.00    +0.370 C 
ATOM      8  O   LIG    1        1.921   0.481  -2.003  0.00  0.00    -0.520 OA
ENDROOT
BRANCH   1  10
ATOM      9  C   LIG    1        1.988   1.013   1.247  0.00  0.00    +0.040 C 
ATOM     10  C   LIG    1        1.291   1.559  -0.001  0.00  0.00    +0.210 C 
BRANCH  10  11
ATOM     11  O   LIG    1        0.056   0.868  -0.197  0.00  0.00    -0.540 OA
ATOM     12  H   LIG    1        0.154  -0.086  -0.320  0.00  0.00    +0.390 HD
ENDBRANCH  10  11
ENDBRANCH   1  10
TORSDOF 2
