REMARK  Name = ZINCrH000004mTJo.0
REMARK                            x       y       z     vdW  Elec       q    Type
REMARK                         _______ _______ _______ _____ _____    ______ ____
ROOT
ATOM      1  N   LIG    1        2.299  -0.281  -0.605  0.00  0.00    -0.730 N 
ATOM      2  H   LIG    1        1.426  -0.703  -0.578  0.00  0.00    +0.400 HD
ATOM      3  C   LIG    1        3.336  -0.916  -1.185  0.00  0.00    +0.520 C 
ATOM      4  O   LIG    1        4.428  -0.388  -1.219  0.00  0.00    -0.510 OA
ENDROOT
BRANCH   1   5
ATOM      5  C   LIG    1        2.489   1.047  -0.016  0.00  0.00    +0.310 C 
ATOM      6  C   LIG    1        3.009   0.900   1.415  0.00  0.00    +0.050 C 
BRANCH   5  11
ATOM      7  C   LIG    1       -1.223   1.753   0.017  0.00  0.00    +0.100 A 
ATOM      8  C   LIG    1       -1.242   3.140   0.031  0.00  0.00    -0.040 A 
ATOM      9  C   LIG    1       -0.055   3.847   0.023  0.00  0.00    -0.030 A 
ATOM     10  C   LIG    1        1.155   3.170   0.008  0.00  0.00    +0.100 A 
ATOM     11  C   LIG    1        1.174   1.783   0.000  0.00  0.00    -0.080 A 
ATOM     12  C   LIG    1       -0.013   1.076   0.008  0.00  0.00    +0.030 A 
BRANCH   7  14
ATOM     13  C   LIG    1       -3.600   1.819   0.029  0.00  0.00    +0.250 C 
ATOM     14  O   LIG    1       -2.392   1.057   0.019  0.00  0.00    -0.320 OA
ENDBRANCH   7  14
BRANCH  10  15
ATOM     15  O   LIG    1        2.323   3.865  -0.000  0.00  0.00    -0.310 OA
ATOM     16  C   LIG    1        2.229   5.291   0.008  0.00  0.00    +0.250 C 
ENDBRANCH  10  15
ENDBRANCH   5  11
ENDBRANCH   1   5
BRANCH   3  17
ATOM     17  C   LIG    1        3.140  -2.282  -1.791  0.00  0.00    +0.160 C 
BRANCH  17  18
ATOM     18  C   LIG    1        4.445  -2.767  -2.369  0.00  0.00    +0.010 A 
ATOM     19  C   LIG    1        5.062  -3.924  -2.070  0.00  0.00    +0.160 A 
ATOM     20  O   LIG    1        6.192  -3.976  -2.803  0.00  0.00    -0.200 OA
ATOM     21  C   LIG    1        6.257  -2.849  -3.533  0.00  0.00    +0.230 A 
ATOM     22  N   LIG    1        5.199  -2.119  -3.270  0.00  0.00    -0.440 NA
BRANCH  21  23
ATOM     23  C   LIG    1        7.339  -2.492  -4.476  0.00  0.00    -0.020 A 
ATOM     24  C   LIG    1        7.285  -1.290  -5.182  0.00  0.00    +0.070 A 
ATOM     25  C   LIG    1        8.300  -0.961  -6.056  0.00  0.00    +0.010 A 
ATOM     26  C   LIG    1        9.364  -1.825  -6.242  0.00  0.00    +0.030 A 
ATOM     27  C   LIG    1        9.421  -3.021  -5.550  0.00  0.00    +0.010 A 
ATOM     28  C   LIG    1        8.415  -3.360  -4.668  0.00  0.00    +0.040 A 
ENDBRANCH  21  23
ENDBRANCH  17  18
ENDBRANCH   3  17
TORSDOF 7
