REMARK  Name = ZINCqH0000006ePu.0
REMARK                            x       y       z     vdW  Elec       q    Type
REMARK                         _______ _______ _______ _____ _____    ______ ____
ROOT
ATOM      1  N   LIG    1        6.118  -1.686  -0.614  0.00  0.00    -0.650 N 
ATOM      2  H   LIG    1        5.904  -0.779  -0.883  0.00  0.00    +0.430 HD
ATOM      3  C   LIG    1        5.174  -2.459  -0.043  0.00  0.00    +0.580 C 
ATOM      4  O   LIG    1        5.417  -3.621   0.220  0.00  0.00    -0.480 OA
ENDROOT
BRANCH   3   5
ATOM      5  C   LIG    1        3.840  -1.894   0.265  0.00  0.00    +0.090 A 
ATOM      6  C   LIG    1        2.911  -2.697   0.840  0.00  0.00    -0.030 A 
ATOM      7  C   LIG    1        1.582  -2.131   1.127  0.00  0.00    +0.420 A 
ATOM      8  C   LIG    1        1.286  -0.826   0.503  0.00  0.00    -0.220 A 
ATOM      9  C   LIG    1       -0.007  -0.306   0.479  0.00  0.00    +0.110 A 
ATOM     10  C   LIG    1       -0.237   0.912  -0.122  0.00  0.00    -0.010 A 
ATOM     11  C   LIG    1        0.810   1.616  -0.699  0.00  0.00    +0.090 A 
ATOM     12  C   LIG    1        2.094   1.114  -0.679  0.00  0.00    +0.010 A 
ATOM     13  C   LIG    1        2.351  -0.112  -0.075  0.00  0.00    +0.150 A 
ATOM     14  O   LIG    1        0.775  -2.705   1.837  0.00  0.00    -0.440 OA
ATOM     15  O   LIG    1        3.602  -0.610  -0.036  0.00  0.00    -0.220 OA
ENDBRANCH   3   5
BRANCH   1  22
ATOM     16  C   LIG    1        8.513  -1.353  -0.699  0.00  0.00    +0.080 A 
ATOM     17  C   LIG    1        9.787  -1.860  -0.903  0.00  0.00    -0.040 A 
ATOM     18  C   LIG    1        9.957  -3.195  -1.226  0.00  0.00    +0.030 A 
ATOM     19  C   LIG    1        8.859  -4.026  -1.346  0.00  0.00    +0.050 A 
ATOM     20  C   LIG    1        7.586  -3.530  -1.138  0.00  0.00    +0.050 A 
ATOM     21 CL   LIG    1       11.169  -0.820  -0.754  0.00  0.00    -0.050 Cl
ATOM     22  C   LIG    1        7.406  -2.191  -0.820  0.00  0.00    +0.140 A 
BRANCH  16  23
ATOM     23  O   LIG    1        8.344  -0.042  -0.383  0.00  0.00    -0.310 OA
BRANCH  23  24
ATOM     24  C   LIG    1        8.346   0.296   1.006  0.00  0.00    +0.200 C 
BRANCH  24  25
ATOM     25  C   LIG    1        8.144   1.805   1.164  0.00  0.00    +0.190 C 
BRANCH  25  27
ATOM     26  C   LIG    1        6.553   3.558   0.793  0.00  0.00    +0.200 C 
ATOM     27  O   LIG    1        6.845   2.163   0.690  0.00  0.00    -0.380 OA
ENDBRANCH  25  27
ENDBRANCH  24  25
ENDBRANCH  23  24
ENDBRANCH  16  23
ENDBRANCH   1  22
TORSDOF 6
