REMARK  Name = ZINCrD00000F5Lr1.0
REMARK                            x       y       z     vdW  Elec       q    Type
REMARK                         _______ _______ _______ _____ _____    ______ ____
ROOT
ATOM      1  C   LIG    1        1.173   3.570  -0.067  0.00  0.00    +0.350 C 
ATOM      2  N   LIG    1        0.093   4.298  -0.158  0.00  0.00    -0.470 NA
ATOM      3  C   LIG    1        0.418   5.604   0.054  0.00  0.00    -0.090 C 
ATOM      4  C   LIG    1        1.869   5.615   0.295  0.00  0.00    +0.470 C 
ATOM      5  O   LIG    1        2.571   6.582   0.529  0.00  0.00    -0.410 OA
ATOM      6  C   LIG    1       -0.440   6.695   0.044  0.00  0.00    +0.240 C 
ATOM      7  O   LIG    1        2.254   4.324   0.209  0.00  0.00    -0.290 OA
ENDROOT
BRANCH   6   8
ATOM      8  C   LIG    1        0.076   7.994   0.153  0.00  0.00    -0.200 C 
ATOM      9  C   LIG    1        1.014   8.437  -0.735  0.00  0.00    +0.130 C 
ATOM     10  C   LIG    1        1.533   9.799  -0.561  0.00  0.00    -0.140 A 
ATOM     11  C   LIG    1        2.227  10.450  -1.581  0.00  0.00    +0.070 A 
ATOM     12  C   LIG    1        2.696  11.731  -1.373  0.00  0.00    -0.020 A 
ATOM     13  C   LIG    1        2.481  12.367  -0.161  0.00  0.00    +0.060 A 
ATOM     14  C   LIG    1        1.795  11.731   0.858  0.00  0.00    -0.010 A 
ATOM     15  C   LIG    1        1.318  10.447   0.670  0.00  0.00    +0.140 A 
ATOM     16  O   LIG    1        0.645   9.796   1.650  0.00  0.00    -0.300 OA
ATOM     17  C   LIG    1       -0.405   8.912   1.247  0.00  0.00    +0.320 C 
ENDBRANCH   6   8
BRANCH   1  21
ATOM     18  C   LIG    1        1.254  -0.650  -0.564  0.00  0.00    +0.140 A 
ATOM     19  C   LIG    1        0.055   0.039  -0.679  0.00  0.00    -0.030 A 
ATOM     20  C   LIG    1        0.025   1.408  -0.519  0.00  0.00    +0.100 A 
ATOM     21  C   LIG    1        1.203   2.105  -0.240  0.00  0.00    -0.050 A 
ATOM     22  C   LIG    1        2.411   1.411  -0.123  0.00  0.00    +0.020 A 
ATOM     23  C   LIG    1        2.434   0.039  -0.285  0.00  0.00    +0.100 A 
BRANCH  18  25
ATOM     24  C   LIG    1        0.034  -2.642  -1.007  0.00  0.00    +0.250 C 
ATOM     25  O   LIG    1        1.279  -1.999  -0.723  0.00  0.00    -0.300 OA
ENDBRANCH  18  25
BRANCH  23  26
ATOM     26  O   LIG    1        3.607  -0.640  -0.172  0.00  0.00    -0.300 OA
ATOM     27  C   LIG    1        4.777   0.130   0.114  0.00  0.00    +0.250 C 
ENDBRANCH  23  26
ENDBRANCH   1  21
TORSDOF 4
