REMARK  Name = ZINCqH00000022EJ.0
REMARK                            x       y       z     vdW  Elec       q    Type
REMARK                         _______ _______ _______ _____ _____    ______ ____
ROOT
ATOM      1  C   LIG    1        0.579   2.321   0.890  0.00  0.00    -0.110 A 
ATOM      2  C   LIG    1       -0.582   1.576   0.676  0.00  0.00    +0.020 A 
ATOM      3  C   LIG    1       -1.817   2.135   0.933  0.00  0.00    +0.040 A 
ATOM      4  C   LIG    1       -1.910   3.429   1.412  0.00  0.00    +0.010 A 
ATOM      5  C   LIG    1       -0.760   4.179   1.628  0.00  0.00    +0.160 A 
ATOM      6  C   LIG    1        0.485   3.628   1.368  0.00  0.00    +0.090 A 
ENDROOT
BRANCH   1  14
ATOM      7  C   LIG    1        3.292  -0.539  -1.349  0.00  0.00    +0.050 C 
ATOM      8  C   LIG    1        3.252  -0.365   0.171  0.00  0.00    +0.180 C 
ATOM      9  C   LIG    1        3.166  -1.742   0.855  0.00  0.00    -0.020 C 
ATOM     10  C   LIG    1        1.823  -1.727   1.620  0.00  0.00    +0.060 C 
ATOM     11  C   LIG    1        1.018  -0.630   0.885  0.00  0.00    +0.270 C 
ATOM     12  C   LIG    1        4.503   0.377   0.647  0.00  0.00    +0.050 C 
ATOM     13  N   LIG    1        2.044   0.388   0.558  0.00  0.00    -0.610 N 
ATOM     14  C   LIG    1        1.904   1.727   0.611  0.00  0.00    +0.580 C 
ATOM     15  O   LIG    1        2.866   2.446   0.428  0.00  0.00    -0.510 OA
BRANCH   9  16
ATOM     16  C   LIG    1        4.331  -1.925   1.830  0.00  0.00    +0.460 C 
ATOM     17  F   LIG    1        5.540  -1.859   1.129  0.00  0.00    -0.180 F 
ATOM     18  F   LIG    1        4.223  -3.170   2.458  0.00  0.00    -0.180 F 
ATOM     19  F   LIG    1        4.295  -0.912   2.794  0.00  0.00    -0.170 F 
ENDBRANCH   9  16
ENDBRANCH   1  14
BRANCH   5  20
ATOM     20  N   LIG    1       -0.860   5.490   2.108  0.00  0.00    -0.690 N 
ATOM     21  H   LIG    1       -1.577   5.731   2.714  0.00  0.00    +0.410 HD
ATOM     22  C   LIG    1        0.042   6.417   1.728  0.00  0.00    +0.710 C 
ATOM     23  N   LIG    1        0.017   7.647   2.279  0.00  0.00    -0.710 N 
ATOM     24  H   LIG    1       -0.650   7.865   2.948  0.00  0.00    +0.400 HD
ATOM     25  O   LIG    1        0.878   6.143   0.889  0.00  0.00    -0.560 OA
BRANCH  23  26
ATOM     26  C   LIG    1        0.997   8.654   1.866  0.00  0.00    +0.240 C 
ATOM     27  C   LIG    1        1.651   9.495   2.964  0.00  0.00    +0.020 C 
ATOM     28  C   LIG    1        0.612  10.125   2.034  0.00  0.00    +0.020 C 
ENDBRANCH  23  26
ENDBRANCH   5  20
TORSDOF 4
