REMARK  Name = ZINCnE000001KeXa.0
REMARK                            x       y       z     vdW  Elec       q    Type
REMARK                         _______ _______ _______ _____ _____    ______ ____
ROOT
ATOM      1  C   LIG    1        2.242   0.238  -0.908  0.00  0.00    -0.030 A 
ATOM      2  C   LIG    1        1.960   1.431  -1.542  0.00  0.00    +0.030 A 
ATOM      3  C   LIG    1        1.012   2.290  -1.015  0.00  0.00    +0.000 A 
ATOM      4  C   LIG    1        0.342   1.958   0.149  0.00  0.00    -0.010 A 
ATOM      5  C   LIG    1        0.615   0.767   0.791  0.00  0.00    +0.010 A 
ATOM      6  C   LIG    1        1.569  -0.101   0.265  0.00  0.00    -0.050 A 
ENDROOT
BRANCH   6   7
ATOM      7  C   LIG    1        1.868  -1.383   0.950  0.00  0.00    -0.080 A 
ATOM      8  C   LIG    1        1.190  -2.544   0.588  0.00  0.00    +0.050 A 
ATOM      9  C   LIG    1        1.472  -3.734   1.229  0.00  0.00    +0.010 A 
ATOM     10  C   LIG    1        2.427  -3.775   2.229  0.00  0.00    -0.050 A 
ATOM     11  C   LIG    1        3.105  -2.627   2.594  0.00  0.00    -0.020 A 
ATOM     12  C   LIG    1        2.834  -1.430   1.956  0.00  0.00    +0.180 A 
ATOM     13  F   LIG    1        3.500  -0.309   2.309  0.00  0.00    -0.120 F 
BRANCH  10  14
ATOM     14  C   LIG    1        2.730  -5.078   2.924  0.00  0.00    +0.170 C 
ATOM     15  C   LIG    1        1.816  -5.231   4.141  0.00  0.00    +0.030 C 
ATOM     16  C   LIG    1        4.191  -5.086   3.378  0.00  0.00    +0.020 C 
BRANCH  14  17
ATOM     17  O   LIG    1        2.506  -6.163   2.021  0.00  0.00    -0.550 OA
ATOM     18  H   LIG    1        2.682  -7.034   2.401  0.00  0.00    +0.370 HD
ENDBRANCH  14  17
ENDBRANCH  10  14
ENDBRANCH   6   7
BRANCH   1  19
ATOM     19  C   LIG    1        3.274  -0.697  -1.484  0.00  0.00    +0.110 C 
BRANCH  19  20
ATOM     20  C   LIG    1        4.616  -0.406  -0.863  0.00  0.00    +0.490 C 
ATOM     21  O   LIG    1        5.423   0.292  -1.454  0.00  0.00    -0.680 OA
ATOM     22  O   LIG    1        4.896  -0.869   0.230  0.00  0.00    -0.680 OA
ENDBRANCH  19  20
BRANCH  19  24
ATOM     23  C   LIG    1        3.724  -1.682  -3.622  0.00  0.00    +0.190 C 
ATOM     24  O   LIG    1        3.353  -0.508  -2.898  0.00  0.00    -0.370 OA
ENDBRANCH  19  24
ENDBRANCH   1  19
TORSDOF 6
