REMARK  Name = ZINCvU000000081K.0
REMARK                            x       y       z     vdW  Elec       q    Type
REMARK                         _______ _______ _______ _____ _____    ______ ____
ROOT
ATOM      1  N   LIG    1       -0.011   0.966   0.007  0.00  0.00    -0.720 N 
ATOM      2  H   LIG    1        0.002  -0.004   0.002  0.00  0.00    +0.400 HD
ATOM      3  C   LIG    1       -1.187   1.624   0.017  0.00  0.00    +0.520 C 
ATOM      4  O   LIG    1       -1.204   2.837   0.023  0.00  0.00    -0.520 OA
ENDROOT
BRANCH   1   6
ATOM      5  C   LIG    1        1.608   2.092  -1.439  0.00  0.00    +0.040 C 
ATOM      6  C   LIG    1        1.248   1.716  -0.001  0.00  0.00    +0.290 C 
BRANCH   6   7
ATOM      7  C   LIG    1        2.344   0.863   0.585  0.00  0.00    -0.100 A 
ATOM      8  C   LIG    1        2.403  -0.486   0.289  0.00  0.00    +0.050 A 
ATOM      9  C   LIG    1        3.412  -1.267   0.822  0.00  0.00    +0.030 A 
ATOM     10  C   LIG    1        4.354  -0.701   1.659  0.00  0.00    +0.070 A 
ATOM     11  C   LIG    1        4.292   0.647   1.960  0.00  0.00    -0.180 A 
ATOM     12  C   LIG    1        3.287   1.429   1.423  0.00  0.00    +0.080 A 
BRANCH  11  13
ATOM     13  C   LIG    1        5.319   1.264   2.874  0.00  0.00    +0.510 C 
ATOM     14  F   LIG    1        5.510   2.605   2.523  0.00  0.00    -0.170 F 
ATOM     15  F   LIG    1        6.529   0.573   2.749  0.00  0.00    -0.170 F 
ATOM     16  F   LIG    1        4.873   1.187   4.197  0.00  0.00    -0.170 F 
ENDBRANCH  11  13
ENDBRANCH   6   7
ENDBRANCH   1   6
BRANCH   3  17
ATOM     17  C   LIG    1       -2.482   0.853   0.018  0.00  0.00    +0.150 C 
BRANCH  17  18
ATOM     18  C   LIG    1       -3.641   1.816   0.029  0.00  0.00    +0.090 A 
ATOM     19  C   LIG    1       -4.223   2.181  -1.099  0.00  0.00    +0.020 A 
ATOM     20  S   LIG    1       -5.516   3.299  -0.629  0.00  0.00    +0.170 S 
ATOM     21  C   LIG    1       -5.158   3.197   1.102  0.00  0.00    +0.170 A 
ATOM     22  N   LIG    1       -5.512   3.626   2.290  0.00  0.00    -0.440 NA
ATOM     23  C   LIG    1       -4.708   3.063   3.215  0.00  0.00    +0.080 A 
ATOM     24  C   LIG    1       -3.828   2.258   2.572  0.00  0.00    +0.150 A 
ATOM     25  N   LIG    1       -4.108   2.338   1.214  0.00  0.00    -0.410 N 
BRANCH  23  26
ATOM     26  C   LIG    1       -4.777   3.286   4.680  0.00  0.00    -0.020 A 
ATOM     27  C   LIG    1       -3.885   2.632   5.528  0.00  0.00    +0.050 A 
ATOM     28  C   LIG    1       -3.950   2.846   6.890  0.00  0.00    -0.010 A 
ATOM     29  C   LIG    1       -4.906   3.700   7.415  0.00  0.00    +0.100 A 
ATOM     30  C   LIG    1       -5.797   4.348   6.575  0.00  0.00    -0.010 A 
ATOM     31  F   LIG    1       -4.969   3.902   8.749  0.00  0.00    -0.140 F 
ATOM     32  C   LIG    1       -5.737   4.144   5.212  0.00  0.00    +0.080 A 
ENDBRANCH  23  26
ENDBRANCH  17  18
ENDBRANCH   3  17
TORSDOF 6
