REMARK  Name = ZINCvU0000000EHv.0
REMARK                            x       y       z     vdW  Elec       q    Type
REMARK                         _______ _______ _______ _____ _____    ______ ____
ROOT
ATOM      1  C   LIG    1        9.700  12.503  -0.026  0.00  0.00    +0.330 C 
ATOM      2  N   LIG    1        9.047  11.192  -0.026  0.00  0.00    -0.460 N 
ATOM      3  C   LIG    1        9.713   9.982  -0.038  0.00  0.00    +0.090 A 
ATOM      4  C   LIG    1       11.063   9.647  -0.053  0.00  0.00    +0.010 A 
ATOM      5  C   LIG    1       11.444   8.323  -0.063  0.00  0.00    +0.030 A 
ATOM      6  C   LIG    1       10.494   7.313  -0.060  0.00  0.00    +0.010 A 
ATOM      7  C   LIG    1        9.151   7.624  -0.046  0.00  0.00    +0.040 A 
ATOM      8  C   LIG    1        8.751   8.958  -0.028  0.00  0.00    -0.070 A 
ATOM      9  C   LIG    1        7.437   9.628  -0.019  0.00  0.00    -0.270 A 
ATOM     10  C   LIG    1        7.700  10.996  -0.015  0.00  0.00    +0.240 A 
ENDROOT
BRANCH  10  11
ATOM     11  C   LIG    1        6.680  12.062   0.000  0.00  0.00    -0.070 A 
ATOM     12  C   LIG    1        5.573  11.987  -0.849  0.00  0.00    +0.090 A 
ATOM     13  C   LIG    1        4.621  12.984  -0.825  0.00  0.00    +0.010 A 
ATOM     14  C   LIG    1        4.766  14.064   0.028  0.00  0.00    +0.030 A 
ATOM     15  C   LIG    1        5.864  14.149   0.867  0.00  0.00    +0.000 A 
ATOM     16  C   LIG    1        6.821  13.156   0.859  0.00  0.00    +0.020 A 
ENDBRANCH  10  11
BRANCH   9  17
ATOM     17  C   LIG    1        6.168   9.007  -0.010  0.00  0.00    +0.420 C 
ATOM     18  O   LIG    1        5.161   9.685   0.003  0.00  0.00    -0.440 OA
BRANCH  17  19
ATOM     19  C   LIG    1        6.065   7.503  -0.017  0.00  0.00    +0.230 C 
BRANCH  19  20
ATOM     20  O   LIG    1        4.666   7.114  -0.005  0.00  0.00    -0.330 OA
BRANCH  20  21
ATOM     21  C   LIG    1        4.399   5.799  -0.010  0.00  0.00    +0.460 C 
ATOM     22  O   LIG    1        5.305   4.999  -0.022  0.00  0.00    -0.510 OA
BRANCH  21  23
ATOM     23  C   LIG    1        2.971   5.319   0.001  0.00  0.00    +0.140 C 
BRANCH  23  24
ATOM     24  C   LIG    1        2.946   3.790  -0.006  0.00  0.00    +0.060 C 
BRANCH  24  25
ATOM     25  C   LIG    1        1.517   3.310   0.005  0.00  0.00    +0.430 C 
ATOM     26  O   LIG    1        0.607   4.114   0.018  0.00  0.00    -0.450 OA
BRANCH  25  27
ATOM     27  C   LIG    1        1.236   1.926   0.001  0.00  0.00    -0.310 A 
ATOM     28  C   LIG    1       -0.017   1.368   0.010  0.00  0.00    +0.110 A 
ATOM     29  C   LIG    1        0.002  -0.004   0.002  0.00  0.00    -0.010 A 
ATOM     30  C   LIG    1        1.223  -0.557  -0.013  0.00  0.00    -0.050 A 
ATOM     31  S   LIG    1        2.437   0.642  -0.018  0.00  0.00    +0.230 S 
ENDBRANCH  25  27
ENDBRANCH  24  25
ENDBRANCH  23  24
ENDBRANCH  21  23
ENDBRANCH  20  21
ENDBRANCH  19  20
ENDBRANCH  17  19
ENDBRANCH   9  17
TORSDOF 9
