REMARK  Name = ZINCc70000002rsl.1
REMARK                            x       y       z     vdW  Elec       q    Type
REMARK                         _______ _______ _______ _____ _____    ______ ____
ROOT
ATOM      1  C   LIG    1        2.468   1.435  -0.014  0.00  0.00    +0.160 A 
ATOM      2  N   LIG    1        3.166   2.540  -0.015  0.00  0.00    -0.230 NA
ATOM      3  N   LIG    1        2.385   3.562  -0.002  0.00  0.00    -0.260 NA
ATOM      4  C   LIG    1        1.125   3.158   0.008  0.00  0.00    +0.350 A 
ATOM      5  N   LIG    1       -0.045   3.809   0.023  0.00  0.00    -0.430 NA
ATOM      6  C   LIG    1       -1.181   3.151   0.031  0.00  0.00    +0.380 A 
ATOM      7  C   LIG    1       -1.190   1.748   0.017  0.00  0.00    -0.030 A 
ATOM      8  C   LIG    1       -0.013   1.076   0.008  0.00  0.00    +0.300 A 
ATOM      9  N   LIG    1        1.153   1.784   0.001  0.00  0.00    -0.430 N 
ENDROOT
BRANCH   1  11
ATOM     10  C   LIG    1        3.539  -0.299  -1.426  0.00  0.00    +0.010 C 
ATOM     11  C   LIG    1        3.018   0.032  -0.026  0.00  0.00    +0.280 C 
BRANCH  11  12
ATOM     12  N   LIG    1        4.118  -0.071   0.942  0.00  0.00    -0.840 NA
ATOM     13  H   LIG    1        4.833   0.615   0.751  0.00  0.00    +0.360 HD
ATOM     14  H   LIG    1        4.505  -1.003   0.953  0.00  0.00    +0.350 HD
ENDBRANCH  11  12
ENDBRANCH   1  11
TORSDOF 2
