REMARK  Name = ZINCqH00000044qG.0
REMARK                            x       y       z     vdW  Elec       q    Type
REMARK                         _______ _______ _______ _____ _____    ______ ____
ROOT
ATOM      1  N   LIG    1        2.338   5.091   0.894  0.00  0.00    -0.720 N 
ATOM      2  H   LIG    1        1.467   5.470   1.089  0.00  0.00    +0.400 HD
ATOM      3  C   LIG    1        3.445   5.627   1.445  0.00  0.00    +0.520 C 
ATOM      4  O   LIG    1        4.535   5.153   1.201  0.00  0.00    -0.530 OA
ENDROOT
BRANCH   1   5
ATOM      5  C   LIG    1        2.451   3.936  -0.001  0.00  0.00    +0.290 C 
BRANCH   5   6
ATOM      6  C   LIG    1        1.156   3.166   0.007  0.00  0.00    -0.090 A 
ATOM      7  C   LIG    1        1.175   1.783   0.000  0.00  0.00    +0.050 A 
ATOM      8  C   LIG    1       -0.013   1.076   0.008  0.00  0.00    +0.040 A 
ATOM      9  C   LIG    1       -1.220   1.751   0.017  0.00  0.00    -0.030 A 
ATOM     10  C   LIG    1       -1.238   3.135   0.030  0.00  0.00    +0.030 A 
ATOM     11 CL   LIG    1       -2.712   0.864   0.020  0.00  0.00    -0.070 Cl
ATOM     12  C   LIG    1       -0.050   3.841   0.022  0.00  0.00    +0.030 A 
ENDBRANCH   5   6
BRANCH   5  14
ATOM     13  C   LIG    1        4.121   5.093  -1.456  0.00  0.00    +0.020 C 
ATOM     14  C   LIG    1        2.748   4.420  -1.422  0.00  0.00    +0.010 C 
ENDBRANCH   5  14
ENDBRANCH   1   5
BRANCH   3  15
ATOM     15  C   LIG    1        3.329   6.814   2.366  0.00  0.00    +0.040 C 
BRANCH  15  16
ATOM     16  C   LIG    1        4.722   7.222   2.850  0.00  0.00    +0.330 C 
BRANCH  16  17
ATOM     17  N   LIG    1        4.609   8.376   3.745  0.00  0.00    -0.550 N 
ATOM     18  C   LIG    1        4.671   9.633   3.233  0.00  0.00    +0.570 A 
ATOM     19  N   LIG    1        4.575  10.706   3.958  0.00  0.00    -0.520 NA
ATOM     20  C   LIG    1        4.412  10.642   5.304  0.00  0.00    +0.150 A 
ATOM     21  C   LIG    1        4.313  11.794   6.085  0.00  0.00    +0.030 A 
ATOM     22  C   LIG    1        4.150  11.682   7.448  0.00  0.00    +0.070 A 
ATOM     23  C   LIG    1        4.082  10.436   8.056  0.00  0.00    -0.010 A 
ATOM     24  C   LIG    1        4.176   9.284   7.306  0.00  0.00    +0.100 A 
ATOM     25  C   LIG    1        4.342   9.375   5.926  0.00  0.00    -0.200 A 
ATOM     26  C   LIG    1        4.449   8.181   5.074  0.00  0.00    +0.550 A 
ATOM     27  O   LIG    1        4.397   7.061   5.547  0.00  0.00    -0.510 OA
ENDBRANCH  16  17
ENDBRANCH  15  16
ENDBRANCH   3  15
TORSDOF 6
