REMARK  Name = ZINCrD0000074Cgj.1
REMARK                            x       y       z     vdW  Elec       q    Type
REMARK                         _______ _______ _______ _____ _____    ______ ____
ROOT
ATOM      1  C   LIG    1        2.374   7.255  -3.220  0.00  0.00    +0.520 C 
ATOM      2  N   LIG    1        3.397   8.025  -3.642  0.00  0.00    -0.720 N 
ATOM      3  H   LIG    1        4.056   7.662  -4.253  0.00  0.00    +0.410 HD
ATOM      4  O   LIG    1        1.549   7.708  -2.455  0.00  0.00    -0.520 OA
ENDROOT
BRANCH   1   5
ATOM      5  C   LIG    1        2.255   5.832  -3.700  0.00  0.00    +0.210 C 
BRANCH   5   6
ATOM      6  N   LIG    1        1.065   5.211  -3.101  0.00  0.00    -0.670 NA
ATOM      7  H   LIG    1        1.096   5.267  -2.094  0.00  0.00    +0.350 HD
BRANCH   6   8
ATOM      8  C   LIG    1        0.917   3.819  -3.547  0.00  0.00    +0.220 C 
ATOM      9  C   LIG    1        1.761   2.906  -2.656  0.00  0.00    +0.010 C 
BRANCH   8  15
ATOM     10  C   LIG    1       -3.668   4.521  -1.667  0.00  0.00    +0.090 C 
ATOM     11  C   LIG    1       -2.725   3.749  -2.554  0.00  0.00    -0.090 A 
ATOM     12  C   LIG    1       -3.190   2.672  -3.284  0.00  0.00    +0.000 A 
ATOM     13  C   LIG    1       -2.324   1.961  -4.094  0.00  0.00    +0.000 A 
ATOM     14  C   LIG    1       -0.996   2.333  -4.181  0.00  0.00    -0.090 A 
ATOM     15  C   LIG    1       -0.532   3.414  -3.453  0.00  0.00    -0.070 A 
ATOM     16  C   LIG    1       -0.053   1.562  -5.068  0.00  0.00    +0.090 C 
ATOM     17  C   LIG    1       -1.396   4.121  -2.639  0.00  0.00    +0.040 A 
ENDBRANCH   8  15
ENDBRANCH   6   8
ENDBRANCH   5   6
ENDBRANCH   1   5
BRANCH   2  18
ATOM     18  C   LIG    1        3.512   9.409  -3.175  0.00  0.00    +0.300 C 
BRANCH  18  19
ATOM     19  C   LIG    1        4.733  10.045  -3.789  0.00  0.00    +0.510 C 
ATOM     20  N   LIG    1        5.042  11.325  -3.502  0.00  0.00    -0.670 N 
ATOM     21  H   LIG    1        4.451  11.853  -2.942  0.00  0.00    +0.410 HD
ATOM     22  O   LIG    1        5.436   9.406  -4.542  0.00  0.00    -0.510 OA
BRANCH  20  23
ATOM     23  C   LIG    1        6.215  11.893  -4.011  0.00  0.00    +0.130 A 
ATOM     24  C   LIG    1        7.434  11.254  -3.826  0.00  0.00    -0.070 A 
ATOM     25  C   LIG    1        8.590  11.815  -4.333  0.00  0.00    +0.020 A 
ATOM     26  C   LIG    1        8.535  13.016  -5.017  0.00  0.00    +0.020 A 
ATOM     27  C   LIG    1        7.324  13.656  -5.199  0.00  0.00    +0.020 A 
ATOM     28  C   LIG    1        7.495   9.948  -3.076  0.00  0.00    +0.080 C 
ATOM     29  C   LIG    1        6.164  13.099  -4.698  0.00  0.00    -0.090 A 
ATOM     30  C   LIG    1        4.844  13.798  -4.896  0.00  0.00    +0.080 C 
ENDBRANCH  20  23
ENDBRANCH  18  19
ENDBRANCH   2  18
TORSDOF 7
