REMARK  Name = ZINCqH0000003xN2.0
REMARK                            x       y       z     vdW  Elec       q    Type
REMARK                         _______ _______ _______ _____ _____    ______ ____
ROOT
ATOM      1  C   LIG    1       -1.293   1.519   0.105  0.00  0.00    +0.150 A 
ATOM      2  C   LIG    1       -1.462   2.896   0.057  0.00  0.00    +0.030 A 
ATOM      3  C   LIG    1       -2.728   3.439   0.149  0.00  0.00    +0.030 A 
ATOM      4  C   LIG    1       -3.827   2.613   0.299  0.00  0.00    +0.020 A 
ATOM      5  C   LIG    1       -3.662   1.241   0.352  0.00  0.00    -0.080 A 
ATOM      6  C   LIG    1       -2.398   0.692   0.256  0.00  0.00    +0.010 A 
ENDROOT
BRANCH   1   8
ATOM      7  C   LIG    1        0.924   1.562  -0.759  0.00  0.00    +0.510 C 
ATOM      8  N   LIG    1       -0.011   0.966   0.007  0.00  0.00    -0.670 N 
ATOM      9  H   LIG    1        0.203   0.151   0.488  0.00  0.00    +0.410 HD
ATOM     10  O   LIG    1        0.629   2.524  -1.437  0.00  0.00    -0.490 OA
BRANCH   7  11
ATOM     11  C   LIG    1        2.335   1.033  -0.774  0.00  0.00    +0.160 C 
ATOM     12  C   LIG    1        2.962   1.213   0.610  0.00  0.00    +0.050 C 
BRANCH  11  13
ATOM     13  O   LIG    1        3.102   1.752  -1.742  0.00  0.00    -0.350 OA
BRANCH  13  14
ATOM     14  C   LIG    1        4.155   0.987  -2.334  0.00  0.00    +0.190 C 
BRANCH  14  15
ATOM     15  C   LIG    1        4.905   1.852  -3.348  0.00  0.00    +0.190 C 
BRANCH  15  16
ATOM     16  O   LIG    1        5.556   2.928  -2.668  0.00  0.00    -0.380 OA
BRANCH  16  18
ATOM     17  C   LIG    1        6.941   4.908  -2.698  0.00  0.00    +0.040 C 
ATOM     18  C   LIG    1        6.290   3.800  -3.529  0.00  0.00    +0.160 C 
ENDBRANCH  16  18
ENDBRANCH  15  16
ENDBRANCH  14  15
ENDBRANCH  13  14
ENDBRANCH  11  13
ENDBRANCH   7  11
ENDBRANCH   1   8
BRANCH   5  19
ATOM     19  C   LIG    1       -4.862   0.344   0.515  0.00  0.00    +0.250 C 
BRANCH  19  20
ATOM     20  O   LIG    1       -5.109   0.129   1.906  0.00  0.00    -0.300 OA
BRANCH  20  21
ATOM     21  C   LIG    1       -6.164  -0.664   2.230  0.00  0.00    +0.160 A 
ATOM     22  C   LIG    1       -6.949  -1.219   1.229  0.00  0.00    -0.080 A 
ATOM     23  C   LIG    1       -8.018  -2.029   1.558  0.00  0.00    +0.090 A 
ATOM     24  C   LIG    1       -8.315  -2.279   2.885  0.00  0.00    -0.050 A 
ATOM     25  C   LIG    1       -7.537  -1.722   3.887  0.00  0.00    +0.140 A 
ATOM     26  F   LIG    1       -7.829  -1.968   5.183  0.00  0.00    -0.130 F 
ATOM     27  C   LIG    1       -6.462  -0.915   3.561  0.00  0.00    -0.050 A 
ENDBRANCH  20  21
ENDBRANCH  19  20
ENDBRANCH   5  19
TORSDOF 10
