REMARK  Name = ZINCnE00000hdbuQ.0
REMARK                            x       y       z     vdW  Elec       q    Type
REMARK                         _______ _______ _______ _____ _____    ______ ____
ROOT
ATOM      1  C   LIG    1       -2.400   1.247   4.036  0.00  0.00    +0.090 C 
ATOM      2  C   LIG    1       -1.137   1.976   3.574  0.00  0.00    -0.090 C 
ENDROOT
BRANCH   2   3
ATOM      3  C   LIG    1       -0.420   1.137   2.547  0.00  0.00    +0.530 C 
ATOM      4  N   LIG    1       -0.767   1.221   1.247  0.00  0.00    -0.560 N 
ATOM      5  C   LIG    1       -1.888   2.009   0.726  0.00  0.00    +0.260 C 
ATOM      6  C   LIG    1       -1.870   1.782  -0.794  0.00  0.00    +0.100 C 
ATOM      7  C   LIG    1       -0.700   0.853  -1.027  0.00  0.00    -0.140 A 
ATOM      8  C   LIG    1       -0.197   0.304  -2.191  0.00  0.00    +0.040 A 
ATOM      9  C   LIG    1        0.904  -0.532  -2.145  0.00  0.00    -0.030 A 
ATOM     10  C   LIG    1        1.500  -0.819  -0.931  0.00  0.00    +0.040 A 
ATOM     11  C   LIG    1        1.000  -0.274   0.233  0.00  0.00    +0.010 A 
ATOM     12  C   LIG    1       -0.110   0.572   0.195  0.00  0.00    +0.160 A 
ATOM     13  O   LIG    1        0.468   0.386   2.890  0.00  0.00    -0.480 OA
ENDBRANCH   2   3
BRANCH   2  14
ATOM     14  S   LIG    1       -0.047   2.253   4.992  0.00  0.00    +0.100 S 
BRANCH  14  15
ATOM     15  C   LIG    1        1.164   3.294   4.249  0.00  0.00    -0.080 A 
ATOM     16  C   LIG    1        0.994   3.744   2.944  0.00  0.00    -0.050 A 
ATOM     17  C   LIG    1        1.944   4.559   2.365  0.00  0.00    +0.010 A 
ATOM     18  C   LIG    1        3.074   4.936   3.074  0.00  0.00    -0.030 A 
ATOM     19  C   LIG    1        3.262   4.502   4.367  0.00  0.00    +0.070 A 
ATOM     20  C   LIG    1        2.307   3.679   4.973  0.00  0.00    -0.120 A 
BRANCH  20  21
ATOM     21  C   LIG    1        2.498   3.217   6.355  0.00  0.00    +0.520 C 
ATOM     22  O   LIG    1        1.661   2.494   6.879  0.00  0.00    -0.650 OA
ATOM     23  O   LIG    1        3.493   3.555   6.981  0.00  0.00    -0.680 OA
ENDBRANCH  20  21
ENDBRANCH  14  15
ENDBRANCH   2  14
TORSDOF 4
