REMARK  Name = ZINCrH00000No53m.0
REMARK                            x       y       z     vdW  Elec       q    Type
REMARK                         _______ _______ _______ _____ _____    ______ ____
ROOT
ATOM      1  C   LIG    1        3.605  -6.658  -1.407  0.00  0.00    +0.070 C 
ATOM      2  C   LIG    1        3.526  -6.341   0.087  0.00  0.00    +0.190 C 
ENDROOT
BRANCH   2   3
ATOM      3  C   LIG    1        4.737  -6.904   0.785  0.00  0.00    +0.520 C 
ATOM      4  N   LIG    1        4.982  -8.229   0.746  0.00  0.00    -0.670 N 
ATOM      5  H   LIG    1        4.340  -8.829   0.335  0.00  0.00    +0.420 HD
ATOM      6  O   LIG    1        5.492  -6.165   1.381  0.00  0.00    -0.490 OA
BRANCH   4   7
ATOM      7  C   LIG    1        6.159  -8.737   1.296  0.00  0.00    +0.180 A 
ATOM      8  C   LIG    1        7.330  -7.988   1.242  0.00  0.00    +0.010 A 
ATOM      9  C   LIG    1        8.492  -8.485   1.788  0.00  0.00    +0.070 A 
ATOM     10  C   LIG    1        8.497  -9.747   2.388  0.00  0.00    -0.160 A 
ATOM     11  C   LIG    1        7.320 -10.499   2.435  0.00  0.00    +0.100 A 
ATOM     12  C   LIG    1        6.160  -9.994   1.892  0.00  0.00    -0.010 A 
BRANCH  10  13
ATOM     13  C   LIG    1        9.742 -10.286   2.968  0.00  0.00    +0.560 C 
ATOM     14  O   LIG    1        9.745 -11.385   3.489  0.00  0.00    -0.540 OA
ATOM     15  N   LIG    1       10.877  -9.559   2.922  0.00  0.00    -0.850 N 
ATOM     16  H   LIG    1       11.695  -9.913   3.304  0.00  0.00    +0.410 HD
ATOM     17  H   LIG    1       10.874  -8.683   2.507  0.00  0.00    +0.400 HD
ENDBRANCH  10  13
ENDBRANCH   4   7
ENDBRANCH   2   3
BRANCH   2  18
ATOM     18  O   LIG    1        3.486  -4.925   0.272  0.00  0.00    -0.320 OA
BRANCH  18  19
ATOM     19  C   LIG    1        2.268  -4.344   0.294  0.00  0.00    +0.500 C 
ATOM     20  O   LIG    1        1.268  -5.024   0.159  0.00  0.00    -0.500 OA
BRANCH  19  21
ATOM     21  C   LIG    1        2.151  -2.899   0.479  0.00  0.00    -0.030 C 
ATOM     22  C   LIG    1        0.932  -2.318   0.500  0.00  0.00    +0.150 C 
BRANCH  22  23
ATOM     23  C   LIG    1        0.814  -0.864   0.687  0.00  0.00    -0.050 A 
ATOM     24  C   LIG    1       -0.447  -0.258   0.710  0.00  0.00    +0.070 A 
ATOM     25  C   LIG    1       -0.550   1.105   0.885  0.00  0.00    +0.070 A 
ATOM     26  C   LIG    1        0.590   1.876   1.038  0.00  0.00    -0.080 A 
ATOM     27  C   LIG    1        1.843   1.284   1.017  0.00  0.00    -0.020 A 
ATOM     28 CL   LIG    1        3.265   2.260   1.211  0.00  0.00    -0.040 Cl
ATOM     29 BR   LIG    1        0.436   3.745   1.278  0.00  0.00    -0.020 Br
ATOM     30  C   LIG    1        1.962  -0.079   0.842  0.00  0.00    +0.060 A 
ENDBRANCH  22  23
ENDBRANCH  19  21
ENDBRANCH  18  19
ENDBRANCH   2  18
TORSDOF 7
