REMARK  Name = ZINCvU0000000IQf.0
REMARK                            x       y       z     vdW  Elec       q    Type
REMARK                         _______ _______ _______ _____ _____    ______ ____
ROOT
ATOM      1  C   LIG    1       -1.304   2.115   0.020  0.00  0.00    +0.570 C 
ATOM      2  N   LIG    1       -2.463   1.426   0.021  0.00  0.00    -0.640 N 
ATOM      3  H   LIG    1       -2.451   0.456   0.016  0.00  0.00    +0.410 HD
ATOM      4  O   LIG    1       -1.319   3.330   0.026  0.00  0.00    -0.490 OA
ENDROOT
BRANCH   1   8
ATOM      5  C   LIG    1        2.400   0.031  -0.020  0.00  0.00    +0.130 A 
ATOM      6  C   LIG    1        1.206  -0.677  -0.013  0.00  0.00    -0.090 A 
ATOM      7  C   LIG    1        0.002  -0.004   0.002  0.00  0.00    +0.060 A 
ATOM      8  C   LIG    1       -0.017   1.393   0.010  0.00  0.00    -0.100 A 
ATOM      9  C   LIG    1        1.186   2.105   0.002  0.00  0.00    +0.040 A 
ATOM     10 BR   LIG    1        1.229  -2.568  -0.024  0.00  0.00    -0.010 Br
ATOM     11  C   LIG    1        2.388   1.425  -0.012  0.00  0.00    +0.120 A 
BRANCH  11  12
ATOM     12  O   LIG    1        3.559   2.115  -0.018  0.00  0.00    -0.300 OA
ATOM     13  C   LIG    1        3.472   3.542  -0.009  0.00  0.00    +0.250 C 
ENDBRANCH  11  12
BRANCH   5  14
ATOM     14  O   LIG    1        3.583  -0.636  -0.035  0.00  0.00    -0.310 OA
BRANCH  14  16
ATOM     15  C   LIG    1        5.460  -1.694  -1.130  0.00  0.00    +0.070 C 
ATOM     16  C   LIG    1        4.137  -0.948  -1.315  0.00  0.00    +0.180 C 
ENDBRANCH  14  16
ENDBRANCH   5  14
ENDBRANCH   1   8
BRANCH   2  17
ATOM     17  C   LIG    1       -3.678   2.108   0.031  0.00  0.00    +0.300 A 
ATOM     18  C   LIG    1       -3.844   3.460   0.039  0.00  0.00    -0.100 A 
ATOM     19  C   LIG    1       -5.216   3.724   0.047  0.00  0.00    +0.250 A 
ATOM     20  N   LIG    1       -5.856   2.583   0.044  0.00  0.00    -0.280 NA
ATOM     21  N   LIG    1       -4.915   1.546   0.028  0.00  0.00    -0.390 N 
BRANCH  21  22
ATOM     22  C   LIG    1       -5.210   0.112   0.015  0.00  0.00    +0.390 C 
BRANCH  22  23
ATOM     23  C   LIG    1       -5.308  -0.395   1.431  0.00  0.00    -0.090 A 
ATOM     24  C   LIG    1       -4.182  -0.874   2.073  0.00  0.00    +0.020 A 
ATOM     25  C   LIG    1       -4.271  -1.334   3.373  0.00  0.00    +0.070 A 
ATOM     26  C   LIG    1       -5.488  -1.324   4.028  0.00  0.00    -0.170 A 
ATOM     27  C   LIG    1       -6.616  -0.850   3.384  0.00  0.00    +0.070 A 
ATOM     28  C   LIG    1       -6.526  -0.385   2.085  0.00  0.00    +0.050 A 
BRANCH  26  29
ATOM     29  C   LIG    1       -5.586  -1.831   5.444  0.00  0.00    +0.510 C 
ATOM     30  F   LIG    1       -6.609  -1.149   6.113  0.00  0.00    -0.170 F 
ATOM     31  F   LIG    1       -4.371  -1.612   6.103  0.00  0.00    -0.180 F 
ATOM     32  F   LIG    1       -5.870  -3.200   5.431  0.00  0.00    -0.170 F 
ENDBRANCH  26  29
ENDBRANCH  22  23
ENDBRANCH  21  22
ENDBRANCH   2  17
TORSDOF 8
