REMARK  Name = ZINCrH000004mflt.0
REMARK                            x       y       z     vdW  Elec       q    Type
REMARK                         _______ _______ _______ _____ _____    ______ ____
ROOT
ATOM      1  N   LIG    1        4.176  -0.916  -1.440  0.00  0.00    -0.720 N 
ATOM      2  H   LIG    1        3.483  -0.822  -2.113  0.00  0.00    +0.400 HD
ATOM      3  C   LIG    1        5.285  -1.633  -1.711  0.00  0.00    +0.520 C 
ATOM      4  O   LIG    1        6.151  -1.751  -0.870  0.00  0.00    -0.510 OA
ENDROOT
BRANCH   3   5
ATOM      5  C   LIG    1        5.448  -2.289  -3.058  0.00  0.00    +0.170 C 
ATOM      6  C   LIG    1        5.549  -1.212  -4.140  0.00  0.00    +0.060 C 
BRANCH   5   7
ATOM      7  O   LIG    1        6.638  -3.080  -3.061  0.00  0.00    -0.280 OA
BRANCH   7   8
ATOM      8  C   LIG    1        6.688  -4.116  -3.941  0.00  0.00    +0.130 A 
ATOM      9  C   LIG    1        5.664  -4.297  -4.859  0.00  0.00    -0.060 A 
ATOM     10  C   LIG    1        5.719  -5.347  -5.755  0.00  0.00    +0.070 A 
ATOM     11  C   LIG    1        6.790  -6.223  -5.730  0.00  0.00    -0.070 A 
ATOM     12  C   LIG    1        7.809  -6.048  -4.811  0.00  0.00    +0.070 A 
ATOM     13 CL   LIG    1        6.854  -7.546  -6.853  0.00  0.00    -0.070 Cl
ATOM     14  C   LIG    1        7.760  -4.996  -3.917  0.00  0.00    -0.100 A 
ATOM     15  C   LIG    1        8.871  -4.805  -2.916  0.00  0.00    +0.110 C 
ENDBRANCH   7   8
ENDBRANCH   5   7
ENDBRANCH   3   5
BRANCH   1  16
ATOM     16  C   LIG    1        4.017  -0.279  -0.131  0.00  0.00    +0.340 C 
BRANCH  16  22
ATOM     17  C   LIG    1        1.526  -0.242   0.149  0.00  0.00    +0.150 A 
ATOM     18  C   LIG    1        0.316   0.432   0.191  0.00  0.00    -0.130 A 
ATOM     19  C   LIG    1        0.281   1.803  -0.003  0.00  0.00    +0.150 A 
ATOM     20  C   LIG    1        1.461   2.501  -0.238  0.00  0.00    +0.060 A 
ATOM     21  C   LIG    1        2.669   1.824  -0.279  0.00  0.00    +0.040 A 
ATOM     22  C   LIG    1        2.702   0.455  -0.086  0.00  0.00    -0.150 A 
BRANCH  17  24
ATOM     23  C   LIG    1        0.314  -2.243   0.576  0.00  0.00    +0.240 C 
ATOM     24  O   LIG    1        1.562  -1.588   0.339  0.00  0.00    -0.310 OA
ENDBRANCH  17  24
BRANCH  20  25
ATOM     25  O   LIG    1        1.429   3.848  -0.428  0.00  0.00    -0.310 OA
ATOM     26  C   LIG    1        2.679   4.500  -0.665  0.00  0.00    +0.240 C 
ENDBRANCH  20  25
BRANCH  19  27
ATOM     27  O   LIG    1       -0.907   2.466   0.032  0.00  0.00    -0.300 OA
ATOM     28  C   LIG    1       -2.079   1.684   0.273  0.00  0.00    +0.250 C 
ENDBRANCH  19  27
ENDBRANCH  16  22
ENDBRANCH   1  16
TORSDOF 8
