REMARK  Name = ZINCrH000004qa71.0
REMARK                            x       y       z     vdW  Elec       q    Type
REMARK                         _______ _______ _______ _____ _____    ______ ____
ROOT
ATOM      1  C   LIG    1        3.673   3.889   0.220  0.00  0.00    +0.200 C 
ATOM      2  C   LIG    1        2.230   4.308   0.104  0.00  0.00    +0.150 A 
ATOM      3  C   LIG    1        1.753   5.588   0.062  0.00  0.00    -0.110 A 
ATOM      4  N   LIG    1        0.414   5.540  -0.039  0.00  0.00    -0.190 NA
ATOM      5  N   LIG    1        0.026   4.313  -0.068  0.00  0.00    -0.040 NA
ATOM      6  N   LIG    1        1.158   3.490   0.017  0.00  0.00    -0.320 N 
ENDROOT
BRANCH   6   7
ATOM      7  C   LIG    1        1.174   2.087   0.019  0.00  0.00    +0.090 A 
ATOM      8  C   LIG    1        2.057   1.401  -0.803  0.00  0.00    +0.090 A 
ATOM      9  C   LIG    1        2.071   0.019  -0.800  0.00  0.00    +0.060 A 
ATOM     10  C   LIG    1        1.207  -0.682   0.023  0.00  0.00    +0.010 A 
ATOM     11  C   LIG    1        0.325  -0.002   0.844  0.00  0.00    +0.030 A 
ATOM     12 CL   LIG    1        1.228  -2.417   0.024  0.00  0.00    -0.030 Cl
ATOM     13  C   LIG    1        0.306   1.381   0.845  0.00  0.00    +0.140 A 
ATOM     14  F   LIG    1       -0.555   2.046   1.647  0.00  0.00    -0.110 F 
ENDBRANCH   6   7
BRANCH   3  15
ATOM     15  C   LIG    1        2.570   6.814   0.124  0.00  0.00    +0.620 C 
ATOM     16  N   LIG    1        1.976   8.023   0.079  0.00  0.00    -0.640 N 
ATOM     17  H   LIG    1        1.011   8.086   0.006  0.00  0.00    +0.420 HD
ATOM     18  O   LIG    1        3.780   6.734   0.216  0.00  0.00    -0.490 OA
BRANCH  16  19
ATOM     19  C   LIG    1        2.748   9.182   0.138  0.00  0.00    +0.300 A 
ATOM     20  C   LIG    1        4.104   9.240   0.247  0.00  0.00    -0.110 A 
ATOM     21  C   LIG    1        4.473  10.588   0.269  0.00  0.00    +0.250 A 
ATOM     22  N   LIG    1        3.388  11.314   0.187  0.00  0.00    -0.280 NA
ATOM     23  N   LIG    1        2.286  10.453   0.103  0.00  0.00    -0.370 N 
BRANCH  23  24
ATOM     24  C   LIG    1        0.882  10.857  -0.004  0.00  0.00    +0.280 C 
ATOM     25  C   LIG    1        0.497  11.691   1.220  0.00  0.00    +0.060 C 
BRANCH  24  26
ATOM     26  C   LIG    1        0.687  11.691  -1.272  0.00  0.00    -0.040 C 
ATOM     27  C   LIG    1       -0.438  11.278  -2.223  0.00  0.00    +0.030 C 
ATOM     28  C   LIG    1        1.021  11.030  -2.611  0.00  0.00    +0.020 C 
ENDBRANCH  24  26
ENDBRANCH  23  24
ENDBRANCH  16  19
ENDBRANCH   3  15
TORSDOF 5
