REMARK  Name = ZINCkj00000dEiAD.0
REMARK                            x       y       z     vdW  Elec       q    Type
REMARK                         _______ _______ _______ _____ _____    ______ ____
ROOT
ATOM      1  O   LIG    1        1.382   3.597   1.555  0.00  0.00    -0.570 OA
ATOM      2  C   LIG    1        1.985   2.859   0.799  0.00  0.00    +0.700 C 
ATOM      3  N   LIG    1        3.323   2.851   0.690  0.00  0.00    -0.740 N 
ATOM      4  H   LIG    1        3.935   3.368   1.237  0.00  0.00    +0.440 HD
ATOM      5  C   LIG    1        3.714   1.931  -0.391  0.00  0.00    +0.280 C 
ATOM      6  C   LIG    1        2.373   1.438  -0.955  0.00  0.00    +0.230 C 
ATOM      7  C   LIG    1        2.278  -0.089  -0.877  0.00  0.00    +0.220 C 
ATOM      8  N   LIG    1        0.875  -0.484  -1.075  0.00  0.00    -0.530 NA
ATOM      9  C   LIG    1        0.002  -0.004   0.002  0.00  0.00    +0.210 C 
ATOM     10  C   LIG    1       -0.019   1.533   0.011  0.00  0.00    +0.360 C 
ATOM     11  N   LIG    1        1.381   1.981  -0.001  0.00  0.00    -0.640 N 
ENDROOT
BRANCH   8  12
ATOM     12  C   LIG    1        0.762  -1.862  -1.232  0.00  0.00    +0.280 C 
ATOM     13  C   LIG    1        1.148  -2.732  -0.213  0.00  0.00    +0.020 C 
ATOM     14  C   LIG    1        1.020  -4.091  -0.409  0.00  0.00    +0.400 C 
ATOM     15  N   LIG    1        0.540  -4.570  -1.542  0.00  0.00    -0.450 NA
ATOM     16  C   LIG    1        0.164  -3.779  -2.529  0.00  0.00    +0.420 C 
ATOM     17  H   LIG    1        0.462  -5.531  -1.651  0.00  0.00    +0.460 HD
ATOM     18  C   LIG    1        0.255  -2.409  -2.411  0.00  0.00    -0.190 C 
BRANCH  18  19
ATOM     19  C   LIG    1       -0.183  -1.514  -3.542  0.00  0.00    +0.530 C 
ATOM     20  F   LIG    1        0.902  -0.743  -3.974  0.00  0.00    -0.150 F 
ATOM     21  F   LIG    1       -1.207  -0.670  -3.100  0.00  0.00    -0.150 F 
ATOM     22  F   LIG    1       -0.649  -2.297  -4.603  0.00  0.00    -0.170 F 
ENDBRANCH  18  19
ENDBRANCH   8  12
TORSDOF 2
