REMARK  Name = ZINCrH000004speF.0
REMARK                            x       y       z     vdW  Elec       q    Type
REMARK                         _______ _______ _______ _____ _____    ______ ____
ROOT
ATOM      1  C   LIG    1        5.732   4.558   1.041  0.00  0.00    +0.620 C 
ATOM      2  N   LIG    1        6.626   5.388   0.468  0.00  0.00    -0.600 N 
ATOM      3  C   LIG    1        6.163   6.508  -0.356  0.00  0.00    +0.300 C 
ATOM      4  O   LIG    1        6.113   3.669   1.777  0.00  0.00    -0.500 OA
ENDROOT
BRANCH   1   8
ATOM      5  C   LIG    1        1.393   6.411  -0.566  0.00  0.00    +0.210 C 
ATOM      6  C   LIG    1        2.432   5.532   0.081  0.00  0.00    +0.220 A 
ATOM      7  N   LIG    1        3.723   5.746   0.098  0.00  0.00    -0.470 NA
ATOM      8  C   LIG    1        4.288   4.729   0.774  0.00  0.00    +0.160 A 
ATOM      9  N   LIG    1        3.328   3.917   1.161  0.00  0.00    -0.250 NA
ATOM     10  N   LIG    1        2.201   4.382   0.747  0.00  0.00    -0.250 N 
BRANCH  10  11
ATOM     11  C   LIG    1        0.945   3.796   0.957  0.00  0.00    +0.110 A 
ATOM     12  C   LIG    1        0.816   2.413   0.967  0.00  0.00    +0.090 A 
ATOM     13  C   LIG    1       -0.422   1.838   1.174  0.00  0.00    +0.010 A 
ATOM     14  C   LIG    1       -1.536   2.638   1.366  0.00  0.00    +0.120 A 
ATOM     15  C   LIG    1       -1.408   4.017   1.363  0.00  0.00    +0.020 A 
ATOM     16  F   LIG    1       -2.747   2.073   1.563  0.00  0.00    -0.130 F 
ATOM     17  C   LIG    1       -0.172   4.597   1.156  0.00  0.00    +0.070 A 
ENDBRANCH  10  11
ENDBRANCH   1   8
BRANCH   2  18
ATOM     18  C   LIG    1        8.061   5.171   0.669  0.00  0.00    +0.420 C 
BRANCH  18  19
ATOM     19  C   LIG    1        8.588   4.264  -0.413  0.00  0.00    -0.040 A 
ATOM     20  C   LIG    1        9.077   4.660  -1.602  0.00  0.00    -0.040 A 
ATOM     21  C   LIG    1        9.457   3.490  -2.298  0.00  0.00    -0.060 A 
ATOM     22  C   LIG    1        9.171   2.449  -1.496  0.00  0.00    +0.030 A 
ATOM     23  O   LIG    1        8.645   2.924  -0.355  0.00  0.00    -0.160 OA
BRANCH  22  24
ATOM     24  C   LIG    1        9.401   0.995  -1.822  0.00  0.00    +0.050 C 
ATOM     25  C   LIG    1        9.194  -0.022  -0.698  0.00  0.00    +0.040 C 
ATOM     26  C   LIG    1        8.180   0.073  -1.839  0.00  0.00    -0.040 C 
ATOM     27  C   LIG    1        8.164  -1.059  -2.868  0.00  0.00    +0.060 C 
ENDBRANCH  22  24
ENDBRANCH  18  19
ENDBRANCH   2  18
TORSDOF 5
