REMARK  Name = ZINCpe000000WVFU.0
REMARK                            x       y       z     vdW  Elec       q    Type
REMARK                         _______ _______ _______ _____ _____    ______ ____
ROOT
ATOM      1  C   LIG    1        0.953   3.812   1.412  0.00  0.00    +0.160 A 
ATOM      2  C   LIG    1        1.334   5.150   1.445  0.00  0.00    -0.020 A 
ATOM      3  C   LIG    1        2.676   5.464   1.556  0.00  0.00    +0.200 A 
ATOM      4  C   LIG    1        3.597   4.426   1.621  0.00  0.00    -0.750 A 
ATOM      5  C   LIG    1        3.149   3.121   1.579  0.00  0.00    +0.400 A 
ATOM      6  N   LIG    1        1.862   2.850   1.477  0.00  0.00    -0.500 NA
ENDROOT
BRANCH   4   7
ATOM      7  S   LIG    1        5.319   4.772   1.757  0.00  0.00    +2.720 S 
ATOM      8  O   LIG    1        5.915   3.622   2.341  0.00  0.00    -0.950 OA
ATOM      9  O   LIG    1        5.425   6.073   2.319  0.00  0.00    -0.950 OA
BRANCH   7  10
ATOM     10  N   LIG    1        5.920   4.878   0.217  0.00  0.00    -1.010 NA
ATOM     11  C   LIG    1        6.471   3.763  -0.566  0.00  0.00    +0.270 C 
ATOM     12  C   LIG    1        6.928   4.338  -1.924  0.00  0.00    +0.030 C 
ATOM     13  C   LIG    1        7.135   5.843  -1.609  0.00  0.00    +0.040 C 
ATOM     14  C   LIG    1        5.997   6.108  -0.592  0.00  0.00    +0.270 C 
ENDBRANCH   7  10
ENDBRANCH   4   7
BRANCH   1  15
ATOM     15  S   LIG    1       -0.753   3.393   1.277  0.00  0.00    +0.010 S 
BRANCH  15  17
ATOM     16  C   LIG    1       -0.013   1.086   0.008  0.00  0.00    +0.090 C 
ATOM     17  C   LIG    1       -0.729   1.579   1.267  0.00  0.00    +0.040 C 
BRANCH  17  18
ATOM     18  C   LIG    1       -2.143   1.058   1.278  0.00  0.00    +0.570 C 
ATOM     19  N   LIG    1       -2.404  -0.171   1.767  0.00  0.00    -0.580 N 
ATOM     20  C   LIG    1       -3.733  -0.796   1.835  0.00  0.00    +0.280 C 
ATOM     21  C   LIG    1       -3.462  -2.174   2.469  0.00  0.00    +0.290 C 
ATOM     22  N   LIG    1       -2.008  -2.179   2.691  0.00  0.00    -0.720 N 
ATOM     23  H   LIG    1       -1.502  -2.908   3.082  0.00  0.00    +0.440 HD
ATOM     24  C   LIG    1       -1.493  -1.018   2.263  0.00  0.00    +0.700 C 
ATOM     25  O   LIG    1       -0.308  -0.757   2.323  0.00  0.00    -0.540 OA
ATOM     26  O   LIG    1       -3.045   1.743   0.846  0.00  0.00    -0.480 OA
ENDBRANCH  17  18
ENDBRANCH  15  17
ENDBRANCH   1  15
TORSDOF 5
