REMARK  Name = ZINCpe000000Umdm.0
REMARK                            x       y       z     vdW  Elec       q    Type
REMARK                         _______ _______ _______ _____ _____    ______ ____
ROOT
ATOM      1  N   LIG    1        3.166   5.871  -0.178  0.00  0.00    -0.570 N 
ATOM      2  C   LIG    1        3.310   5.495   1.099  0.00  0.00    +0.710 C 
ATOM      3  N   LIG    1        2.978   4.203   1.295  0.00  0.00    -0.710 N 
ATOM      4  H   LIG    1        3.003   3.716   2.134  0.00  0.00    +0.440 HD
ATOM      5  C   LIG    1        2.572   3.684  -0.011  0.00  0.00    +0.170 C 
ATOM      6  C   LIG    1        3.456   2.507  -0.444  0.00  0.00    +0.080 C 
ATOM      7  C   LIG    1        2.610   1.288  -0.010  0.00  0.00    +0.100 C 
ATOM      8  C   LIG    1        1.178   1.781   0.000  0.00  0.00    -0.070 A 
ATOM      9  C   LIG    1       -0.013   1.076   0.008  0.00  0.00    +0.020 A 
ATOM     10  C   LIG    1       -1.220   1.747   0.017  0.00  0.00    +0.030 A 
ATOM     11  C   LIG    1       -1.239   3.129   0.030  0.00  0.00    +0.010 A 
ATOM     12  C   LIG    1       -0.053   3.835   0.023  0.00  0.00    +0.040 A 
ATOM     13  C   LIG    1        1.159   3.166   0.006  0.00  0.00    -0.110 A 
ATOM     14  O   LIG    1        3.697   6.235   1.983  0.00  0.00    -0.530 OA
ATOM     15  C   LIG    1        2.723   4.854  -0.948  0.00  0.00    +0.540 C 
ATOM     16  O   LIG    1        2.497   4.877  -2.139  0.00  0.00    -0.450 OA
ENDROOT
BRANCH   1  17
ATOM     17  C   LIG    1        3.453   7.218  -0.678  0.00  0.00    +0.380 C 
BRANCH  17  20
ATOM     18  C   LIG    1        4.521   9.624  -1.729  0.00  0.00    +0.340 C 
ATOM     19  N   LIG    1        5.386   8.447  -1.611  0.00  0.00    -0.520 N 
ATOM     20  C   LIG    1        4.894   7.296  -1.113  0.00  0.00    +0.500 C 
ATOM     21  O   LIG    1        5.610   6.322  -1.015  0.00  0.00    -0.450 OA
BRANCH  19  22
ATOM     22  C   LIG    1        6.716   8.519  -2.013  0.00  0.00    +0.230 A 
ATOM     23  N   LIG    1        7.577   7.548  -1.958  0.00  0.00    -0.280 NA
ATOM     24  N   LIG    1        8.749   7.780  -2.365  0.00  0.00    -0.220 NA
ATOM     25  C   LIG    1        8.984   8.976  -2.803  0.00  0.00    +0.200 A 
ATOM     26  S   LIG    1        7.488   9.900  -2.669  0.00  0.00    +0.120 S 
ENDBRANCH  19  22
ENDBRANCH  17  20
ENDBRANCH   1  17
TORSDOF 3
