REMARK  Name = ZINCtV000002EB9B.0
REMARK                            x       y       z     vdW  Elec       q    Type
REMARK                         _______ _______ _______ _____ _____    ______ ____
ROOT
ATOM      1  C   LIG    1       -1.129   1.719   0.017  0.00  0.00    +0.540 C 
ATOM      2  N   LIG    1       -0.011   0.966   0.007  0.00  0.00    -0.660 N 
ATOM      3  H   LIG    1       -0.078  -0.002   0.015  0.00  0.00    +0.410 HD
ATOM      4  O   LIG    1       -1.048   2.926  -0.075  0.00  0.00    -0.500 OA
ENDROOT
BRANCH   2   5
ATOM      5  C   LIG    1        1.244   1.579  -0.018  0.00  0.00    +0.150 A 
ATOM      6  C   LIG    1        1.427   2.763  -0.717  0.00  0.00    +0.020 A 
ATOM      7  C   LIG    1        2.668   3.370  -0.737  0.00  0.00    +0.030 A 
ATOM      8  C   LIG    1        3.737   2.797  -0.071  0.00  0.00    +0.000 A 
ATOM      9  C   LIG    1        3.571   1.616   0.624  0.00  0.00    +0.040 A 
ATOM     10  C   LIG    1        2.324   0.997   0.656  0.00  0.00    -0.070 A 
BRANCH  10  11
ATOM     11  C   LIG    1        2.141  -0.271   1.402  0.00  0.00    -0.050 A 
ATOM     12  C   LIG    1        1.093  -0.402   2.312  0.00  0.00    +0.010 A 
ATOM     13  C   LIG    1        0.924  -1.587   3.000  0.00  0.00    +0.000 A 
ATOM     14  C   LIG    1        1.798  -2.640   2.795  0.00  0.00    +0.000 A 
ATOM     15  C   LIG    1        2.843  -2.513   1.897  0.00  0.00    +0.010 A 
ATOM     16  C   LIG    1        3.019  -1.335   1.200  0.00  0.00    +0.030 A 
ENDBRANCH  10  11
ENDBRANCH   2   5
BRANCH   1  18
ATOM     17  C   LIG    1       -2.906   0.513  -1.223  0.00  0.00    +0.090 C 
ATOM     18  C   LIG    1       -2.479   1.062   0.140  0.00  0.00    +0.010 C 
BRANCH  18  19
ATOM     19  S   LIG    1       -3.696   2.282   0.709  0.00  0.00    +0.070 S 
BRANCH  19  20
ATOM     20  C   LIG    1       -5.151   1.315   0.935  0.00  0.00    +0.140 A 
ATOM     21  N   LIG    1       -5.121   0.015   0.683  0.00  0.00    -0.480 NA
ATOM     22  C   LIG    1       -6.189  -0.745   0.839  0.00  0.00    +0.360 A 
ATOM     23  C   LIG    1       -7.384  -0.207   1.274  0.00  0.00    -0.240 A 
ATOM     24  C   LIG    1       -7.458   1.152   1.549  0.00  0.00    +0.170 A 
ATOM     25  C   LIG    1       -6.322   1.923   1.382  0.00  0.00    -0.080 A 
ATOM     26 CL   LIG    1       -6.356   3.626   1.718  0.00  0.00    -0.020 Cl
BRANCH  23  27
ATOM     27  C   LIG    1       -8.595  -1.087   1.448  0.00  0.00    +0.520 C 
ATOM     28  F   LIG    1       -9.624  -0.634   0.615  0.00  0.00    -0.170 F 
ATOM     29  F   LIG    1       -9.018  -1.039   2.780  0.00  0.00    -0.170 F 
ATOM     30  F   LIG    1       -8.267  -2.404   1.110  0.00  0.00    -0.170 F 
ENDBRANCH  23  27
ENDBRANCH  19  20
ENDBRANCH  18  19
ENDBRANCH   1  18
TORSDOF 6
