REMARK  Name = ZINCpe000000ZHw9.0
REMARK                            x       y       z     vdW  Elec       q    Type
REMARK                         _______ _______ _______ _____ _____    ______ ____
ROOT
ATOM      1  C   LIG    1       -1.761   3.157   3.667  0.00  0.00    +0.180 C 
ATOM      2  C   LIG    1       -1.076   3.051   2.298  0.00  0.00    +0.190 C 
ATOM      3  N   LIG    1       -1.856   2.138   1.454  0.00  0.00    -0.480 N 
ATOM      4  C   LIG    1       -3.216   2.465   1.441  0.00  0.00    +0.030 A 
ATOM      5  C   LIG    1       -4.004   1.990   0.399  0.00  0.00    +0.000 A 
ATOM      6  C   LIG    1       -5.352   2.289   0.354  0.00  0.00    +0.010 A 
ATOM      7  C   LIG    1       -5.924   3.063   1.345  0.00  0.00    +0.030 A 
ATOM      8  C   LIG    1       -5.147   3.542   2.384  0.00  0.00    +0.020 A 
ATOM      9  C   LIG    1       -3.792   3.247   2.435  0.00  0.00    +0.100 A 
ATOM     10  O   LIG    1       -3.054   3.737   3.469  0.00  0.00    -0.300 OA
ENDROOT
BRANCH   1  11
ATOM     11  C   LIG    1       -0.930   4.048   4.593  0.00  0.00    +0.220 C 
BRANCH  11  12
ATOM     12  O   LIG    1       -1.510   4.048   5.899  0.00  0.00    -0.560 OA
ATOM     13  H   LIG    1       -1.034   4.593   6.541  0.00  0.00    +0.390 HD
ENDBRANCH  11  12
ENDBRANCH   1  11
BRANCH   3  14
ATOM     14  C   LIG    1       -1.313   2.088   0.090  0.00  0.00    +0.340 C 
BRANCH  14  15
ATOM     15  C   LIG    1        0.078   1.509   0.125  0.00  0.00    +0.180 A 
ATOM     16  N   LIG    1        1.204   2.179   0.166  0.00  0.00    -0.290 NA
ATOM     17  N   LIG    1        2.173   1.330   0.179  0.00  0.00    -0.070 NA
ATOM     18  N   LIG    1        1.694   0.135   0.147  0.00  0.00    -0.090 NA
ATOM     19  N   LIG    1        0.406   0.204   0.113  0.00  0.00    -0.290 N 
BRANCH  19  20
ATOM     20  C   LIG    1       -0.524  -0.927   0.070  0.00  0.00    +0.350 C 
BRANCH  20  21
ATOM     21  C   LIG    1       -0.682  -1.404  -1.375  0.00  0.00    -0.020 C 
ATOM     22  C   LIG    1       -1.355  -0.307  -2.206  0.00  0.00    -0.010 C 
ATOM     23  C   LIG    1       -1.579  -0.822  -3.630  0.00  0.00    +0.210 C 
ATOM     24  O   LIG    1       -2.372  -2.010  -3.586  0.00  0.00    -0.380 OA
ATOM     25  C   LIG    1       -1.772  -3.086  -2.862  0.00  0.00    +0.210 C 
ATOM     26  C   LIG    1       -1.555  -2.662  -1.407  0.00  0.00    +0.010 C 
ENDBRANCH  20  21
ENDBRANCH  19  20
ENDBRANCH  14  15
ENDBRANCH   3  14
TORSDOF 6
