REMARK  Name = ZINCrg000000sJzV.0
REMARK                            x       y       z     vdW  Elec       q    Type
REMARK                         _______ _______ _______ _____ _____    ______ ____
ROOT
ATOM      1  C   LIG    1        1.531   3.513   0.467  0.00  0.00    +0.570 C 
ATOM      2  N   LIG    1        0.392   4.217   0.616  0.00  0.00    -0.610 N 
ATOM      3  C   LIG    1       -0.900   3.536   0.792  0.00  0.00    +0.280 C 
ATOM      4  C   LIG    1       -1.592   4.128   2.031  0.00  0.00    +0.200 C 
ATOM      5  N   LIG    1       -1.675   5.588   1.888  0.00  0.00    -0.490 N 
ATOM      6  C   LIG    1       -0.338   6.195   1.841  0.00  0.00    +0.190 C 
ATOM      7  C   LIG    1        0.406   5.688   0.601  0.00  0.00    +0.290 C 
ATOM      8  O   LIG    1        2.598   4.090   0.395  0.00  0.00    -0.530 OA
ENDROOT
BRANCH   1  17
ATOM      9  C   LIG    1        2.908   3.103  -2.317  0.00  0.00    +0.340 C 
ATOM     10  N   LIG    1        2.612   1.733  -1.891  0.00  0.00    -0.480 N 
ATOM     11  C   LIG    1        2.894   0.595  -2.584  0.00  0.00    +0.490 A 
ATOM     12  N   LIG    1        2.495  -0.447  -1.914  0.00  0.00    -0.470 NA
ATOM     13  C   LIG    1        1.931  -0.045  -0.747  0.00  0.00    -0.010 A 
ATOM     14  C   LIG    1        1.348  -0.705   0.334  0.00  0.00    +0.370 A 
ATOM     15  N   LIG    1        0.873  -0.026   1.359  0.00  0.00    -0.480 NA
ATOM     16  C   LIG    1        0.919   1.291   1.422  0.00  0.00    +0.300 A 
ATOM     17  C   LIG    1        1.483   2.040   0.391  0.00  0.00    -0.170 A 
ATOM     18  C   LIG    1        2.002   1.361  -0.723  0.00  0.00    +0.110 A 
ENDBRANCH   1  17
BRANCH   5  19
ATOM     19  C   LIG    1       -2.439   6.145   2.906  0.00  0.00    +0.140 A 
ATOM     20  C   LIG    1       -1.898   7.140   3.716  0.00  0.00    -0.050 A 
ATOM     21  C   LIG    1       -2.655   7.698   4.722  0.00  0.00    +0.080 A 
ATOM     22  C   LIG    1       -3.964   7.257   4.936  0.00  0.00    -0.170 A 
ATOM     23  C   LIG    1       -4.502   6.254   4.125  0.00  0.00    +0.110 A 
ATOM     24  C   LIG    1       -3.743   5.704   3.118  0.00  0.00    -0.020 A 
BRANCH  22  25
ATOM     25  C   LIG    1       -4.775   7.848   6.017  0.00  0.00    +0.560 C 
ATOM     26  O   LIG    1       -5.914   7.463   6.203  0.00  0.00    -0.540 OA
ATOM     27  N   LIG    1       -4.255   8.815   6.799  0.00  0.00    -0.850 N 
ATOM     28  H   LIG    1       -4.788   9.204   7.509  0.00  0.00    +0.410 HD
ATOM     29  H   LIG    1       -3.347   9.122   6.650  0.00  0.00    +0.400 HD
ENDBRANCH  22  25
ENDBRANCH   5  19
TORSDOF 3
