REMARK  Name = ZINCvU00000003Ww.0
REMARK                            x       y       z     vdW  Elec       q    Type
REMARK                         _______ _______ _______ _____ _____    ______ ____
ROOT
ATOM      1  C   LIG    1        0.057  -2.910  -0.015  0.00  0.00    +0.310 C 
ENDROOT
BRANCH   1   2
ATOM      2  C   LIG    1        1.315  -2.081  -0.022  0.00  0.00    +0.150 A 
ATOM      3  N   LIG    1        2.489  -2.667  -0.037  0.00  0.00    -0.460 NA
ATOM      4  C   LIG    1        3.629  -1.990  -0.044  0.00  0.00    +0.230 A 
ATOM      5  C   LIG    1        3.658  -0.629  -0.037  0.00  0.00    +0.000 A 
ATOM      6  C   LIG    1        2.437   0.072  -0.021  0.00  0.00    -0.030 A 
ATOM      7  C   LIG    1        2.380   1.472  -0.013  0.00  0.00    +0.020 A 
ATOM      8  C   LIG    1        1.167   2.093   0.002  0.00  0.00    +0.030 A 
ATOM      9  C   LIG    1       -0.016   1.358   0.009  0.00  0.00    +0.020 A 
ATOM     10  C   LIG    1        0.002  -0.004   0.002  0.00  0.00    +0.040 A 
ATOM     11  C   LIG    1        1.232  -0.679  -0.013  0.00  0.00    -0.090 A 
ENDBRANCH   1   2
BRANCH   1  15
ATOM     12  C   LIG    1       -0.594  -4.543  -3.911  0.00  0.00    +0.140 A 
ATOM     13  C   LIG    1       -1.215  -3.358  -3.541  0.00  0.00    -0.010 A 
ATOM     14  C   LIG    1       -1.002  -2.833  -2.281  0.00  0.00    +0.070 A 
ATOM     15  C   LIG    1       -0.173  -3.486  -1.389  0.00  0.00    -0.140 A 
ATOM     16  C   LIG    1        0.451  -4.664  -1.757  0.00  0.00    +0.110 A 
ATOM     17  C   LIG    1        0.237  -5.197  -3.013  0.00  0.00    -0.080 A 
BRANCH  12  19
ATOM     18  C   LIG    1       -0.131  -6.285  -5.461  0.00  0.00    +0.250 C 
ATOM     19  O   LIG    1       -0.802  -5.062  -5.149  0.00  0.00    -0.320 OA
ENDBRANCH  12  19
ENDBRANCH   1  15
BRANCH   1  20
ATOM     20  O   LIG    1        0.195  -3.991   0.945  0.00  0.00    -0.320 OA
BRANCH  20  21
ATOM     21  C   LIG    1       -0.207  -3.742   2.207  0.00  0.00    +0.510 C 
ATOM     22  O   LIG    1       -0.660  -2.653   2.497  0.00  0.00    -0.490 OA
BRANCH  21  23
ATOM     23  C   LIG    1       -0.096  -4.794   3.238  0.00  0.00    -0.120 A 
ATOM     24  C   LIG    1        0.418  -6.049   2.907  0.00  0.00    +0.150 A 
ATOM     25  C   LIG    1        0.524  -7.025   3.876  0.00  0.00    +0.030 A 
ATOM     26  C   LIG    1        0.111  -6.766   5.171  0.00  0.00    +0.140 A 
ATOM     27  C   LIG    1       -0.405  -5.527   5.505  0.00  0.00    -0.050 A 
ATOM     28  C   LIG    1       -0.511  -4.540   4.547  0.00  0.00    +0.180 A 
BRANCH  27  29
ATOM     29  N   LIG    1       -0.845  -5.259   6.892  0.00  0.00    +0.030 N 
ATOM     30  O   LIG    1       -0.752  -6.129   7.739  0.00  0.00    -0.150 OA
ATOM     31  O   LIG    1       -1.300  -4.168   7.187  0.00  0.00    -0.150 OA
ENDBRANCH  27  29
ENDBRANCH  21  23
ENDBRANCH  20  21
ENDBRANCH   1  20
TORSDOF 7
