REMARK  Name = ZINCrD00000F5LF8.0
REMARK                            x       y       z     vdW  Elec       q    Type
REMARK                         _______ _______ _______ _____ _____    ______ ____
ROOT
ATOM      1  C   LIG    1       -1.134   4.365   0.594  0.00  0.00    +0.510 C 
ATOM      2  O   LIG    1       -0.112   4.936   0.263  0.00  0.00    -0.520 OA
ENDROOT
BRANCH   1   4
ATOM      3  C   LIG    1        0.100   2.368   1.082  0.00  0.00    +0.170 C 
ATOM      4  C   LIG    1       -1.084   3.018   1.032  0.00  0.00    -0.090 C 
BRANCH   3  12
ATOM      5  C   LIG    1       -0.973  -3.666   2.458  0.00  0.00    +0.220 C 
ATOM      6  N   LIG    1        0.262  -2.977   2.856  0.00  0.00    -0.500 N 
ATOM      7  C   LIG    1        1.443  -3.738   2.444  0.00  0.00    +0.190 C 
ATOM      8  C   LIG    1        2.697  -2.965   2.868  0.00  0.00    +0.040 C 
ATOM      9  C   LIG    1        2.775  -1.692   2.022  0.00  0.00    +0.080 C 
ATOM     10  C   LIG    1        1.429  -1.010   2.007  0.00  0.00    -0.130 A 
ATOM     11  C   LIG    1        1.373   0.292   1.584  0.00  0.00    +0.080 A 
ATOM     12  C   LIG    1        0.152   0.972   1.536  0.00  0.00    -0.130 A 
ATOM     13  C   LIG    1       -1.020   0.314   1.929  0.00  0.00    +0.070 A 
ATOM     14  C   LIG    1       -0.957  -0.992   2.350  0.00  0.00    -0.040 A 
ATOM     15  C   LIG    1        0.269  -1.665   2.399  0.00  0.00    +0.160 A 
ENDBRANCH   3  12
ENDBRANCH   1   4
BRANCH   1  16
ATOM     16  O   LIG    1       -2.316   5.014   0.544  0.00  0.00    -0.330 OA
BRANCH  16  17
ATOM     17  C   LIG    1       -2.293   6.370   0.093  0.00  0.00    +0.270 C 
BRANCH  17  18
ATOM     18  C   LIG    1       -3.693   6.927   0.105  0.00  0.00    +0.520 C 
ATOM     19  N   LIG    1       -3.916   8.198  -0.284  0.00  0.00    -0.660 N 
ATOM     20  H   LIG    1       -3.189   8.728  -0.648  0.00  0.00    +0.420 HD
ATOM     21  O   LIG    1       -4.620   6.232   0.464  0.00  0.00    -0.490 OA
BRANCH  19  22
ATOM     22  C   LIG    1       -5.195   8.754  -0.163  0.00  0.00    +0.120 A 
ATOM     23  C   LIG    1       -6.144   8.166   0.669  0.00  0.00    +0.090 A 
ATOM     24  C   LIG    1       -7.395   8.755   0.760  0.00  0.00    +0.010 A 
ATOM     25  C   LIG    1       -7.662   9.892   0.021  0.00  0.00    +0.270 A 
ATOM     26  N   LIG    1       -6.742  10.423  -0.763  0.00  0.00    -0.450 NA
ATOM     27  C   LIG    1       -5.538   9.898  -0.875  0.00  0.00    +0.140 A 
ATOM     28 CL   LIG    1       -4.370  10.641  -1.922  0.00  0.00    -0.030 Cl
ENDBRANCH  19  22
ENDBRANCH  17  18
ENDBRANCH  16  17
ENDBRANCH   1  16
TORSDOF 6
