REMARK  Name = ZINCrD00000F5Ltm.0
REMARK                            x       y       z     vdW  Elec       q    Type
REMARK                         _______ _______ _______ _____ _____    ______ ____
ROOT
ATOM      1  N   LIG    1        2.871   4.252   1.327  0.00  0.00    -0.730 N 
ATOM      2  H   LIG    1        2.520   3.772   2.093  0.00  0.00    +0.400 HD
ATOM      3  C   LIG    1        3.828   5.186   1.497  0.00  0.00    +0.710 C 
ATOM      4  N   LIG    1        4.298   5.452   2.732  0.00  0.00    -0.680 N 
ATOM      5  H   LIG    1        3.894   5.029   3.506  0.00  0.00    +0.410 HD
ATOM      6  O   LIG    1        4.268   5.787   0.536  0.00  0.00    -0.570 OA
ENDROOT
BRANCH   4   7
ATOM      7  C   LIG    1        5.369   6.339   2.897  0.00  0.00    +0.190 A 
ATOM      8  C   LIG    1        6.369   6.408   1.930  0.00  0.00    +0.020 A 
ATOM      9  C   LIG    1        7.416   7.272   2.073  0.00  0.00    +0.090 A 
ATOM     10  C   LIG    1        7.498   8.089   3.204  0.00  0.00    +0.030 A 
ATOM     11  N   LIG    1        8.395   9.019   3.622  0.00  0.00    -0.490 NA
ATOM     12  C   LIG    1        8.016   9.510   4.765  0.00  0.00    +0.470 A 
ATOM     13  N   LIG    1        6.849   8.929   5.160  0.00  0.00    -0.500 N 
ATOM     14  C   LIG    1        6.109   9.217   6.391  0.00  0.00    +0.330 C 
ATOM     15  C   LIG    1        6.494   8.018   4.185  0.00  0.00    +0.070 A 
ATOM     16  C   LIG    1        5.432   7.140   4.025  0.00  0.00    -0.030 A 
ENDBRANCH   4   7
BRANCH   1  21
ATOM     17  C   LIG    1       -1.391   1.925   0.134  0.00  0.00    +0.120 A 
ATOM     18  C   LIG    1       -0.176   1.290  -0.064  0.00  0.00    -0.030 A 
ATOM     19  C   LIG    1        0.997   2.026  -0.100  0.00  0.00    -0.070 A 
ATOM     20  C   LIG    1        0.958   3.398   0.066  0.00  0.00    -0.120 A 
ATOM     21  C   LIG    1        2.360   3.963  -0.016  0.00  0.00    +0.310 C 
ATOM     22  C   LIG    1        3.204   2.856  -0.683  0.00  0.00    +0.040 C 
ATOM     23  C   LIG    1       -0.254   4.036   0.270  0.00  0.00    +0.000 A 
ATOM     24  C   LIG    1        2.428   1.576  -0.305  0.00  0.00    +0.080 C 
ATOM     25  C   LIG    1       -1.429   3.305   0.308  0.00  0.00    +0.100 A 
BRANCH  17  27
ATOM     26  C   LIG    1       -2.424  -0.212  -0.016  0.00  0.00    +0.240 C 
ATOM     27  O   LIG    1       -2.541   1.201   0.164  0.00  0.00    -0.300 OA
ENDBRANCH  17  27
BRANCH  25  28
ATOM     28  O   LIG    1       -2.618   3.934   0.508  0.00  0.00    -0.300 OA
ATOM     29  C   LIG    1       -2.581   5.354   0.672  0.00  0.00    +0.240 C 
ENDBRANCH  25  28
ENDBRANCH   1  21
TORSDOF 4
