REMARK  Name = ZINCkj000005fXlv.0
REMARK                            x       y       z     vdW  Elec       q    Type
REMARK                         _______ _______ _______ _____ _____    ______ ____
ROOT
ATOM      1  N   LIG    1        0.362   4.292   0.170  0.00  0.00    -1.130 NA
ATOM      2  H   LIG    1        1.179   3.772   0.121  0.00  0.00    +0.410 HD
ENDROOT
BRANCH   1   3
ATOM      3  S   LIG    1        0.434   5.923   0.445  0.00  0.00    +2.720 S 
ATOM      4  O   LIG    1       -0.404   6.532  -0.529  0.00  0.00    -0.930 OA
ATOM      5  O   LIG    1        1.810   6.245   0.596  0.00  0.00    -0.930 OA
BRANCH   3   6
ATOM      6  C   LIG    1       -0.322   6.223   2.008  0.00  0.00    -0.810 A 
ATOM      7  C   LIG    1        0.306   6.234   3.208  0.00  0.00    +0.230 A 
ATOM      8  N   LIG    1       -0.620   6.500   4.154  0.00  0.00    -0.340 N 
ATOM      9  N   LIG    1       -1.856   6.659   3.514  0.00  0.00    -0.260 NA
ATOM     10  C   LIG    1       -0.375   6.604   5.594  0.00  0.00    +0.390 C 
ATOM     11 CL   LIG    1        1.997   5.955   3.481  0.00  0.00    +0.040 Cl
ATOM     12  C   LIG    1       -1.676   6.499   2.228  0.00  0.00    +0.170 A 
ATOM     13  C   LIG    1       -2.743   6.591   1.168  0.00  0.00    +0.190 C 
ENDBRANCH   3   6
ENDBRANCH   1   3
BRANCH   1  14
ATOM     14  C   LIG    1       -0.937   3.634   0.002  0.00  0.00    +0.310 C 
BRANCH  14  15
ATOM     15  C   LIG    1       -0.733   2.261  -0.643  0.00  0.00    +0.160 C 
ATOM     16  C   LIG    1       -2.077   1.537  -0.735  0.00  0.00    +0.110 C 
BRANCH  15  17
ATOM     17  N   LIG    1        0.195   1.469   0.176  0.00  0.00    -0.390 N 
ATOM     18  H   LIG    1        1.051   1.986   0.309  0.00  0.00    +0.420 HD
BRANCH  17  20
ATOM     19  C   LIG    1        0.601   0.496   2.386  0.00  0.00    +0.080 C 
ATOM     20  C   LIG    1       -0.418   1.192   1.482  0.00  0.00    +0.250 C 
ENDBRANCH  17  20
BRANCH  17  21
ATOM     21  C   LIG    1        0.489   0.202  -0.506  0.00  0.00    +0.240 C 
ATOM     22  C   LIG    1        1.244   0.485  -1.806  0.00  0.00    +0.080 C 
ENDBRANCH  17  21
ENDBRANCH  15  17
ENDBRANCH  14  15
ENDBRANCH   1  14
TORSDOF 7
