REMARK  Name = ZINCrH00000tj1cf.1
REMARK                            x       y       z     vdW  Elec       q    Type
REMARK                         _______ _______ _______ _____ _____    ______ ____
ROOT
ATOM      1  C   LIG    1       -3.429   3.286   2.895  0.00  0.00    +0.520 C 
ATOM      2  N   LIG    1       -4.581   3.923   3.185  0.00  0.00    -0.670 N 
ATOM      3  H   LIG    1       -5.118   4.303   2.472  0.00  0.00    +0.420 HD
ATOM      4  O   LIG    1       -2.718   2.882   3.790  0.00  0.00    -0.500 OA
ENDROOT
BRANCH   2   5
ATOM      5  C   LIG    1       -5.004   4.034   4.514  0.00  0.00    +0.140 A 
ATOM      6  C   LIG    1       -4.070   4.186   5.530  0.00  0.00    +0.150 A 
ATOM      7  C   LIG    1       -4.491   4.302   6.841  0.00  0.00    -0.640 A 
ATOM      8  C   LIG    1       -5.839   4.255   7.144  0.00  0.00    +0.130 A 
ATOM      9  C   LIG    1       -6.772   4.098   6.135  0.00  0.00    +0.040 A 
ATOM     10  C   LIG    1       -6.359   3.987   4.821  0.00  0.00    -0.020 A 
ATOM     11 CL   LIG    1       -7.530   3.789   3.555  0.00  0.00    -0.050 Cl
BRANCH   7  12
ATOM     12  S   LIG    1       -3.306   4.502   8.131  0.00  0.00    +2.500 S 
ATOM     13  O   LIG    1       -4.019   5.175   9.159  0.00  0.00    -0.930 OA
ATOM     14  O   LIG    1       -2.192   5.110   7.492  0.00  0.00    -0.930 OA
ATOM     15  C   LIG    1       -2.902   2.808   8.640  0.00  0.00    -0.240 C 
ENDBRANCH   7  12
ENDBRANCH   2   5
BRANCH   1  16
ATOM     16  C   LIG    1       -3.025   3.078   1.458  0.00  0.00    +0.220 C 
BRANCH  16  17
ATOM     17  N   LIG    1       -1.741   2.365   1.409  0.00  0.00    -0.670 NA
ATOM     18  H   LIG    1       -1.791   1.494   1.916  0.00  0.00    +0.350 HD
BRANCH  17  19
ATOM     19  C   LIG    1       -1.314   2.144   0.021  0.00  0.00    +0.220 C 
BRANCH  19  23
ATOM     20  C   LIG    1        2.421   0.071  -0.018  0.00  0.00    -0.060 A 
ATOM     21  C   LIG    1        1.236  -0.640  -0.019  0.00  0.00    +0.000 A 
ATOM     22  C   LIG    1        0.027   0.030  -0.004  0.00  0.00    +0.010 A 
ATOM     23  C   LIG    1        0.004   1.412   0.012  0.00  0.00    -0.090 A 
ATOM     24  C   LIG    1        1.189   2.124   0.013  0.00  0.00    +0.030 A 
ATOM     25  C   LIG    1        2.398   1.453  -0.002  0.00  0.00    +0.010 A 
BRANCH  20  27
ATOM     26  C   LIG    1        3.827  -1.524  -1.295  0.00  0.00    +0.040 C 
ATOM     27  C   LIG    1        3.739  -0.660  -0.035  0.00  0.00    -0.030 C 
ATOM     28  C   LIG    1        3.842  -1.553   1.203  0.00  0.00    +0.040 C 
ATOM     29  C   LIG    1        4.885   0.353  -0.030  0.00  0.00    +0.030 C 
ENDBRANCH  20  27
ENDBRANCH  19  23
ENDBRANCH  17  19
ENDBRANCH  16  17
ENDBRANCH   1  16
TORSDOF 7
