REMARK  Name = ZINCpe00000gMdmo.0
REMARK                            x       y       z     vdW  Elec       q    Type
REMARK                         _______ _______ _______ _____ _____    ______ ____
ROOT
ATOM      1  C   LIG    1       -1.488   3.855   2.549  0.00  0.00    -0.130 A 
ATOM      2  C   LIG    1       -1.906   2.997   3.571  0.00  0.00    +0.160 A 
ATOM      3  C   LIG    1       -2.526   3.512   4.687  0.00  0.00    -0.010 A 
ATOM      4  C   LIG    1       -2.744   4.883   4.790  0.00  0.00    +0.190 A 
ATOM      5  C   LIG    1       -2.332   5.736   3.769  0.00  0.00    -0.040 A 
ATOM      6  C   LIG    1       -1.711   5.231   2.661  0.00  0.00    +0.180 A 
ENDROOT
BRANCH   4   7
ATOM      7  N   LIG    1       -3.374   5.403   5.915  0.00  0.00    -0.480 N 
ATOM      8  C   LIG    1       -4.670   4.721   6.161  0.00  0.00    +0.190 C 
ATOM      9  C   LIG    1       -4.950   5.021   7.655  0.00  0.00    +0.040 C 
ATOM     10  C   LIG    1       -3.544   4.943   8.292  0.00  0.00    +0.020 C 
ATOM     11  C   LIG    1       -2.562   5.176   7.130  0.00  0.00    +0.180 C 
ENDBRANCH   4   7
BRANCH   5  12
ATOM     12  N   LIG    1       -2.567   7.192   3.883  0.00  0.00    +0.030 N 
ATOM     13  O   LIG    1       -3.206   7.634   4.821  0.00  0.00    -0.090 OA
ATOM     14  O   LIG    1       -2.121   7.950   3.040  0.00  0.00    -0.190 OA
ENDBRANCH   5  12
BRANCH   1  15
ATOM     15  C   LIG    1       -0.820   3.310   1.354  0.00  0.00    +0.520 C 
ATOM     16  O   LIG    1       -0.462   4.057   0.465  0.00  0.00    -0.490 OA
BRANCH  15  17
ATOM     17  O   LIG    1       -0.606   1.984   1.247  0.00  0.00    -0.330 OA
BRANCH  17  18
ATOM     18  C   LIG    1        0.058   1.518   0.043  0.00  0.00    +0.270 C 
BRANCH  18  25
ATOM     19  C   LIG    1        1.677  -4.090  -1.825  0.00  0.00    +0.300 C 
ATOM     20  N   LIG    1        1.530  -2.634  -1.882  0.00  0.00    -0.740 N 
ATOM     21  H   LIG    1        1.858  -2.143  -2.651  0.00  0.00    +0.400 HD
ATOM     22  C   LIG    1        0.938  -1.977  -0.865  0.00  0.00    +0.690 C 
ATOM     23  N   LIG    1        0.802  -0.637  -0.916  0.00  0.00    -0.690 N 
ATOM     24  H   LIG    1        1.130  -0.146  -1.685  0.00  0.00    +0.410 HD
ATOM     25  C   LIG    1        0.210   0.020   0.101  0.00  0.00    +0.520 C 
ATOM     26  O   LIG    1       -0.201  -0.595   1.062  0.00  0.00    -0.440 OA
ATOM     27  O   LIG    1        0.526  -2.593   0.099  0.00  0.00    -0.520 OA
ENDBRANCH  18  25
ENDBRANCH  17  18
ENDBRANCH  15  17
ENDBRANCH   1  15
TORSDOF 6
