REMARK  Name = ZINCrD000001YLMK.0
REMARK                            x       y       z     vdW  Elec       q    Type
REMARK                         _______ _______ _______ _____ _____    ______ ____
ROOT
ATOM      1  C   LIG    1       -2.929   2.982   1.643  0.00  0.00    +0.560 C 
ATOM      2  N   LIG    1       -1.780   2.327   1.382  0.00  0.00    -0.720 N 
ATOM      3  H   LIG    1       -1.226   2.009   2.112  0.00  0.00    +0.400 HD
ATOM      4  O   LIG    1       -3.623   3.380   0.728  0.00  0.00    -0.530 OA
ENDROOT
BRANCH   1   7
ATOM      5  C   LIG    1       -4.918   4.111   4.623  0.00  0.00    +0.110 A 
ATOM      6  C   LIG    1       -4.531   3.899   3.312  0.00  0.00    +0.110 A 
ATOM      7  C   LIG    1       -3.344   3.215   3.040  0.00  0.00    -0.130 A 
ATOM      8  C   LIG    1       -2.547   2.758   4.093  0.00  0.00    +0.050 A 
ATOM      9  C   LIG    1       -2.934   2.978   5.397  0.00  0.00    +0.010 A 
ATOM     10  C   LIG    1       -4.116   3.651   5.670  0.00  0.00    +0.110 A 
BRANCH   5  12
ATOM     11  C   LIG    1       -6.517   5.794   4.098  0.00  0.00    +0.540 C 
ATOM     12  N   LIG    1       -6.111   4.791   4.901  0.00  0.00    -0.660 N 
ATOM     13  H   LIG    1       -6.644   4.539   5.671  0.00  0.00    +0.420 HD
ATOM     14  O   LIG    1       -5.892   6.056   3.088  0.00  0.00    -0.520 OA
BRANCH  11  16
ATOM     15  C   LIG    1       -8.117   7.563   3.651  0.00  0.00    +0.160 C 
ATOM     16  C   LIG    1       -7.716   6.573   4.443  0.00  0.00    -0.090 C 
ENDBRANCH  11  16
ENDBRANCH   5  12
BRANCH  10  17
ATOM     17  O   LIG    1       -4.494   3.865   6.956  0.00  0.00    -0.490 OA
ATOM     18  H   LIG    1       -4.165   4.694   7.330  0.00  0.00    +0.390 HD
ENDBRANCH  10  17
ENDBRANCH   1   7
BRANCH   2  19
ATOM     19  C   LIG    1       -1.368   2.095  -0.005  0.00  0.00    +0.330 C 
BRANCH  19  20
ATOM     20  C   LIG    1       -0.059   1.348  -0.022  0.00  0.00    -0.140 A 
ATOM     21  C   LIG    1       -0.049  -0.034  -0.032  0.00  0.00    +0.070 A 
ATOM     22  C   LIG    1        1.146  -0.723  -0.050  0.00  0.00    -0.010 A 
ATOM     23  C   LIG    1        2.354  -0.030  -0.060  0.00  0.00    +0.120 A 
ATOM     24  O   LIG    1        3.631  -0.503  -0.067  0.00  0.00    -0.300 OA
ATOM     25  C   LIG    1        4.519   0.539  -0.505  0.00  0.00    +0.170 C 
ATOM     26  C   LIG    1        3.773   1.827  -0.082  0.00  0.00    +0.020 C 
ATOM     27  C   LIG    1        4.224   2.289   1.305  0.00  0.00    +0.050 C 
ATOM     28  C   LIG    1        5.871   0.433   0.204  0.00  0.00    +0.070 C 
ATOM     29  C   LIG    1        2.331   1.359  -0.055  0.00  0.00    -0.170 A 
ATOM     30  C   LIG    1        1.137   2.044  -0.033  0.00  0.00    +0.080 A 
ENDBRANCH  19  20
ENDBRANCH   2  19
TORSDOF 6
