REMARK  Name = ZINCtj00001yywB1.1
REMARK                            x       y       z     vdW  Elec       q    Type
REMARK                         _______ _______ _______ _____ _____    ______ ____
ROOT
ATOM      1  N   LIG    1       -0.963   2.483   3.788  0.00  0.00    -0.400 N 
ATOM      2  N   LIG    1       -1.143   1.369   4.625  0.00  0.00    -0.260 N 
ATOM      3  C   LIG    1       -0.540   1.238   5.734  0.00  0.00    +0.280 C 
ATOM      4  C   LIG    1        0.425   2.246   6.294  0.00  0.00    +0.330 C 
ATOM      5  N   LIG    1        0.776   3.221   5.262  0.00  0.00    -0.440 N 
ATOM      6  C   LIG    1        1.758   4.171   5.233  0.00  0.00    -0.120 A 
ATOM      7  C   LIG    1        2.766   4.550   6.143  0.00  0.00    +0.600 A 
ATOM      8  N   LIG    1        3.578   5.565   5.759  0.00  0.00    -0.540 N 
ATOM      9  C   LIG    1        3.446   6.189   4.579  0.00  0.00    +0.700 A 
ATOM     10  N   LIG    1        2.498   5.864   3.671  0.00  0.00    -0.510 N 
ATOM     11  C   LIG    1        2.390   6.572   2.393  0.00  0.00    +0.360 C 
ATOM     12  O   LIG    1        4.218   7.090   4.312  0.00  0.00    -0.510 OA
ATOM     13  O   LIG    1        2.899   3.994   7.219  0.00  0.00    -0.490 OA
ATOM     14  C   LIG    1        1.631   4.831   4.000  0.00  0.00    +0.360 A 
ATOM     15  N   LIG    1        0.618   4.281   3.348  0.00  0.00    -0.470 NA
ATOM     16  C   LIG    1        1.691   1.529   6.769  0.00  0.00    +0.140 C 
ATOM     17  C   LIG    1       -0.808  -0.006   6.541  0.00  0.00    +0.250 C 
ATOM     18  H   LIG    1       -1.754   0.670   4.343  0.00  0.00    +0.470 HD
ATOM     19  C   LIG    1        0.100   3.318   4.071  0.00  0.00    +0.490 A 
ENDROOT
BRANCH   1  20
ATOM     20  C   LIG    1       -1.861   2.744   2.660  0.00  0.00    +0.410 C 
BRANCH  20  21
ATOM     21  C   LIG    1       -1.321   2.051   1.408  0.00  0.00    +0.190 C 
BRANCH  21  23
ATOM     22  C   LIG    1       -0.866  -0.111   0.478  0.00  0.00    +0.220 C 
ATOM     23  O   LIG    1       -1.352   0.635   1.596  0.00  0.00    -0.410 OA
ENDBRANCH  21  23
ENDBRANCH  20  21
ENDBRANCH   1  20
BRANCH   8  24
ATOM     24  C   LIG    1        4.641   5.997   6.669  0.00  0.00    +0.380 C 
BRANCH  24  25
ATOM     25  C   LIG    1        4.117   7.082   7.575  0.00  0.00    -0.130 A 
ATOM     26  C   LIG    1        4.224   8.408   7.199  0.00  0.00    +0.040 A 
ATOM     27  C   LIG    1        3.739   9.402   8.028  0.00  0.00    +0.010 A 
ATOM     28  C   LIG    1        3.156   9.071   9.237  0.00  0.00    +0.030 A 
ATOM     29  C   LIG    1        3.054   7.745   9.615  0.00  0.00    -0.010 A 
ATOM     30  C   LIG    1        3.535   6.751   8.784  0.00  0.00    +0.040 A 
ENDBRANCH  24  25
ENDBRANCH   8  24
TORSDOF 5
