REMARK  Name = ZINCrg00000IZobP.0
REMARK                            x       y       z     vdW  Elec       q    Type
REMARK                         _______ _______ _______ _____ _____    ______ ____
ROOT
ATOM      1  C   LIG    1        1.500   2.671   1.535  0.00  0.00    -0.700 A 
ATOM      2  C   LIG    1        1.146   4.007   1.590  0.00  0.00    +0.150 A 
ATOM      3  C   LIG    1        1.221   4.694   2.785  0.00  0.00    -0.020 A 
ATOM      4  C   LIG    1        1.663   4.045   3.931  0.00  0.00    +0.210 A 
ATOM      5  C   LIG    1        2.022   2.705   3.871  0.00  0.00    +0.010 A 
ATOM      6  C   LIG    1        1.940   2.022   2.674  0.00  0.00    +0.160 A 
ENDROOT
BRANCH   4   7
ATOM      7  N   LIG    1        1.745   4.740   5.143  0.00  0.00    -0.670 N 
ATOM      8  H   LIG    1        1.106   5.441   5.344  0.00  0.00    +0.420 HD
ATOM      9  C   LIG    1        2.713   4.436   6.029  0.00  0.00    +0.520 C 
ATOM     10  O   LIG    1        3.570   3.627   5.739  0.00  0.00    -0.480 OA
BRANCH   9  11
ATOM     11  C   LIG    1        2.732   5.100   7.382  0.00  0.00    +0.190 C 
ATOM     12  C   LIG    1        3.110   6.594   7.254  0.00  0.00    +0.110 C 
ATOM     13  C   LIG    1        3.942   6.816   8.502  0.00  0.00    -0.180 A 
ATOM     14  C   LIG    1        4.351   7.960   9.150  0.00  0.00    +0.060 A 
ATOM     15  C   LIG    1        5.104   7.867  10.307  0.00  0.00    -0.010 A 
ATOM     16  C   LIG    1        5.444   6.624  10.808  0.00  0.00    +0.060 A 
ATOM     17  C   LIG    1        5.040   5.476  10.157  0.00  0.00    +0.000 A 
ATOM     18  C   LIG    1        4.285   5.561   8.990  0.00  0.00    +0.100 A 
ATOM     19  O   LIG    1        3.794   4.571   8.194  0.00  0.00    -0.270 OA
ENDBRANCH   9  11
ENDBRANCH   4   7
BRANCH   1  20
ATOM     20  S   LIG    1        1.397   1.796   0.009  0.00  0.00    +2.700 S 
ATOM     21  O   LIG    1        1.469   2.774  -1.020  0.00  0.00    -0.950 OA
ATOM     22  O   LIG    1        2.303   0.706   0.110  0.00  0.00    -0.940 OA
BRANCH  20  23
ATOM     23  N   LIG    1       -0.120   1.138  -0.077  0.00  0.00    -1.110 NA
ATOM     24  H   LIG    1       -0.231   0.174  -0.074  0.00  0.00    +0.430 HD
BRANCH  23  25
ATOM     25  C   LIG    1       -1.294   2.010  -0.163  0.00  0.00    +0.370 C 
BRANCH  25  26
ATOM     26  C   LIG    1       -2.488   1.204  -0.602  0.00  0.00    +0.460 C 
ATOM     27  O   LIG    1       -2.372   0.021  -0.820  0.00  0.00    -0.500 OA
BRANCH  26  29
ATOM     28  C   LIG    1       -4.789   0.960  -1.175  0.00  0.00    +0.290 C 
ATOM     29  O   LIG    1       -3.682   1.799  -0.750  0.00  0.00    -0.360 OA
ENDBRANCH  26  29
ENDBRANCH  25  26
ENDBRANCH  23  25
ENDBRANCH  20  23
ENDBRANCH   1  20
TORSDOF 7
