REMARK  Name = ZINCrg000000s0j2.0
REMARK                            x       y       z     vdW  Elec       q    Type
REMARK                         _______ _______ _______ _____ _____    ______ ____
ROOT
ATOM      1  C   LIG    1       -2.526   5.804  -1.385  0.00  0.00    +0.050 C 
ENDROOT
BRANCH   1   4
ATOM      2  N   LIG    1       -2.592   7.991  -2.540  0.00  0.00    -0.730 N 
ATOM      3  H   LIG    1       -2.588   7.511  -3.383  0.00  0.00    +0.400 HD
ATOM      4  C   LIG    1       -2.564   7.311  -1.377  0.00  0.00    +0.520 C 
ATOM      5  O   LIG    1       -2.571   7.912  -0.323  0.00  0.00    -0.530 OA
BRANCH   2   6
ATOM      6  C   LIG    1       -2.630   9.456  -2.532  0.00  0.00    +0.270 C 
BRANCH   6   7
ATOM      7  C   LIG    1       -2.657   9.973  -3.971  0.00  0.00    +0.010 C 
BRANCH   7   8
ATOM      8  C   LIG    1       -2.696  11.503  -3.963  0.00  0.00    +0.340 C 
BRANCH   8  15
ATOM      9  C   LIG    1       -0.203  12.188  -5.672  0.00  0.00    +0.150 C 
ATOM     10  C   LIG    1       -1.645  12.300  -6.096  0.00  0.00    +0.080 A 
ATOM     11  C   LIG    1       -2.091  12.719  -7.303  0.00  0.00    -0.120 A 
ATOM     12  C   LIG    1       -3.489  12.680  -7.282  0.00  0.00    +0.070 A 
ATOM     13  N   LIG    1       -3.868  12.248  -6.106  0.00  0.00    -0.300 NA
ATOM     14  C   LIG    1       -4.401  13.069  -8.417  0.00  0.00    +0.160 C 
ATOM     15  N   LIG    1       -2.722  11.998  -5.341  0.00  0.00    -0.370 N 
ENDBRANCH   8  15
ENDBRANCH   7   8
ENDBRANCH   6   7
ENDBRANCH   2   6
ENDBRANCH   1   4
BRANCH   1  16
ATOM     16  C   LIG    1       -2.499   5.287   0.054  0.00  0.00    +0.350 C 
BRANCH  16  17
ATOM     17  N   LIG    1       -2.461   3.822   0.046  0.00  0.00    -0.540 N 
ATOM     18  C   LIG    1       -3.611   3.127   0.035  0.00  0.00    +0.700 A 
ATOM     19  N   LIG    1       -3.650   1.785   0.028  0.00  0.00    -0.660 N 
ATOM     20  H   LIG    1       -4.509   1.334   0.030  0.00  0.00    +0.430 HD
ATOM     21  C   LIG    1       -2.517   1.051   0.019  0.00  0.00    +0.570 A 
ATOM     22  C   LIG    1       -1.225   1.761   0.017  0.00  0.00    -0.200 A 
ATOM     23  C   LIG    1       -0.013   1.076   0.008  0.00  0.00    +0.140 A 
ATOM     24  C   LIG    1        1.169   1.787   0.001  0.00  0.00    -0.010 A 
ATOM     25  C   LIG    1        1.155   3.173   0.008  0.00  0.00    +0.100 A 
ATOM     26  C   LIG    1       -0.041   3.864   0.023  0.00  0.00    -0.030 A 
ATOM     27  O   LIG    1       -2.561  -0.164   0.012  0.00  0.00    -0.490 OA
ATOM     28  O   LIG    1       -4.662   3.739   0.043  0.00  0.00    -0.540 OA
ATOM     29  C   LIG    1       -1.239   3.167   0.031  0.00  0.00    +0.200 A 
ENDBRANCH  16  17
ENDBRANCH   1  16
TORSDOF 7
