REMARK  Name = ZINCrH000004rpco.0
REMARK                            x       y       z     vdW  Elec       q    Type
REMARK                         _______ _______ _______ _____ _____    ______ ____
ROOT
ATOM      1  C   LIG    1       -5.923   5.907  -0.340  0.00  0.00    +0.090 C 
ATOM      2  C   LIG    1       -4.649   5.102  -0.329  0.00  0.00    +0.000 A 
ATOM      3  C   LIG    1       -3.511   5.619   0.263  0.00  0.00    +0.020 A 
ATOM      4  C   LIG    1       -2.342   4.884   0.275  0.00  0.00    +0.040 A 
ATOM      5  C   LIG    1       -2.310   3.624  -0.308  0.00  0.00    +0.140 A 
ATOM      6  C   LIG    1       -3.453   3.110  -0.906  0.00  0.00    +0.140 A 
ATOM      7  C   LIG    1       -4.620   3.848  -0.910  0.00  0.00    -0.660 A 
ENDROOT
BRANCH   5   8
ATOM      8  N   LIG    1       -1.127   2.877  -0.298  0.00  0.00    -0.690 N 
ATOM      9  H   LIG    1       -0.269   3.326  -0.353  0.00  0.00    +0.410 HD
ATOM     10  C   LIG    1       -1.180   1.533  -0.212  0.00  0.00    +0.700 C 
ATOM     11  N   LIG    1       -0.048   0.806  -0.307  0.00  0.00    -0.730 N 
ATOM     12  H   LIG    1        0.803   1.251  -0.442  0.00  0.00    +0.400 HD
ATOM     13  O   LIG    1       -2.248   0.975  -0.048  0.00  0.00    -0.570 OA
BRANCH  11  14
ATOM     14  C   LIG    1       -0.106  -0.654  -0.214  0.00  0.00    +0.260 C 
ATOM     15  C   LIG    1       -0.069  -1.073   1.258  0.00  0.00    +0.010 C 
ATOM     16  C   LIG    1        1.227  -0.572   1.898  0.00  0.00    +0.010 C 
ATOM     17  C   LIG    1        2.426  -1.177   1.166  0.00  0.00    -0.070 C 
ATOM     18  C   LIG    1        2.389  -0.758  -0.305  0.00  0.00    +0.030 C 
ATOM     19  C   LIG    1        2.366  -2.703   1.264  0.00  0.00    +0.010 C 
ATOM     20  C   LIG    1        3.721  -0.675   1.807  0.00  0.00    +0.030 C 
ATOM     21  C   LIG    1        1.093  -1.260  -0.946  0.00  0.00    -0.010 C 
ATOM     22  C   LIG    1        1.057  -0.841  -2.417  0.00  0.00    +0.020 C 
ENDBRANCH  11  14
ENDBRANCH   5   8
BRANCH   7  23
ATOM     23  S   LIG    1       -6.073   3.193  -1.662  0.00  0.00    +2.700 S 
ATOM     24  O   LIG    1       -7.115   3.325  -0.705  0.00  0.00    -0.950 OA
ATOM     25  O   LIG    1       -5.700   1.948  -2.239  0.00  0.00    -0.950 OA
BRANCH  23  26
ATOM     26  N   LIG    1       -6.466   4.193  -2.922  0.00  0.00    -1.090 NA
ATOM     27  H   LIG    1       -7.289   4.705  -2.896  0.00  0.00    +0.420 HD
BRANCH  26  28
ATOM     28  C   LIG    1       -5.570   4.304  -4.076  0.00  0.00    +0.220 C 
ATOM     29  C   LIG    1       -5.480   5.664  -4.772  0.00  0.00    +0.010 C 
ATOM     30  C   LIG    1       -6.211   4.503  -5.451  0.00  0.00    +0.020 C 
ENDBRANCH  26  28
ENDBRANCH  23  26
ENDBRANCH   7  23
TORSDOF 5
