REMARK  Name = ZINCkj00000GePPl.0
REMARK                            x       y       z     vdW  Elec       q    Type
REMARK                         _______ _______ _______ _____ _____    ______ ____
ROOT
ATOM      1  C   LIG    1       -2.580   1.323   0.896  0.00  0.00    +0.460 C 
ATOM      2  O   LIG    1       -3.040   0.953  -0.158  0.00  0.00    -0.520 OA
ENDROOT
BRANCH   1   3
ATOM      3  C   LIG    1       -1.086   1.397   1.081  0.00  0.00    +0.140 C 
BRANCH   3   4
ATOM      4  C   LIG    1       -0.390   0.954  -0.207  0.00  0.00    +0.000 C 
BRANCH   4   5
ATOM      5  C   LIG    1        1.123   0.909   0.021  0.00  0.00    +0.040 C 
BRANCH   5   7
ATOM      6  C   LIG    1        3.288   0.015  -0.848  0.00  0.00    +0.040 C 
ATOM      7  C   LIG    1        1.767  -0.014  -1.015  0.00  0.00    -0.060 C 
ATOM      8  C   LIG    1        1.260  -1.443  -0.810  0.00  0.00    +0.030 C 
ENDBRANCH   5   7
ENDBRANCH   4   5
BRANCH   4   9
ATOM      9  C   LIG    1       -0.708   1.946  -1.327  0.00  0.00    +0.270 C 
BRANCH   9  10
ATOM     10  N   LIG    1       -0.182   1.433  -2.599  0.00  0.00    -0.640 N 
ATOM     11  H   LIG    1        0.796   1.666  -2.677  0.00  0.00    +0.430 HD
ATOM     12  H   LIG    1       -0.689   1.851  -3.365  0.00  0.00    +0.440 HD
ATOM     13  H   LIG    1       -0.293   0.431  -2.630  0.00  0.00    +0.440 HD
ENDBRANCH   9  10
ENDBRANCH   4   9
ENDBRANCH   3   4
ENDBRANCH   1   3
BRANCH   1  14
ATOM     14  O   LIG    1       -3.399   1.668   1.902  0.00  0.00    -0.350 OA
BRANCH  14  15
ATOM     15  C   LIG    1       -4.826   1.572   1.652  0.00  0.00    +0.230 C 
BRANCH  15  16
ATOM     16  C   LIG    1       -5.593   2.003   2.904  0.00  0.00    -0.010 C 
ATOM     17  C   LIG    1       -5.299   1.023   4.036  0.00  0.00    +0.070 C 
ATOM     18  C   LIG    1       -5.844   1.571   5.357  0.00  0.00    -0.330 C 
ATOM     19  S   LIG    1       -7.653   1.697   5.243  0.00  0.00    +2.420 S 
ATOM     20  C   LIG    1       -7.846   2.701   3.742  0.00  0.00    -0.330 C 
ATOM     21  O   LIG    1       -8.186   0.403   4.995  0.00  0.00    -0.930 OA
ATOM     22  O   LIG    1       -8.128   2.444   6.354  0.00  0.00    -0.930 OA
ATOM     23  C   LIG    1       -7.086   2.033   2.594  0.00  0.00    +0.070 C 
ENDBRANCH  15  16
ENDBRANCH  14  15
ENDBRANCH   1  14
TORSDOF 9
