REMARK  Name = ZINCrH000004rp8m.0
REMARK                            x       y       z     vdW  Elec       q    Type
REMARK                         _______ _______ _______ _____ _____    ______ ____
ROOT
ATOM      1  N   LIG    1        2.362   1.087  -1.276  0.00  0.00    -0.530 N 
ATOM      2  H   LIG    1        2.069   0.550  -2.029  0.00  0.00    +0.420 HD
ATOM      3  C   LIG    1        1.504   1.371  -0.276  0.00  0.00    +0.520 C 
ATOM      4  O   LIG    1        1.871   2.043   0.665  0.00  0.00    -0.500 OA
ENDROOT
BRANCH   1   8
ATOM      5  N   LIG    1        4.128   0.536  -3.274  0.00  0.00    -0.680 N 
ATOM      6  H   LIG    1        3.198   0.270  -3.347  0.00  0.00    +0.400 HD
ATOM      7  C   LIG    1        4.535   1.283  -2.228  0.00  0.00    +0.710 C 
ATOM      8  N   LIG    1        3.677   1.567  -1.228  0.00  0.00    -0.520 N 
ATOM      9  H   LIG    1        3.970   2.104  -0.476  0.00  0.00    +0.450 HD
ATOM     10  O   LIG    1        5.677   1.700  -2.187  0.00  0.00    -0.550 OA
BRANCH   5  15
ATOM     11  C   LIG    1        7.851  -1.050  -7.249  0.00  0.00    +0.090 C 
ATOM     12  C   LIG    1        6.862  -0.628  -6.193  0.00  0.00    -0.100 A 
ATOM     13  C   LIG    1        7.262  -0.532  -4.873  0.00  0.00    +0.030 A 
ATOM     14  C   LIG    1        6.358  -0.146  -3.903  0.00  0.00    +0.020 A 
ATOM     15  C   LIG    1        5.046   0.146  -4.255  0.00  0.00    +0.150 A 
ATOM     16  C   LIG    1        4.647   0.044  -5.581  0.00  0.00    -0.010 A 
ATOM     17  C   LIG    1        5.557  -0.338  -6.547  0.00  0.00    +0.030 A 
ENDBRANCH   5  15
ENDBRANCH   1   8
BRANCH   3  18
ATOM     18  C   LIG    1        0.089   0.854  -0.327  0.00  0.00    +0.190 C 
ATOM     19  C   LIG    1       -0.607   1.397  -1.577  0.00  0.00    +0.060 C 
BRANCH  18  20
ATOM     20  O   LIG    1       -0.618   1.286   0.837  0.00  0.00    -0.280 OA
BRANCH  20  21
ATOM     21  C   LIG    1       -1.678   0.532   1.230  0.00  0.00    +0.130 A 
ATOM     22  C   LIG    1       -2.325   0.834   2.394  0.00  0.00    +0.000 A 
ATOM     23  C   LIG    1       -3.421   0.055   2.801  0.00  0.00    -0.010 A 
ATOM     24  C   LIG    1       -4.112   0.335   3.992  0.00  0.00    +0.020 A 
ATOM     25  C   LIG    1       -5.170  -0.440   4.355  0.00  0.00    +0.030 A 
ATOM     26  C   LIG    1       -5.580  -1.510   3.563  0.00  0.00    -0.010 A 
ATOM     27  C   LIG    1       -4.935  -1.812   2.403  0.00  0.00    +0.030 A 
ATOM     28  C   LIG    1       -3.839  -1.034   1.995  0.00  0.00    -0.080 A 
ATOM     29  C   LIG    1       -3.149  -1.316   0.803  0.00  0.00    +0.070 A 
ATOM     30  C   LIG    1       -2.096  -0.539   0.433  0.00  0.00    -0.070 A 
ENDBRANCH  20  21
ENDBRANCH  18  20
ENDBRANCH   3  18
TORSDOF 5
