REMARK  Name = ZINCb800000010N5.0
REMARK                            x       y       z     vdW  Elec       q    Type
REMARK                         _______ _______ _______ _____ _____    ______ ____
ROOT
ATOM      1  C   LIG    1       -1.100  -1.840  -1.179  0.00  0.00    +0.220 C 
ENDROOT
BRANCH   1   3
ATOM      2  C   LIG    1       -2.188  -3.796  -2.289  0.00  0.00    +0.040 C 
ATOM      3  C   LIG    1       -2.261  -2.834  -1.102  0.00  0.00    -0.040 C 
ATOM      4  C   LIG    1       -2.168  -3.627   0.203  0.00  0.00    +0.030 C 
ENDBRANCH   1   3
BRANCH   1   5
ATOM      5  O   LIG    1       -1.188  -1.100  -2.398  0.00  0.00    -0.550 OA
ATOM      6  H   LIG    1       -2.005  -0.592  -2.492  0.00  0.00    +0.370 HD
ENDBRANCH   1   5
BRANCH   1   7
ATOM      7  C   LIG    1       -1.173  -0.878   0.009  0.00  0.00    +0.300 C 
BRANCH   7   8
ATOM      8  N   LIG    1        0.002  -0.004   0.002  0.00  0.00    -0.280 N 
ATOM      9  C   LIG    1       -0.016   1.349   0.009  0.00  0.00    +0.140 A 
ATOM     10  C   LIG    1        1.278   1.744  -0.001  0.00  0.00    +0.140 A 
ATOM     11  N   LIG    1        2.016   0.627  -0.014  0.00  0.00    -0.270 NA
ATOM     12  N   LIG    1        1.230  -0.391  -0.012  0.00  0.00    -0.080 NA
ENDBRANCH   7   8
ENDBRANCH   1   7
TORSDOF 4
