REMARK  Name = ZINCnE000001SB9A.0
REMARK                            x       y       z     vdW  Elec       q    Type
REMARK                         _______ _______ _______ _____ _____    ______ ____
ROOT
ATOM      1  O   LIG    1        3.448   3.127  -0.014  0.00  0.00    -0.600 OA
ATOM      2  C   LIG    1        3.497   1.909  -0.022  0.00  0.00    +0.680 C 
ATOM      3  N   LIG    1        4.689   1.282  -0.037  0.00  0.00    -0.640 N 
ATOM      4  C   LIG    1        5.152  -0.114  -0.049  0.00  0.00    +0.260 C 
ATOM      5  C   LIG    1        6.438   0.363   0.639  0.00  0.00    +0.020 C 
ATOM      6  C   LIG    1        6.101   1.693  -0.055  0.00  0.00    +0.270 C 
ENDROOT
BRANCH   6   7
ATOM      7  C   LIG    1        6.385   2.905   0.795  0.00  0.00    -0.090 A 
ATOM      8  C   LIG    1        5.506   3.265   1.800  0.00  0.00    +0.100 A 
ATOM      9  C   LIG    1        5.767   4.373   2.583  0.00  0.00    -0.030 A 
ATOM     10  C   LIG    1        6.904   5.129   2.355  0.00  0.00    +0.090 A 
ATOM     11  C   LIG    1        7.782   4.770   1.345  0.00  0.00    -0.040 A 
ATOM     12  F   LIG    1        7.159   6.215   3.117  0.00  0.00    -0.150 F 
ATOM     13  C   LIG    1        7.521   3.659   0.566  0.00  0.00    +0.040 A 
ENDBRANCH   6   7
BRANCH   2  14
ATOM     14  N   LIG    1        2.369   1.197  -0.015  0.00  0.00    -0.710 NA
ATOM     15  C   LIG    1        1.184   1.820   0.001  0.00  0.00    +0.350 A 
ATOM     16  C   LIG    1       -0.013   1.076   0.008  0.00  0.00    -0.060 A 
ATOM     17  C   LIG    1       -1.193   1.766   0.017  0.00  0.00    +0.030 A 
ATOM     18  C   LIG    1       -1.149   3.168   0.030  0.00  0.00    -0.040 A 
ATOM     19  N   LIG    1       -0.005   3.797   0.023  0.00  0.00    -0.220 NA
ATOM     20  N   LIG    1        1.120   3.179   0.009  0.00  0.00    -0.310 NA
BRANCH  18  21
ATOM     21  C   LIG    1       -2.433   3.956   0.047  0.00  0.00    +0.020 C 
ATOM     22  C   LIG    1       -2.732   4.846  -1.162  0.00  0.00    +0.000 C 
ATOM     23  C   LIG    1       -2.328   5.477   0.172  0.00  0.00    +0.030 C 
ENDBRANCH  18  21
ENDBRANCH   2  14
TORSDOF 3
