REMARK  Name = ZINCnE000005tH4R.1
REMARK                            x       y       z     vdW  Elec       q    Type
REMARK                         _______ _______ _______ _____ _____    ______ ____
ROOT
ATOM      1  N   LIG    1       -7.819   1.650   0.148  0.00  0.00    -0.730 N 
ATOM      2  H   LIG    1       -7.288   1.841   0.937  0.00  0.00    +0.390 HD
ATOM      3  C   LIG    1       -7.337   1.945  -1.076  0.00  0.00    +0.640 C 
ATOM      4  N   LIG    1       -6.165   2.598  -1.199  0.00  0.00    -0.690 NA
ATOM      5  O   LIG    1       -7.960   1.620  -2.068  0.00  0.00    -0.600 OA
ENDROOT
BRANCH   4   6
ATOM      6  C   LIG    1       -5.668   2.902  -2.462  0.00  0.00    +0.370 A 
ATOM      7  N   LIG    1       -4.555   3.525  -2.691  0.00  0.00    -0.580 NA
ATOM      8  C   LIG    1       -4.235   3.730  -3.955  0.00  0.00    +0.110 A 
ATOM      9  C   LIG    1       -5.123   3.263  -4.835  0.00  0.00    -0.250 A 
ATOM     10  S   LIG    1       -6.436   2.507  -3.937  0.00  0.00    +0.020 S 
BRANCH   8  11
ATOM     11  C   LIG    1       -2.973   4.440  -4.371  0.00  0.00    +0.050 C 
ATOM     12  C   LIG    1       -2.439   3.819  -5.663  0.00  0.00    +0.010 C 
ATOM     13  C   LIG    1       -3.274   5.922  -4.604  0.00  0.00    +0.020 C 
ENDBRANCH   8  11
ENDBRANCH   4   6
BRANCH   1  14
ATOM     14  C   LIG    1       -9.145   1.042   0.287  0.00  0.00    +0.320 C 
ATOM     15  C   LIG    1       -9.172  -0.296  -0.453  0.00  0.00    +0.060 C 
BRANCH  14  19
ATOM     16  C   LIG    1      -11.798   3.892  -2.862  0.00  0.00    +0.240 C 
ATOM     17  C   LIG    1      -11.295   3.164  -1.642  0.00  0.00    +0.140 A 
ATOM     18  N   LIG    1      -10.237   2.392  -1.574  0.00  0.00    -0.410 NA
ATOM     19  C   LIG    1      -10.183   1.963  -0.301  0.00  0.00    +0.180 A 
ATOM     20  N   LIG    1      -11.188   2.491   0.331  0.00  0.00    -0.390 NA
ATOM     21  O   LIG    1      -11.839   3.185  -0.422  0.00  0.00    +0.060 OA
ENDBRANCH  14  19
BRANCH  14  22
ATOM     22  C   LIG    1       -9.448   0.812   1.769  0.00  0.00    -0.030 C 
ATOM     23  C   LIG    1       -8.564   1.531   2.791  0.00  0.00    +0.020 C 
ATOM     24  C   LIG    1       -8.423   0.021   2.584  0.00  0.00    +0.030 C 
ENDBRANCH  14  22
ENDBRANCH   1  14
TORSDOF 5
