REMARK  Name = ZINCue00000006FU.0
REMARK                            x       y       z     vdW  Elec       q    Type
REMARK                         _______ _______ _______ _____ _____    ______ ____
ROOT
ATOM      1  O   LIG    1        4.641   3.935  -5.554  0.00  0.00    -0.660 OA
ATOM      2  C   LIG    1        4.563   3.342  -4.494  0.00  0.00    +0.460 C 
ATOM      3  N   LIG    1        5.194   2.163  -4.334  0.00  0.00    -0.470 NA
ENDROOT
BRANCH   2   4
ATOM      4  C   LIG    1        3.782   3.912  -3.391  0.00  0.00    +0.050 A 
ATOM      5  C   LIG    1        3.097   5.093  -3.419  0.00  0.00    -0.050 A 
ATOM      6  C   LIG    1        2.496   5.240  -2.159  0.00  0.00    -0.050 A 
ATOM      7  C   LIG    1        2.843   4.161  -1.424  0.00  0.00    -0.070 A 
ATOM      8  O   LIG    1        3.615   3.361  -2.171  0.00  0.00    -0.130 OA
BRANCH   7   9
ATOM      9  C   LIG    1        2.424   3.897  -0.001  0.00  0.00    +0.420 C 
BRANCH   9  10
ATOM     10  N   LIG    1        1.165   3.149   0.007  0.00  0.00    -0.490 N 
ATOM     11  C   LIG    1       -0.015   3.820   0.022  0.00  0.00    +0.300 A 
ATOM     12  C   LIG    1       -1.191   3.151   0.030  0.00  0.00    -0.100 A 
ATOM     13  C   LIG    1       -1.199   1.749   0.017  0.00  0.00    +0.110 A 
ATOM     14  C   LIG    1       -0.013   1.076   0.008  0.00  0.00    -0.090 A 
ATOM     15  C   LIG    1        1.190   1.802   0.000  0.00  0.00    +0.510 A 
ATOM     16  O   LIG    1        2.259   1.213  -0.012  0.00  0.00    -0.530 OA
ENDBRANCH   9  10
ENDBRANCH   7   9
ENDBRANCH   2   4
BRANCH   3  17
ATOM     17  N   LIG    1        5.940   1.618  -5.388  0.00  0.00    -0.500 N 
ATOM     18  H   LIG    1        6.002   2.091  -6.233  0.00  0.00    +0.370 HD
ATOM     19  C   LIG    1        6.571   0.439  -5.228  0.00  0.00    +0.570 C 
ATOM     20  O   LIG    1        6.493  -0.154  -4.169  0.00  0.00    -0.540 OA
BRANCH  19  21
ATOM     21  C   LIG    1        7.357  -0.135  -6.338  0.00  0.00    +0.090 A 
ATOM     22  N   LIG    1        7.446   0.497  -7.483  0.00  0.00    -0.210 NA
ATOM     23  N   LIG    1        8.106   0.069  -8.492  0.00  0.00    -0.470 N 
ATOM     24  H   LIG    1        8.112   0.609  -9.299  0.00  0.00    +0.440 HD
ATOM     25  C   LIG    1        8.792  -1.092  -8.496  0.00  0.00    +0.510 A 
ATOM     26  C   LIG    1        8.785  -1.913  -7.278  0.00  0.00    -0.140 A 
ATOM     27  C   LIG    1        9.460  -3.125  -7.179  0.00  0.00    +0.080 A 
ATOM     28  C   LIG    1        9.403  -3.837  -5.999  0.00  0.00    +0.010 A 
ATOM     29  C   LIG    1        8.681  -3.356  -4.915  0.00  0.00    +0.040 A 
ATOM     30  C   LIG    1        8.005  -2.156  -4.992  0.00  0.00    +0.090 A 
ATOM     31  O   LIG    1        9.403  -1.451  -9.486  0.00  0.00    -0.520 OA
ATOM     32  C   LIG    1        8.055  -1.420  -6.171  0.00  0.00    -0.030 A 
ENDBRANCH  19  21
ENDBRANCH   3  17
TORSDOF 5
