REMARK  Name = ZINCpe000000TKSU.0
REMARK                            x       y       z     vdW  Elec       q    Type
REMARK                         _______ _______ _______ _____ _____    ______ ____
ROOT
ATOM      1  C   LIG    1        1.228   3.579   0.010  0.00  0.00    +0.270 C 
ENDROOT
BRANCH   1   2
ATOM      2  N   LIG    1        2.627   4.014  -0.002  0.00  0.00    -0.700 N 
ATOM      3  H   LIG    1        3.077   4.223   0.832  0.00  0.00    +0.410 HD
ATOM      4  C   LIG    1        3.290   4.123  -1.170  0.00  0.00    +0.500 C 
ATOM      5  O   LIG    1        2.728   3.861  -2.212  0.00  0.00    -0.520 OA
BRANCH   4   6
ATOM      6  C   LIG    1        4.729   4.569  -1.181  0.00  0.00    +0.280 C 
BRANCH   6   7
ATOM      7  C   LIG    1        5.581   3.540  -0.485  0.00  0.00    -0.120 A 
ATOM      8  C   LIG    1        6.048   2.442  -1.183  0.00  0.00    +0.020 A 
ATOM      9  C   LIG    1        6.833   1.500  -0.545  0.00  0.00    +0.020 A 
ATOM     10  C   LIG    1        7.142   1.650   0.794  0.00  0.00    +0.020 A 
ATOM     11  C   LIG    1        6.670   2.744   1.494  0.00  0.00    +0.020 A 
ATOM     12  C   LIG    1        5.889   3.689   0.855  0.00  0.00    +0.020 A 
ENDBRANCH   6   7
BRANCH   6  13
ATOM     13  O   LIG    1        5.171   4.718  -2.532  0.00  0.00    -0.530 OA
ATOM     14  H   LIG    1        5.121   3.906  -3.054  0.00  0.00    +0.380 HD
ENDBRANCH   6  13
ENDBRANCH   4   6
ENDBRANCH   1   2
BRANCH   1  15
ATOM     15  C   LIG    1        1.170   2.073   0.002  0.00  0.00    +0.440 C 
ATOM     16  O   LIG    1        2.192   1.429  -0.011  0.00  0.00    -0.480 OA
BRANCH  15  17
ATOM     17  O   LIG    1       -0.018   1.448   0.010  0.00  0.00    -0.350 OA
BRANCH  17  19
ATOM     18  C   LIG    1       -1.433  -0.534   0.013  0.00  0.00    +0.060 C 
ATOM     19  C   LIG    1        0.002  -0.004   0.002  0.00  0.00    +0.200 C 
ENDBRANCH  17  19
ENDBRANCH  15  17
ENDBRANCH   1  15
BRANCH   1  20
ATOM     20  C   LIG    1        0.539   4.110   1.268  0.00  0.00    +0.300 C 
BRANCH  20  21
ATOM     21  C   LIG    1       -0.927   3.768   1.220  0.00  0.00    -0.190 A 
ATOM     22  C   LIG    1       -1.846   4.686   0.734  0.00  0.00    +0.090 A 
ATOM     23  C   LIG    1       -3.186   4.327   0.708  0.00  0.00    -0.040 A 
ATOM     24  C   LIG    1       -3.558   3.077   1.164  0.00  0.00    +0.270 A 
ATOM     25  N   LIG    1       -2.656   2.230   1.620  0.00  0.00    -0.480 NA
ATOM     26  C   LIG    1       -1.373   2.534   1.655  0.00  0.00    +0.290 A 
ENDBRANCH  20  21
BRANCH  20  27
ATOM     27  O   LIG    1        1.130   3.511   2.423  0.00  0.00    -0.540 OA
ATOM     28  H   LIG    1        1.061   2.547   2.445  0.00  0.00    +0.380 HD
ENDBRANCH  20  27
ENDBRANCH   1  20
TORSDOF 10
