REMARK  Name = ZINCtV00000L6kvf.0
REMARK                            x       y       z     vdW  Elec       q    Type
REMARK                         _______ _______ _______ _____ _____    ______ ____
ROOT
ATOM      1  C   LIG    1       -0.001   4.592  -1.772  0.00  0.00    +0.540 C 
ATOM      2  N   LIG    1        0.087   3.608  -0.856  0.00  0.00    -0.540 N 
ATOM      3  C   LIG    1       -0.986   2.740  -0.630  0.00  0.00    +0.150 A 
ATOM      4  C   LIG    1       -2.296   3.143  -0.799  0.00  0.00    -0.020 A 
ATOM      5  C   LIG    1       -3.325   2.248  -0.560  0.00  0.00    +0.050 A 
ATOM      6  C   LIG    1       -3.049   0.954  -0.153  0.00  0.00    +0.000 A 
ATOM      7  C   LIG    1       -1.743   0.537   0.019  0.00  0.00    +0.050 A 
ATOM      8  C   LIG    1       -0.701   1.427  -0.226  0.00  0.00    -0.080 A 
ATOM      9  C   LIG    1        0.710   1.026  -0.053  0.00  0.00    -0.070 C 
ATOM     10  C   LIG    1        1.654   1.956   0.010  0.00  0.00    -0.030 C 
ATOM     11  C   LIG    1        1.076  -0.432   0.044  0.00  0.00    +0.100 C 
ATOM     12  C   LIG    1        1.313   3.420  -0.069  0.00  0.00    +0.200 C 
ATOM     13  C   LIG    1        2.464   4.175  -0.737  0.00  0.00    +0.080 C 
ATOM     14  C   LIG    1        1.099   3.968   1.344  0.00  0.00    +0.050 C 
ATOM     15  O   LIG    1        0.962   5.291  -2.007  0.00  0.00    -0.490 OA
ENDROOT
BRANCH   1  16
ATOM     16  C   LIG    1       -1.297   4.825  -2.505  0.00  0.00    +0.110 C 
BRANCH  16  17
ATOM     17  S   LIG    1       -0.986   5.833  -3.976  0.00  0.00    +0.080 S 
BRANCH  17  23
ATOM     18  C   LIG    1       -7.119   6.148  -6.232  0.00  0.00    +0.150 A 
ATOM     19  C   LIG    1       -7.229   5.381  -5.077  0.00  0.00    -0.050 A 
ATOM     20  C   LIG    1       -6.120   5.099  -4.320  0.00  0.00    +0.120 A 
ATOM     21  C   LIG    1       -4.851   5.582  -4.700  0.00  0.00    +0.050 A 
ATOM     22  N   LIG    1       -3.662   5.402  -4.088  0.00  0.00    -0.460 NA
ATOM     23  C   LIG    1       -2.622   5.946  -4.621  0.00  0.00    +0.060 A 
ATOM     24  S   LIG    1       -3.066   6.810  -6.086  0.00  0.00    +0.120 S 
ATOM     25  C   LIG    1       -4.752   6.352  -5.863  0.00  0.00    -0.130 A 
ATOM     26  C   LIG    1       -5.885   6.631  -6.623  0.00  0.00    +0.030 A 
BRANCH  18  27
ATOM     27  O   LIG    1       -8.225   6.423  -6.976  0.00  0.00    -0.310 OA
BRANCH  27  29
ATOM     28  C   LIG    1      -10.587   6.301  -7.470  0.00  0.00    +0.070 C 
ATOM     29  C   LIG    1       -9.467   5.891  -6.512  0.00  0.00    +0.190 C 
ENDBRANCH  27  29
ENDBRANCH  18  27
ENDBRANCH  17  23
ENDBRANCH  16  17
ENDBRANCH   1  16
TORSDOF 5
