REMARK  Name = ZINCkj00000y7Jdr.0
REMARK                            x       y       z     vdW  Elec       q    Type
REMARK                         _______ _______ _______ _____ _____    ______ ____
ROOT
ATOM      1  O   LIG    1        2.610   0.218  -1.044  0.00  0.00    -0.930 OA
ATOM      2  S   LIG    1        2.711   1.196  -0.018  0.00  0.00    +2.700 S 
ATOM      3  O   LIG    1        3.726   2.189   0.013  0.00  0.00    -0.930 OA
ENDROOT
BRANCH   2   4
ATOM      4  C   LIG    1        1.173   2.056   0.002  0.00  0.00    -0.710 A 
ATOM      5  C   LIG    1        1.155   3.438   0.009  0.00  0.00    +0.210 A 
ATOM      6  C   LIG    1       -0.050   4.115   0.025  0.00  0.00    +0.020 A 
ATOM      7  C   LIG    1       -1.241   3.410   0.032  0.00  0.00    +0.160 A 
ATOM      8  C   LIG    1       -1.225   2.024   0.019  0.00  0.00    +0.020 A 
ATOM      9  F   LIG    1       -2.387   1.334   0.021  0.00  0.00    -0.110 F 
ATOM     10  F   LIG    1       -2.419   4.072   0.046  0.00  0.00    -0.100 F 
ATOM     11  C   LIG    1       -0.016   1.347   0.009  0.00  0.00    +0.180 A 
ATOM     12  F   LIG    1        0.002  -0.004   0.002  0.00  0.00    -0.110 F 
ENDBRANCH   2   4
BRANCH   2  13
ATOM     13  N   LIG    1        2.826   0.365   1.410  0.00  0.00    -1.110 NA
ATOM     14  H   LIG    1        3.517   0.596   2.051  0.00  0.00    +0.430 HD
BRANCH  13  15
ATOM     15  C   LIG    1        1.885  -0.719   1.705  0.00  0.00    +0.250 C 
BRANCH  15  16
ATOM     16  C   LIG    1        2.418  -1.553   2.872  0.00  0.00    +0.060 C 
BRANCH  16  17
ATOM     17  C   LIG    1        1.435  -2.685   3.180  0.00  0.00    +0.010 C 
ATOM     18  C   LIG    1        2.011  -3.612   4.269  0.00  0.00    +0.060 C 
ATOM     19  C   LIG    1        1.010  -3.526   5.441  0.00  0.00    +0.270 C 
ATOM     20  N   LIG    1       -0.270  -3.112   4.809  0.00  0.00    -0.520 N 
ATOM     21  H   LIG    1       -0.880  -2.689   5.492  0.00  0.00    +0.430 HD
ATOM     22  H   LIG    1       -0.720  -3.903   4.374  0.00  0.00    +0.430 HD
ATOM     23  C   LIG    1        0.134  -2.115   3.784  0.00  0.00    +0.270 C 
ENDBRANCH  16  17
ENDBRANCH  15  16
ENDBRANCH  13  15
ENDBRANCH   2  13
TORSDOF 5
