REMARK  Name = ZINCpe00000MEaHr.0
REMARK                            x       y       z     vdW  Elec       q    Type
REMARK                         _______ _______ _______ _____ _____    ______ ____
ROOT
ATOM      1  C   LIG    1        2.803   2.229   2.011  0.00  0.00    +0.520 C 
ATOM      2  N   LIG    1        2.151   1.453   1.124  0.00  0.00    -0.610 N 
ATOM      3  C   LIG    1        2.159  -0.010   1.262  0.00  0.00    +0.270 C 
ATOM      4  C   LIG    1        0.712  -0.513   1.258  0.00  0.00    +0.040 C 
ATOM      5  C   LIG    1        0.002  -0.004   0.002  0.00  0.00    +0.030 C 
ATOM      6  C   LIG    1       -0.019   1.526   0.010  0.00  0.00    +0.090 C 
ATOM      7  C   LIG    1        1.420   2.052  -0.001  0.00  0.00    +0.300 C 
ATOM      8  O   LIG    1        2.789   3.436   1.887  0.00  0.00    -0.530 OA
ENDROOT
BRANCH   6   9
ATOM      9  C   LIG    1       -0.746   2.026  -1.211  0.00  0.00    +0.290 A 
ATOM     10  N   LIG    1       -1.501   3.085  -1.247  0.00  0.00    -0.480 NA
ATOM     11  C   LIG    1       -1.998   3.249  -2.500  0.00  0.00    +0.050 A 
ATOM     12  C   LIG    1       -2.840   4.197  -3.087  0.00  0.00    +0.070 A 
ATOM     13  C   LIG    1       -3.174   4.087  -4.407  0.00  0.00    +0.000 A 
ATOM     14  C   LIG    1       -2.686   3.040  -5.176  0.00  0.00    +0.030 A 
ATOM     15  C   LIG    1       -1.854   2.093  -4.618  0.00  0.00    +0.010 A 
ATOM     16  C   LIG    1       -1.503   2.188  -3.279  0.00  0.00    +0.050 A 
ATOM     17  N   LIG    1       -0.715   1.432  -2.434  0.00  0.00    -0.600 N 
ATOM     18  H   LIG    1       -0.228   0.627  -2.670  0.00  0.00    +0.420 HD
ENDBRANCH   6   9
BRANCH   1  19
ATOM     19  C   LIG    1        3.550   1.599   3.159  0.00  0.00    +0.090 C 
BRANCH  19  25
ATOM     20  O   LIG    1        7.485   3.601   3.581  0.00  0.00    -0.540 OA
ATOM     21  C   LIG    1        6.405   3.170   3.933  0.00  0.00    +0.700 C 
ATOM     22  N   LIG    1        6.220   2.437   5.037  0.00  0.00    -0.680 N 
ATOM     23  H   LIG    1        6.929   2.187   5.649  0.00  0.00    +0.440 HD
ATOM     24  C   LIG    1        4.924   2.090   5.194  0.00  0.00    +0.530 C 
ATOM     25  C   LIG    1        4.195   2.694   4.010  0.00  0.00    +0.250 C 
ATOM     26  O   LIG    1        4.443   1.432   6.092  0.00  0.00    -0.460 OA
ATOM     27  N   LIG    1        5.261   3.377   3.256  0.00  0.00    -0.710 N 
ATOM     28  H   LIG    1        5.158   3.877   2.431  0.00  0.00    +0.450 HD
ENDBRANCH  19  25
ENDBRANCH   1  19
TORSDOF 3
