REMARK  Name = ZINCAx0000000cpT.1
REMARK                            x       y       z     vdW  Elec       q    Type
REMARK                         _______ _______ _______ _____ _____    ______ ____
ROOT
ATOM      1  N   LIG    1        9.692  -2.456  -1.314  0.00  0.00    -0.730 N 
ATOM      2  H   LIG    1       10.518  -2.185  -0.882  0.00  0.00    +0.390 HD
ATOM      3  C   LIG    1        8.574  -1.721  -1.152  0.00  0.00    +0.520 C 
ATOM      4  O   LIG    1        7.542  -2.060  -1.692  0.00  0.00    -0.500 OA
ENDROOT
BRANCH   3   5
ATOM      5  C   LIG    1        8.606  -0.478  -0.301  0.00  0.00    +0.210 C 
ATOM      6  C   LIG    1        8.849   0.774  -1.183  0.00  0.00    +0.040 C 
ATOM      7  C   LIG    1        8.239   1.896  -0.302  0.00  0.00    +0.030 C 
ATOM      8  C   LIG    1        7.032   1.199   0.359  0.00  0.00    +0.260 C 
ATOM      9  N   LIG    1        7.289  -0.248   0.321  0.00  0.00    -0.620 N 
ATOM     10  C   LIG    1        6.461  -1.206   0.784  0.00  0.00    +0.590 C 
ATOM     11  O   LIG    1        6.818  -2.368   0.788  0.00  0.00    -0.520 OA
BRANCH  10  12
ATOM     12  C   LIG    1        5.123  -0.844   1.283  0.00  0.00    -0.350 A 
ATOM     13  C   LIG    1        4.210  -1.845   1.604  0.00  0.00    +0.340 A 
ATOM     14  C   LIG    1        2.932  -1.487   2.081  0.00  0.00    -0.150 A 
ATOM     15  C   LIG    1        1.982  -2.464   2.415  0.00  0.00    +0.080 A 
ATOM     16  C   LIG    1        0.756  -2.085   2.873  0.00  0.00    -0.080 A 
ATOM     17  C   LIG    1        0.430  -0.739   3.014  0.00  0.00    +0.010 A 
ATOM     18  C   LIG    1        1.328   0.236   2.699  0.00  0.00    -0.050 A 
ATOM     19  C   LIG    1        2.602  -0.117   2.225  0.00  0.00    +0.020 A 
ATOM     20  C   LIG    1        3.550   0.870   1.892  0.00  0.00    -0.180 A 
ATOM     21  O   LIG    1        4.545  -3.150   1.459  0.00  0.00    -0.640 OA
ATOM     22  C   LIG    1        4.775   0.511   1.434  0.00  0.00    +0.090 A 
ENDBRANCH  10  12
ENDBRANCH   3   5
BRANCH   1  23
ATOM     23  C   LIG    1        9.661  -3.664  -2.142  0.00  0.00    +0.320 C 
BRANCH  23  28
ATOM     24  C   LIG    1       12.633  -5.821  -1.224  0.00  0.00    -0.150 A 
ATOM     25  C   LIG    1       13.552  -5.450  -2.207  0.00  0.00    +0.040 A 
ATOM     26  C   LIG    1       13.203  -4.510  -3.154  0.00  0.00    +0.000 A 
ATOM     27  C   LIG    1       11.943  -3.938  -3.134  0.00  0.00    +0.080 A 
ATOM     28  C   LIG    1       11.029  -4.296  -2.159  0.00  0.00    -0.100 A 
ATOM     29  C   LIG    1       11.365  -5.236  -1.206  0.00  0.00    +0.110 A 
BRANCH  24  32
ATOM     30  N   LIG    1       14.224  -7.391  -0.227  0.00  0.00    -0.730 N 
ATOM     31  H   LIG    1       14.864  -7.135  -0.909  0.00  0.00    +0.410 HD
ATOM     32  C   LIG    1       12.999  -6.829  -0.207  0.00  0.00    +0.570 C 
ATOM     33  O   LIG    1       12.197  -7.149   0.648  0.00  0.00    -0.510 OA
BRANCH  30  34
ATOM     34  C   LIG    1       14.588  -8.390   0.782  0.00  0.00    +0.270 C 
BRANCH  34  35
ATOM     35  C   LIG    1       16.021  -8.866   0.535  0.00  0.00    +0.260 C 
BRANCH  35  37
ATOM     36  C   LIG    1       15.545 -11.060   1.378  0.00  0.00    +0.320 C 
ATOM     37  N   LIG    1       16.385  -9.867   1.546  0.00  0.00    -0.380 N 
ATOM     38  C   LIG    1       17.798 -10.236   1.383  0.00  0.00    +0.320 C 
ATOM     39  H   LIG    1       16.242  -9.482   2.468  0.00  0.00    +0.430 HD
ENDBRANCH  35  37
ENDBRANCH  34  35
ENDBRANCH  30  34
ENDBRANCH  24  32
ENDBRANCH  23  28
ENDBRANCH   1  23
TORSDOF 8
