REMARK  Name = ZINCrH000004tRxL.0
REMARK                            x       y       z     vdW  Elec       q    Type
REMARK                         _______ _______ _______ _____ _____    ______ ____
ROOT
ATOM      1  C   LIG    1       -2.759  -2.355  -0.143  0.00  0.00    +0.150 A 
ATOM      2  N   LIG    1       -3.334  -1.226   0.208  0.00  0.00    -0.290 NA
ATOM      3  N   LIG    1       -2.456  -0.293   0.304  0.00  0.00    -0.260 NA
ATOM      4  C   LIG    1       -1.266  -0.764   0.011  0.00  0.00    +0.240 A 
ATOM      5  N   LIG    1       -1.421  -2.101  -0.282  0.00  0.00    -0.410 N 
ENDROOT
BRANCH   4   6
ATOM      6  C   LIG    1        0.002  -0.004   0.002  0.00  0.00    -0.030 A 
ATOM      7  C   LIG    1       -0.017   1.392   0.010  0.00  0.00    +0.070 A 
ATOM      8  C   LIG    1        1.170   2.095   0.002  0.00  0.00    +0.010 A 
ATOM      9  C   LIG    1        2.378   1.419  -0.013  0.00  0.00    +0.030 A 
ATOM     10  C   LIG    1        2.403   0.036  -0.021  0.00  0.00    +0.010 A 
ATOM     11  C   LIG    1        1.224  -0.679  -0.013  0.00  0.00    +0.030 A 
ENDBRANCH   4   6
BRANCH   5  12
ATOM     12  C   LIG    1       -0.419  -3.011  -0.646  0.00  0.00    +0.100 A 
ATOM     13  C   LIG    1        0.265  -2.850  -1.843  0.00  0.00    +0.030 A 
ATOM     14  C   LIG    1        1.255  -3.747  -2.196  0.00  0.00    +0.040 A 
ATOM     15  C   LIG    1        1.557  -4.809  -1.365  0.00  0.00    +0.040 A 
ATOM     16  C   LIG    1        0.874  -4.975  -0.174  0.00  0.00    +0.040 A 
ATOM     17  C   LIG    1       -0.114  -4.079   0.187  0.00  0.00    +0.030 A 
ENDBRANCH   5  12
BRANCH   1  18
ATOM     18  S   LIG    1       -3.560  -3.904  -0.389  0.00  0.00    +0.100 S 
BRANCH  18  19
ATOM     19  C   LIG    1       -5.270  -3.435  -0.025  0.00  0.00    +0.110 C 
BRANCH  19  21
ATOM     20  O   LIG    1       -5.692  -5.709  -0.498  0.00  0.00    -0.510 OA
ATOM     21  C   LIG    1       -6.164  -4.639  -0.176  0.00  0.00    +0.550 C 
ATOM     22  N   LIG    1       -7.489  -4.527   0.047  0.00  0.00    -0.720 N 
ATOM     23  H   LIG    1       -7.866  -3.671   0.304  0.00  0.00    +0.410 HD
BRANCH  22  24
ATOM     24  C   LIG    1       -8.358  -5.697  -0.100  0.00  0.00    +0.320 C 
BRANCH  24  25
ATOM     25  C   LIG    1       -9.803  -5.301   0.208  0.00  0.00    +0.450 C 
ATOM     26  F   LIG    1       -9.886  -4.820   1.519  0.00  0.00    -0.180 F 
ATOM     27  F   LIG    1      -10.633  -6.418   0.068  0.00  0.00    -0.170 F 
ATOM     28  F   LIG    1      -10.212  -4.301  -0.682  0.00  0.00    -0.180 F 
ENDBRANCH  24  25
ENDBRANCH  22  24
ENDBRANCH  19  21
ENDBRANCH  18  19
ENDBRANCH   1  18
TORSDOF 7
