REMARK  Name = ZINCrg000000q0Ih.0
REMARK                            x       y       z     vdW  Elec       q    Type
REMARK                         _______ _______ _______ _____ _____    ______ ____
ROOT
ATOM      1  C   LIG    1       -3.998   3.063  -2.104  0.00  0.00    +0.260 C 
ATOM      2  C   LIG    1       -4.844   2.195  -1.170  0.00  0.00    +0.030 C 
ATOM      3  C   LIG    1       -4.023   1.822   0.067  0.00  0.00    +0.050 C 
ATOM      4  C   LIG    1       -2.795   1.008  -0.368  0.00  0.00    +0.280 C 
ATOM      5  N   LIG    1       -2.054   1.782  -1.373  0.00  0.00    -0.610 N 
ATOM      6  C   LIG    1       -0.740   2.036  -1.212  0.00  0.00    +0.530 C 
ATOM      7  O   LIG    1       -0.138   2.671  -2.052  0.00  0.00    -0.490 OA
ATOM      8  C   LIG    1       -2.770   2.268  -2.560  0.00  0.00    +0.300 C 
ENDROOT
BRANCH   6   9
ATOM      9  C   LIG    1       -0.019   1.530   0.011  0.00  0.00    +0.150 C 
ATOM     10  C   LIG    1        0.002  -0.004   0.002  0.00  0.00    +0.250 C 
ATOM     11  O   LIG    1        0.704  -0.449   1.168  0.00  0.00    -0.300 OA
ATOM     12  C   LIG    1        1.881   0.173   1.449  0.00  0.00    +0.040 A 
ATOM     13  C   LIG    1        2.774  -0.422   2.326  0.00  0.00    +0.030 A 
ATOM     14  C   LIG    1        3.972   0.199   2.623  0.00  0.00    +0.030 A 
ATOM     15  C   LIG    1        4.283   1.417   2.048  0.00  0.00    +0.030 A 
ATOM     16  C   LIG    1        3.398   2.016   1.171  0.00  0.00    +0.030 A 
ATOM     17  C   LIG    1        2.195   1.397   0.868  0.00  0.00    +0.050 A 
ATOM     18  O   LIG    1        1.335   1.997   0.000  0.00  0.00    -0.280 OA
ENDBRANCH   6   9
BRANCH   1  21
ATOM     19  C   LIG    1       -6.218   3.441  -4.923  0.00  0.00    -0.090 A 
ATOM     20  C   LIG    1       -5.728   2.694  -3.889  0.00  0.00    +0.320 A 
ATOM     21  N   LIG    1       -4.795   3.445  -3.272  0.00  0.00    -0.350 N 
ATOM     22  N   LIG    1       -4.728   4.661  -3.967  0.00  0.00    -0.050 NA
ATOM     23  N   LIG    1       -5.580   4.624  -4.932  0.00  0.00    -0.180 NA
BRANCH  19  24
ATOM     24  C   LIG    1       -7.265   3.019  -5.870  0.00  0.00    +0.560 C 
ATOM     25  O   LIG    1       -7.774   1.921  -5.764  0.00  0.00    -0.500 OA
BRANCH  24  27
ATOM     26  C   LIG    1       -8.694   3.369  -7.751  0.00  0.00    +0.290 C 
ATOM     27  O   LIG    1       -7.658   3.851  -6.854  0.00  0.00    -0.340 OA
ENDBRANCH  24  27
ENDBRANCH  19  24
ENDBRANCH   1  21
TORSDOF 4
