REMARK  Name = ZINCpe000000TU43.0
REMARK                            x       y       z     vdW  Elec       q    Type
REMARK                         _______ _______ _______ _____ _____    ______ ____
ROOT
ATOM      1  N   LIG    1        1.196   5.989  -1.886  0.00  0.00    -0.730 N 
ATOM      2  H   LIG    1        0.810   6.619  -1.258  0.00  0.00    +0.400 HD
ATOM      3  C   LIG    1        1.079   6.201  -3.212  0.00  0.00    +0.710 C 
ATOM      4  N   LIG    1        0.425   7.289  -3.665  0.00  0.00    -0.740 N 
ATOM      5  H   LIG    1        0.038   7.919  -3.037  0.00  0.00    +0.400 HD
ATOM      6  O   LIG    1        1.564   5.411  -3.999  0.00  0.00    -0.580 OA
ENDROOT
BRANCH   4   7
ATOM      7  C   LIG    1        0.298   7.519  -5.106  0.00  0.00    +0.290 C 
ATOM      8  C   LIG    1        1.547   8.232  -5.617  0.00  0.00    +0.020 C 
ATOM      9  C   LIG    1        1.562   8.261  -7.143  0.00  0.00    +0.080 C 
ATOM     10  C   LIG    1        0.476   9.210  -7.656  0.00  0.00    -0.420 C 
ATOM     11  S   LIG    1       -1.151   8.565  -7.170  0.00  0.00    +2.420 S 
ATOM     12  O   LIG    1       -2.129   9.567  -7.411  0.00  0.00    -0.930 OA
ATOM     13  O   LIG    1       -1.319   7.275  -7.744  0.00  0.00    -0.920 OA
ATOM     14  C   LIG    1        0.555   9.302  -9.181  0.00  0.00    +0.090 C 
ATOM     15  C   LIG    1       -0.939   8.379  -5.375  0.00  0.00    -0.350 C 
ENDBRANCH   4   7
BRANCH   1  18
ATOM     16  C   LIG    1        2.951   4.081   0.302  0.00  0.00    +0.170 C 
ATOM     17  C   LIG    1        3.280   5.126  -0.777  0.00  0.00    +0.030 C 
ATOM     18  C   LIG    1        1.908   4.807  -1.393  0.00  0.00    +0.270 C 
ATOM     19  C   LIG    1        1.468   4.364   0.012  0.00  0.00    +0.260 C 
BRANCH  19  20
ATOM     20  N   LIG    1        0.630   3.162   0.013  0.00  0.00    -0.360 N 
ATOM     21  C   LIG    1        1.071   1.887   0.002  0.00  0.00    +0.220 A 
ATOM     22  C   LIG    1       -0.013   1.076   0.008  0.00  0.00    -0.120 A 
ATOM     23  C   LIG    1       -1.155   1.883   0.017  0.00  0.00    +0.230 A 
ATOM     24  N   LIG    1       -0.771   3.134   0.026  0.00  0.00    -0.290 NA
ENDBRANCH  19  20
BRANCH  16  25
ATOM     25  O   LIG    1        3.361   4.465   1.615  0.00  0.00    -0.370 OA
BRANCH  25  27
ATOM     26  C   LIG    1        4.776   4.167   3.552  0.00  0.00    +0.040 C 
ATOM     27  C   LIG    1        4.420   3.668   2.150  0.00  0.00    +0.150 C 
ENDBRANCH  25  27
ENDBRANCH  16  25
ENDBRANCH   1  18
TORSDOF 5
