REMARK  Name = ZINCqH000005095Q.0
REMARK                            x       y       z     vdW  Elec       q    Type
REMARK                         _______ _______ _______ _____ _____    ______ ____
ROOT
ATOM      1  C   LIG    1        1.029  -0.717   0.219  0.00  0.00    +0.330 C 
ENDROOT
BRANCH   1   4
ATOM      2  N   LIG    1       -0.164   1.406  -0.213  0.00  0.00    -0.670 N 
ATOM      3  H   LIG    1        0.594   1.688  -0.749  0.00  0.00    +0.410 HD
ATOM      4  C   LIG    1       -0.141   0.213   0.413  0.00  0.00    +0.490 C 
ATOM      5  O   LIG    1       -1.060  -0.111   1.135  0.00  0.00    -0.510 OA
BRANCH   2  10
ATOM      6  C   LIG    1       -4.710   4.767   0.258  0.00  0.00    +0.100 C 
ATOM      7  C   LIG    1       -3.502   3.875   0.132  0.00  0.00    -0.080 A 
ATOM      8  C   LIG    1       -2.243   4.376   0.403  0.00  0.00    +0.010 A 
ATOM      9  C   LIG    1       -1.134   3.560   0.289  0.00  0.00    -0.090 A 
ATOM     10  C   LIG    1       -1.286   2.235  -0.098  0.00  0.00    +0.130 A 
ATOM     11  C   LIG    1       -2.552   1.736  -0.375  0.00  0.00    -0.060 A 
ATOM     12  C   LIG    1       -2.720   0.301  -0.801  0.00  0.00    +0.090 C 
ATOM     13  C   LIG    1        0.239   4.107   0.586  0.00  0.00    +0.090 C 
ATOM     14  C   LIG    1       -3.657   2.555  -0.253  0.00  0.00    +0.000 A 
ENDBRANCH   2  10
ENDBRANCH   1   4
BRANCH   1  15
ATOM     15  N   LIG    1        0.817  -1.938   1.001  0.00  0.00    -0.600 N 
ATOM     16  C   LIG    1        0.178  -2.989   0.450  0.00  0.00    +0.520 C 
ATOM     17  O   LIG    1       -0.222  -2.924  -0.694  0.00  0.00    -0.530 OA
ATOM     18  C   LIG    1        1.300  -2.016   2.382  0.00  0.00    +0.290 C 
BRANCH  16  19
ATOM     19  C   LIG    1       -0.040  -4.245   1.254  0.00  0.00    +0.070 C 
BRANCH  19  20
ATOM     20  C   LIG    1       -0.783  -5.275   0.401  0.00  0.00    +0.100 C 
BRANCH  20  21
ATOM     21  C   LIG    1       -1.000  -6.530   1.205  0.00  0.00    -0.050 A 
ATOM     22  C   LIG    1       -0.057  -7.540   1.179  0.00  0.00    +0.000 A 
ATOM     23  C   LIG    1       -0.253  -8.690   1.921  0.00  0.00    +0.040 A 
ATOM     24  C   LIG    1       -1.398  -8.836   2.680  0.00  0.00    -0.020 A 
ATOM     25  C   LIG    1       -2.346  -7.828   2.703  0.00  0.00    +0.100 A 
ATOM     26  F   LIG    1       -3.466  -7.970   3.445  0.00  0.00    -0.140 F 
ATOM     27  C   LIG    1       -2.147  -6.674   1.964  0.00  0.00    -0.010 A 
ENDBRANCH  20  21
ENDBRANCH  19  20
ENDBRANCH  16  19
ENDBRANCH   1  15
TORSDOF 6
