REMARK  Name = ZINCpk00000e9WIj.0
REMARK                            x       y       z     vdW  Elec       q    Type
REMARK                         _______ _______ _______ _____ _____    ______ ____
ROOT
ATOM      1  N   LIG    1       -2.088   1.270   1.341  0.00  0.00    -0.730 N 
ATOM      2  H   LIG    1       -2.520   0.694   0.690  0.00  0.00    +0.400 HD
ATOM      3  C   LIG    1       -0.792   1.605   1.189  0.00  0.00    +0.520 C 
ATOM      4  O   LIG    1       -0.252   2.325   2.002  0.00  0.00    -0.530 OA
ENDROOT
BRANCH   3   5
ATOM      5  C   LIG    1       -0.013   1.086   0.008  0.00  0.00    +0.010 C 
ATOM      6  C   LIG    1       -0.583   1.639  -1.319  0.00  0.00    +0.080 C 
ATOM      7  C   LIG    1        0.243   2.877  -1.590  0.00  0.00    +0.520 C 
ATOM      8  N   LIG    1        1.356   2.864  -0.836  0.00  0.00    -0.610 N 
ATOM      9  C   LIG    1        2.373   3.919  -0.845  0.00  0.00    +0.310 C 
ATOM     10  O   LIG    1       -0.055   3.753  -2.373  0.00  0.00    -0.520 OA
ATOM     11  C   LIG    1        1.422   1.658  -0.003  0.00  0.00    +0.320 C 
BRANCH  11  12
ATOM     12  C   LIG    1        2.377   0.660  -0.604  0.00  0.00    -0.160 A 
ATOM     13  C   LIG    1        3.171  -0.132   0.211  0.00  0.00    +0.080 A 
ATOM     14  C   LIG    1        4.035  -1.037  -0.386  0.00  0.00    -0.030 A 
ATOM     15  C   LIG    1        4.076  -1.119  -1.765  0.00  0.00    +0.260 A 
ATOM     16  N   LIG    1        3.307  -0.349  -2.510  0.00  0.00    -0.480 NA
ATOM     17  C   LIG    1        2.470   0.518  -1.976  0.00  0.00    +0.270 A 
ENDBRANCH  11  12
ENDBRANCH   3   5
BRANCH   1  18
ATOM     18  C   LIG    1       -2.846   1.775   2.489  0.00  0.00    +0.260 C 
BRANCH  18  19
ATOM     19  C   LIG    1       -4.281   1.249   2.424  0.00  0.00    +0.010 C 
BRANCH  19  20
ATOM     20  C   LIG    1       -5.072   1.777   3.622  0.00  0.00    +0.020 C 
BRANCH  20  21
ATOM     21  C   LIG    1       -6.508   1.251   3.557  0.00  0.00    +0.030 C 
BRANCH  21  22
ATOM     22  C   LIG    1       -7.299   1.778   4.756  0.00  0.00    +0.110 C 
BRANCH  22  23
ATOM     23  C   LIG    1       -8.713   1.260   4.692  0.00  0.00    +0.460 C 
ATOM     24  O   LIG    1       -9.053   0.543   3.781  0.00  0.00    -0.510 OA
BRANCH  23  26
ATOM     25  C   LIG    1      -10.938   1.061   5.521  0.00  0.00    +0.250 C 
ATOM     26  O   LIG    1       -9.594   1.596   5.647  0.00  0.00    -0.360 OA
ENDBRANCH  23  26
ENDBRANCH  22  23
ENDBRANCH  21  22
ENDBRANCH  20  21
ENDBRANCH  19  20
ENDBRANCH  18  19
ENDBRANCH   1  18
TORSDOF 9
