REMARK  Name = ZINCrg00000c2mAr.0
REMARK                            x       y       z     vdW  Elec       q    Type
REMARK                         _______ _______ _______ _____ _____    ______ ____
ROOT
ATOM      1  C   LIG    1       -1.631   1.298  -3.474  0.00  0.00    +0.130 C 
ATOM      2  C   LIG    1       -1.867   0.119  -2.527  0.00  0.00    +0.060 C 
ATOM      3  C   LIG    1       -1.160   0.389  -1.195  0.00  0.00    +0.300 C 
ATOM      4  N   LIG    1        0.256   0.675  -1.461  0.00  0.00    -0.610 N 
ATOM      5  C   LIG    1        0.595   1.735  -2.421  0.00  0.00    +0.270 C 
ATOM      6  C   LIG    1        1.227  -0.017  -0.832  0.00  0.00    +0.590 C 
ATOM      7  O   LIG    1        0.936  -0.951  -0.108  0.00  0.00    -0.520 OA
ATOM      8  C   LIG    1       -0.132   1.446  -3.743  0.00  0.00    +0.010 C 
ENDROOT
BRANCH   6   9
ATOM      9  C   LIG    1        2.633   0.352  -1.024  0.00  0.00    -0.040 A 
ATOM     10  C   LIG    1        3.688  -0.519  -1.194  0.00  0.00    +0.060 A 
ATOM     11  C   LIG    1        4.843   0.257  -1.341  0.00  0.00    -0.120 A 
ATOM     12  C   LIG    1        4.481   1.560  -1.261  0.00  0.00    +0.220 A 
ATOM     13 CL   LIG    1        6.454  -0.344  -1.583  0.00  0.00    -0.040 Cl
ATOM     14  N   LIG    1        3.139   1.631  -1.074  0.00  0.00    -0.530 N 
ATOM     15  H   LIG    1        2.622   2.448  -0.988  0.00  0.00    +0.420 HD
ENDBRANCH   6   9
BRANCH   1  16
ATOM     16  O   LIG    1       -2.127   2.497  -2.874  0.00  0.00    -0.550 OA
ATOM     17  H   LIG    1       -2.011   3.287  -3.419  0.00  0.00    +0.380 HD
ENDBRANCH   1  16
BRANCH   1  18
ATOM     18  C   LIG    1       -2.364   1.048  -4.793  0.00  0.00    +0.280 C 
BRANCH  18  19
ATOM     19  N   LIG    1       -2.042   2.117  -5.741  0.00  0.00    -0.680 N 
ATOM     20  H   LIG    1       -1.443   2.834  -5.479  0.00  0.00    +0.420 HD
BRANCH  19  23
ATOM     21  C   LIG    1       -2.802   3.097  -9.081  0.00  0.00    +0.540 A 
ATOM     22  N   LIG    1       -2.294   3.083  -7.854  0.00  0.00    -0.620 NA
ATOM     23  C   LIG    1       -2.592   2.105  -7.011  0.00  0.00    +0.630 A 
ATOM     24  N   LIG    1       -3.407   1.118  -7.352  0.00  0.00    -0.580 NA
ATOM     25  C   LIG    1       -3.953   1.072  -8.559  0.00  0.00    +0.500 A 
ATOM     26  C   LIG    1       -3.665   2.069  -9.469  0.00  0.00    -0.270 A 
BRANCH  21  27
ATOM     27  N   LIG    1       -2.485   4.118  -9.962  0.00  0.00    -0.810 N 
ATOM     28  H   LIG    1       -2.150   4.964  -9.624  0.00  0.00    +0.410 HD
ATOM     29  H   LIG    1       -2.597   3.988 -10.916  0.00  0.00    +0.430 HD
ENDBRANCH  21  27
BRANCH  26  30
ATOM     30  N   LIG    1       -4.258   2.050 -10.826  0.00  0.00    +0.070 N 
ATOM     31  O   LIG    1       -3.941   2.898 -11.640  0.00  0.00    -0.200 OA
ATOM     32  O   LIG    1       -5.062   1.186 -11.127  0.00  0.00    -0.160 OA
ENDBRANCH  26  30
ENDBRANCH  19  23
ENDBRANCH  18  19
ENDBRANCH   1  18
TORSDOF 7
