REMARK  Name = ZINCpe00000bcSC8.0
REMARK                            x       y       z     vdW  Elec       q    Type
REMARK                         _______ _______ _______ _____ _____    ______ ____
ROOT
ATOM      1  C   LIG    1       -1.748  -7.826  -1.116  0.00  0.00    +0.560 C 
ATOM      2  N   LIG    1       -2.135  -6.546  -0.952  0.00  0.00    -0.730 N 
ATOM      3  H   LIG    1       -2.901  -6.205  -1.440  0.00  0.00    +0.400 HD
ATOM      4  O   LIG    1       -0.788  -8.254  -0.504  0.00  0.00    -0.530 OA
ENDROOT
BRANCH   1   8
ATOM      5  C   LIG    1       -3.880 -10.367  -3.768  0.00  0.00    +0.170 A 
ATOM      6  C   LIG    1       -2.781 -10.858  -3.069  0.00  0.00    +0.020 A 
ATOM      7  C   LIG    1       -2.088 -10.037  -2.209  0.00  0.00    +0.090 A 
ATOM      8  C   LIG    1       -2.489  -8.709  -2.038  0.00  0.00    -0.140 A 
ATOM      9  C   LIG    1       -3.596  -8.221  -2.737  0.00  0.00    +0.060 A 
ATOM     10  C   LIG    1       -4.282  -9.046  -3.599  0.00  0.00    +0.000 A 
BRANCH   5  12
ATOM     11  C   LIG    1       -3.978 -11.675  -5.747  0.00  0.00    +0.550 C 
ATOM     12  N   LIG    1       -4.580 -11.201  -4.638  0.00  0.00    -0.580 N 
ATOM     13  C   LIG    1       -5.969 -11.563  -4.346  0.00  0.00    +0.300 C 
ATOM     14  O   LIG    1       -2.798 -11.455  -5.940  0.00  0.00    -0.520 OA
BRANCH  11  16
ATOM     15  C   LIG    1       -4.156 -12.926  -7.819  0.00  0.00    +0.160 C 
ATOM     16  C   LIG    1       -4.749 -12.458  -6.724  0.00  0.00    -0.090 C 
ENDBRANCH  11  16
ENDBRANCH   5  12
ENDBRANCH   1   8
BRANCH   2  17
ATOM     17  C   LIG    1       -1.400  -5.669  -0.037  0.00  0.00    +0.290 C 
BRANCH  17  18
ATOM     18  C   LIG    1       -2.041  -4.280  -0.036  0.00  0.00    -0.030 C 
ATOM     19  C   LIG    1       -1.429  -3.305   0.979  0.00  0.00    +0.310 C 
ATOM     20  N   LIG    1       -1.544  -2.252  -0.041  0.00  0.00    -1.040 NA
ATOM     21  C   LIG    1       -1.451  -3.307  -1.062  0.00  0.00    +0.310 C 
BRANCH  20  22
ATOM     22  S   LIG    1       -1.711  -0.605  -0.040  0.00  0.00    +2.630 S 
ATOM     23  O   LIG    1       -2.358  -0.318  -1.273  0.00  0.00    -0.950 OA
ATOM     24  O   LIG    1       -2.340  -0.317   1.201  0.00  0.00    -0.950 OA
BRANCH  22  25
ATOM     25  C   LIG    1       -0.009   0.023  -0.053  0.00  0.00    -0.370 C 
ATOM     26  C   LIG    1       -0.030   1.553  -0.053  0.00  0.00    +0.070 C 
ENDBRANCH  22  25
ENDBRANCH  20  22
ENDBRANCH  17  18
ENDBRANCH   2  17
TORSDOF 7
