REMARK  Name = ZINCrH000004laYb.1
REMARK                            x       y       z     vdW  Elec       q    Type
REMARK                         _______ _______ _______ _____ _____    ______ ____
ROOT
ATOM      1  C   LIG    1       -0.017   1.392   0.010  0.00  0.00    -0.030 A 
ATOM      2  C   LIG    1        1.186   2.100   0.002  0.00  0.00    +0.080 A 
ATOM      3  C   LIG    1        2.385   1.417  -0.013  0.00  0.00    +0.040 A 
ATOM      4  C   LIG    1        2.396   0.034  -0.021  0.00  0.00    -0.050 A 
ATOM      5  C   LIG    1        1.208  -0.674  -0.013  0.00  0.00    +0.010 A 
ATOM      6  C   LIG    1        0.002  -0.004   0.002  0.00  0.00    +0.060 A 
ENDROOT
BRANCH   1  10
ATOM      7  C   LIG    1       -2.801   3.619   0.035  0.00  0.00    +0.160 A 
ATOM      8  N   LIG    1       -3.369   2.449   0.031  0.00  0.00    -0.370 NA
ATOM      9  O   LIG    1       -2.531   1.571   0.017  0.00  0.00    +0.090 OA
ATOM     10  C   LIG    1       -1.305   2.116   0.020  0.00  0.00    +0.230 A 
ATOM     11  N   LIG    1       -1.473   3.427   0.028  0.00  0.00    -0.470 NA
BRANCH   7  12
ATOM     12  C   LIG    1       -3.508   4.950   0.046  0.00  0.00    +0.210 C 
ATOM     13  C   LIG    1       -3.150   5.728   1.329  0.00  0.00    +0.030 C 
ATOM     14  C   LIG    1       -4.467   6.447   1.716  0.00  0.00    +0.030 C 
ATOM     15  C   LIG    1       -5.548   5.394   1.367  0.00  0.00    +0.030 C 
ATOM     16  C   LIG    1       -5.032   4.738   0.069  0.00  0.00    +0.060 C 
BRANCH  12  18
ATOM     17  C   LIG    1       -1.735   5.971  -1.204  0.00  0.00    +0.220 C 
ATOM     18  O   LIG    1       -3.137   5.710  -1.107  0.00  0.00    -0.360 OA
ENDBRANCH  12  18
ENDBRANCH   7  12
ENDBRANCH   1  10
BRANCH   4  19
ATOM     19  C   LIG    1        3.710  -0.705  -0.037  0.00  0.00    +0.230 C 
BRANCH  19  20
ATOM     20  N   LIG    1        4.123  -0.938  -1.427  0.00  0.00    -0.530 NA
ATOM     21  C   LIG    1        3.201  -1.862  -2.104  0.00  0.00    +0.150 C 
ATOM     22  C   LIG    1        3.634  -2.029  -3.563  0.00  0.00    +0.160 C 
ATOM     23  O   LIG    1        4.987  -2.489  -3.604  0.00  0.00    -0.380 OA
ATOM     24  C   LIG    1        5.913  -1.613  -2.955  0.00  0.00    +0.200 C 
ATOM     25  C   LIG    1        5.902  -0.250  -3.651  0.00  0.00    +0.010 C 
ATOM     26  C   LIG    1        2.726  -3.051  -4.251  0.00  0.00    +0.050 C 
ATOM     27  C   LIG    1        5.503  -1.441  -1.490  0.00  0.00    +0.150 C 
ENDBRANCH  19  20
ENDBRANCH   4  19
TORSDOF 5
