REMARK  Name = ZINCAx0000000dsn.0
REMARK                            x       y       z     vdW  Elec       q    Type
REMARK                         _______ _______ _______ _____ _____    ______ ____
ROOT
ATOM      1  C   LIG    1       -0.140   9.348   3.479  0.00  0.00    +0.040 A 
ATOM      2  C   LIG    1       -0.821  10.183   2.589  0.00  0.00    +0.080 A 
ATOM      3  C   LIG    1       -1.597  11.219   3.069  0.00  0.00    +0.020 A 
ATOM      4  C   LIG    1       -1.709  11.440   4.427  0.00  0.00    +0.110 A 
ATOM      5  C   LIG    1       -1.034  10.614   5.329  0.00  0.00    -0.150 A 
ATOM      6  C   LIG    1       -0.963  10.603   6.804  0.00  0.00    +0.570 C 
ATOM      7  O   LIG    1       -1.537  11.389   7.532  0.00  0.00    -0.510 OA
ATOM      8  N   LIG    1       -0.185   9.591   7.226  0.00  0.00    -0.600 N 
ATOM      9  C   LIG    1        0.324   8.870   6.054  0.00  0.00    +0.350 C 
ATOM     10  C   LIG    1       -0.254   9.564   4.847  0.00  0.00    -0.060 A 
ENDROOT
BRANCH   8  11
ATOM     11  C   LIG    1        0.115   9.271   8.623  0.00  0.00    +0.290 C 
ATOM     12  C   LIG    1       -1.187   8.947   9.365  0.00  0.00    +0.060 C 
ATOM     13  C   LIG    1       -0.862   8.726  10.846  0.00  0.00    +0.100 C 
ATOM     14  C   LIG    1       -0.146   9.937  11.382  0.00  0.00    +0.520 C 
ATOM     15  N   LIG    1        0.615  10.704  10.587  0.00  0.00    -0.670 N 
ATOM     16  H   LIG    1        1.066  11.472  10.973  0.00  0.00    +0.420 HD
ATOM     17  O   LIG    1       -0.260  10.225  12.554  0.00  0.00    -0.500 OA
ATOM     18  C   LIG    1        0.778  10.453   9.280  0.00  0.00    +0.510 C 
ATOM     19  O   LIG    1        1.471  11.191   8.614  0.00  0.00    -0.480 OA
ENDBRANCH   8  11
BRANCH   1  21
ATOM     20  C   LIG    1        1.326   7.391   2.580  0.00  0.00    -0.130 C 
ATOM     21  C   LIG    1        0.666   8.273   2.985  0.00  0.00    -0.150 C 
BRANCH  20  32
ATOM     22  C   LIG    1        0.027  -2.041   0.069  0.00  0.00    +0.030 C 
ATOM     23  C   LIG    1        0.843  -0.750  -0.027  0.00  0.00    -0.060 C 
ATOM     24  C   LIG    1        0.102   0.377   0.696  0.00  0.00    +0.020 C 
ATOM     25  C   LIG    1        0.905   1.675   0.569  0.00  0.00    +0.270 C 
ATOM     26  N   LIG    1        2.269   1.437   1.061  0.00  0.00    -0.670 N 
ATOM     27  C   LIG    1        3.039   0.320   0.497  0.00  0.00    +0.280 C 
ATOM     28  C   LIG    1        2.803   2.229   2.011  0.00  0.00    +0.730 C 
ATOM     29  N   LIG    1        2.873   3.562   1.818  0.00  0.00    -0.620 N 
ATOM     30  C   LIG    1        2.158   4.194   0.701  0.00  0.00    +0.260 C 
ATOM     31  C   LIG    1        1.282   5.325   1.260  0.00  0.00    +0.020 C 
ATOM     32  C   LIG    1        2.155   6.285   2.072  0.00  0.00    +0.130 C 
ATOM     33  C   LIG    1        2.782   5.536   3.249  0.00  0.00    +0.020 C 
ATOM     34  C   LIG    1        3.671   4.408   2.715  0.00  0.00    +0.290 C 
ATOM     35  O   LIG    1        3.223   1.742   3.044  0.00  0.00    -0.560 OA
ATOM     36  C   LIG    1        1.033  -0.374  -1.498  0.00  0.00    +0.030 C 
ATOM     37  C   LIG    1        2.212  -0.963   0.625  0.00  0.00    +0.010 C 
ENDBRANCH  20  32
ENDBRANCH   1  21
TORSDOF 3
