REMARK  Name = ZINCtV000002qaNh.0
REMARK                            x       y       z     vdW  Elec       q    Type
REMARK                         _______ _______ _______ _____ _____    ______ ____
ROOT
ATOM      1  C   LIG    1        1.758   5.659   0.199  0.00  0.00    +0.160 A 
ATOM      2  N   LIG    1        0.456   5.567   0.044  0.00  0.00    -0.280 NA
ATOM      3  N   LIG    1        0.119   4.342  -0.148  0.00  0.00    -0.230 NA
ATOM      4  C   LIG    1        1.183   3.573  -0.119  0.00  0.00    +0.230 A 
ATOM      5  N   LIG    1        2.268   4.393   0.101  0.00  0.00    -0.410 N 
ENDROOT
BRANCH   4   6
ATOM      6  C   LIG    1        1.212   2.106  -0.294  0.00  0.00    -0.010 A 
ATOM      7  C   LIG    1        2.133   1.522  -1.165  0.00  0.00    +0.070 A 
ATOM      8  C   LIG    1        2.155   0.152  -1.325  0.00  0.00    +0.050 A 
ATOM      9  C   LIG    1        1.266  -0.644  -0.624  0.00  0.00    -0.010 A 
ATOM     10  C   LIG    1        0.348  -0.072   0.241  0.00  0.00    +0.050 A 
ATOM     11 CL   LIG    1        1.300  -2.368  -0.832  0.00  0.00    -0.040 Cl
ATOM     12  C   LIG    1        0.316   1.297   0.410  0.00  0.00    +0.010 A 
ATOM     13 CL   LIG    1       -0.834   2.013   1.495  0.00  0.00    -0.030 Cl
ENDBRANCH   4   6
BRANCH   5  14
ATOM     14  C   LIG    1        3.613   4.011   0.203  0.00  0.00    +0.100 A 
ATOM     15  C   LIG    1        4.037   3.241   1.277  0.00  0.00    +0.090 A 
ATOM     16  C   LIG    1        5.362   2.861   1.374  0.00  0.00    +0.040 A 
ATOM     17  C   LIG    1        6.269   3.256   0.405  0.00  0.00    +0.140 A 
ATOM     18  C   LIG    1        5.849   4.029  -0.666  0.00  0.00    -0.060 A 
ATOM     19 CL   LIG    1        6.988   4.523  -1.879  0.00  0.00    -0.020 Cl
ATOM     20  F   LIG    1        7.565   2.888   0.504  0.00  0.00    -0.110 F 
ATOM     21  C   LIG    1        4.523   4.406  -0.768  0.00  0.00    +0.100 A 
ENDBRANCH   5  14
BRANCH   1  22
ATOM     22  S   LIG    1        2.675   7.137   0.481  0.00  0.00    +0.070 S 
BRANCH  22  23
ATOM     23  C   LIG    1        1.329   8.347   0.480  0.00  0.00    +0.080 C 
BRANCH  23  24
ATOM     24  C   LIG    1        1.893   9.726   0.711  0.00  0.00    +0.380 C 
ATOM     25  O   LIG    1        3.082   9.874   0.861  0.00  0.00    -0.430 OA
BRANCH  24  27
ATOM     26  C   LIG    1        1.794  12.186   1.000  0.00  0.00    +0.050 C 
ATOM     27  C   LIG    1        0.973  10.918   0.754  0.00  0.00    -0.100 C 
ATOM     28  C   LIG    1       -0.041  10.740   1.886  0.00  0.00    +0.060 C 
ATOM     29  C   LIG    1        0.233  11.040  -0.580  0.00  0.00    +0.060 C 
ENDBRANCH  24  27
ENDBRANCH  23  24
ENDBRANCH  22  23
ENDBRANCH   1  22
TORSDOF 6
