REMARK  Name = ZINCtj00000nxSDt.1
REMARK                            x       y       z     vdW  Elec       q    Type
REMARK                         _______ _______ _______ _____ _____    ______ ____
ROOT
ATOM      1  O   LIG    1       -3.995  -2.416  -0.334  0.00  0.00    -0.560 OA
ATOM      2  C   LIG    1       -3.568  -2.560  -1.464  0.00  0.00    +0.710 C 
ATOM      3  N   LIG    1       -3.887  -3.663  -2.169  0.00  0.00    -0.620 N 
ATOM      4  C   LIG    1       -4.825  -4.659  -1.629  0.00  0.00    +0.320 C 
ATOM      5  C   LIG    1       -5.904  -4.929  -2.690  0.00  0.00    +0.190 C 
ATOM      6  N   LIG    1       -5.258  -5.306  -3.954  0.00  0.00    -0.490 N 
ATOM      7  C   LIG    1       -4.436  -4.208  -4.481  0.00  0.00    +0.180 C 
ATOM      8  C   LIG    1       -3.301  -3.905  -3.496  0.00  0.00    +0.280 C 
ATOM      9  N   LIG    1       -2.776  -1.616  -2.010  0.00  0.00    -0.770 N 
ATOM     10  H   LIG    1       -2.490  -1.698  -2.933  0.00  0.00    +0.390 HD
ENDROOT
BRANCH   6  11
ATOM     11  C   LIG    1       -6.204  -5.721  -4.896  0.00  0.00    +0.040 A 
ATOM     12  C   LIG    1       -7.154  -4.826  -5.369  0.00  0.00    +0.010 A 
ATOM     13  C   LIG    1       -8.083  -5.237  -6.305  0.00  0.00    +0.010 A 
ATOM     14  C   LIG    1       -8.076  -6.542  -6.763  0.00  0.00    +0.060 A 
ATOM     15  C   LIG    1       -7.135  -7.439  -6.291  0.00  0.00    -0.010 A 
ATOM     16  C   LIG    1       -6.198  -7.033  -5.359  0.00  0.00    +0.130 A 
ATOM     17  F   LIG    1       -5.279  -7.909  -4.898  0.00  0.00    -0.130 F 
ENDBRANCH   6  11
BRANCH   9  18
ATOM     18  C   LIG    1       -2.346  -0.467  -1.209  0.00  0.00    +0.330 C 
BRANCH  18  19
ATOM     19  C   LIG    1       -1.358   0.377  -2.017  0.00  0.00    +0.170 C 
BRANCH  19  20
ATOM     20  N   LIG    1       -0.213  -0.455  -2.413  0.00  0.00    -0.380 N 
ATOM     21  C   LIG    1        0.469  -0.954  -1.212  0.00  0.00    +0.230 C 
ATOM     22  C   LIG    1        1.661  -1.820  -1.627  0.00  0.00    +0.270 C 
ATOM     23  O   LIG    1        2.541  -1.048  -2.449  0.00  0.00    -0.350 OA
ATOM     24  C   LIG    1        1.915  -0.519  -3.621  0.00  0.00    +0.260 C 
ATOM     25  C   LIG    1        0.724   0.350  -3.209  0.00  0.00    +0.240 C 
ATOM     26  H   LIG    1       -0.539  -1.235  -2.964  0.00  0.00    +0.420 HD
ENDBRANCH  19  20
BRANCH  19  27
ATOM     27  C   LIG    1       -0.867   1.546  -1.161  0.00  0.00    -0.030 C 
ATOM     28  C   LIG    1       -2.018   2.547  -0.899  0.00  0.00    +0.040 C 
ATOM     29  C   LIG    1       -1.788   2.926   0.586  0.00  0.00    +0.220 C 
ATOM     30  O   LIG    1       -1.347   1.688   1.188  0.00  0.00    -0.360 OA
ATOM     31  C   LIG    1       -0.466   1.055   0.244  0.00  0.00    +0.190 C 
ENDBRANCH  19  27
ENDBRANCH  18  19
ENDBRANCH   9  18
TORSDOF 5
