REMARK  Name = ZINCvU0000000F9K.0
REMARK                            x       y       z     vdW  Elec       q    Type
REMARK                         _______ _______ _______ _____ _____    ______ ____
ROOT
ATOM      1  O   LIG    1       -8.981   0.379   0.167  0.00  0.00    -0.320 OA
ENDROOT
BRANCH   1   2
ATOM      2  C   LIG    1      -10.305   0.233   0.367  0.00  0.00    +0.510 C 
ATOM      3  O   LIG    1      -10.798  -0.877   0.382  0.00  0.00    -0.480 OA
BRANCH   2   4
ATOM      4  C   LIG    1      -11.158   1.423   0.568  0.00  0.00    -0.100 A 
ATOM      5  C   LIG    1      -10.617   2.701   0.451  0.00  0.00    +0.090 A 
ATOM      6  C   LIG    1      -11.419   3.811   0.640  0.00  0.00    +0.020 A 
ATOM      7  C   LIG    1      -12.760   3.663   0.946  0.00  0.00    +0.060 A 
ATOM      8  C   LIG    1      -13.315   2.403   1.067  0.00  0.00    +0.040 A 
ATOM      9  C   LIG    1      -12.524   1.272   0.874  0.00  0.00    -0.080 A 
BRANCH   9  10
ATOM     10  C   LIG    1      -13.115  -0.078   0.995  0.00  0.00    +0.450 C 
ATOM     11  O   LIG    1      -13.354  -0.540   2.093  0.00  0.00    -0.440 OA
BRANCH  10  12
ATOM     12  C   LIG    1      -13.414  -0.865  -0.219  0.00  0.00    -0.140 A 
ATOM     13  C   LIG    1      -13.055  -0.377  -1.478  0.00  0.00    +0.050 A 
ATOM     14  C   LIG    1      -13.332  -1.120  -2.606  0.00  0.00    +0.000 A 
ATOM     15  C   LIG    1      -13.976  -2.340  -2.495  0.00  0.00    +0.040 A 
ATOM     16  C   LIG    1      -14.340  -2.826  -1.251  0.00  0.00    +0.000 A 
ATOM     17  C   LIG    1      -14.063  -2.097  -0.114  0.00  0.00    +0.070 A 
ENDBRANCH  10  12
ENDBRANCH   9  10
ENDBRANCH   2   4
ENDBRANCH   1   2
BRANCH   1  18
ATOM     18  C   LIG    1       -8.205  -0.833  -0.024  0.00  0.00    +0.270 C 
BRANCH  18  20
ATOM     19  O   LIG    1       -6.411   0.688  -0.221  0.00  0.00    -0.490 OA
ATOM     20  C   LIG    1       -6.756  -0.475  -0.232  0.00  0.00    +0.520 C 
ATOM     21  N   LIG    1       -5.843  -1.447  -0.430  0.00  0.00    -0.670 N 
ATOM     22  H   LIG    1       -6.128  -2.370  -0.516  0.00  0.00    +0.420 HD
BRANCH  21  23
ATOM     23  C   LIG    1       -4.482  -1.123  -0.512  0.00  0.00    +0.150 A 
ATOM     24  C   LIG    1       -3.620  -1.930  -1.242  0.00  0.00    +0.010 A 
ATOM     25  C   LIG    1       -2.279  -1.613  -1.323  0.00  0.00    +0.070 A 
ATOM     26  C   LIG    1       -1.792  -0.485  -0.673  0.00  0.00    -0.110 A 
ATOM     27  C   LIG    1       -2.654   0.319   0.062  0.00  0.00    +0.030 A 
ATOM     28  C   LIG    1       -3.996   0.004   0.138  0.00  0.00    +0.040 A 
BRANCH  26  29
ATOM     29  S   LIG    1       -0.080  -0.080  -0.775  0.00  0.00    -0.090 S 
BRANCH  29  30
ATOM     30  C   LIG    1        0.040   1.436   0.215  0.00  0.00    +0.430 C 
ATOM     31  F   LIG    1       -0.373   1.171   1.525  0.00  0.00    -0.180 F 
ATOM     32  F   LIG    1       -0.781   2.423  -0.342  0.00  0.00    -0.180 F 
ENDBRANCH  29  30
ENDBRANCH  26  29
ENDBRANCH  21  23
ENDBRANCH  18  20
ENDBRANCH   1  18
TORSDOF 9
