REMARK  Name = ZINCpe00000yOEkg.0
REMARK                            x       y       z     vdW  Elec       q    Type
REMARK                         _______ _______ _______ _____ _____    ______ ____
ROOT
ATOM      1  S   LIG    1        2.558  -4.947   4.367  0.00  0.00    +2.700 S 
ATOM      2  O   LIG    1        2.782  -4.184   5.545  0.00  0.00    -0.950 OA
ATOM      3  O   LIG    1        3.477  -5.917   3.883  0.00  0.00    -0.950 OA
ENDROOT
BRANCH   1   7
ATOM      4  C   LIG    1       -1.380  -7.104   4.963  0.00  0.00    +0.180 A 
ATOM      5  C   LIG    1       -0.441  -7.604   4.073  0.00  0.00    +0.010 A 
ATOM      6  C   LIG    1        0.760  -6.944   3.894  0.00  0.00    +0.170 A 
ATOM      7  C   LIG    1        1.026  -5.785   4.599  0.00  0.00    -0.670 A 
ATOM      8  C   LIG    1        0.095  -5.285   5.492  0.00  0.00    +0.130 A 
ATOM      9  C   LIG    1       -1.110  -5.938   5.673  0.00  0.00    +0.060 A 
ATOM     10  F   LIG    1       -2.022  -5.447   6.540  0.00  0.00    -0.130 F 
BRANCH   4  11
ATOM     11  N   LIG    1       -2.596  -7.770   5.147  0.00  0.00    -1.050 N 
ATOM     12  H   LIG    1       -3.408  -7.264   5.307  0.00  0.00    +0.430 HD
BRANCH  11  14
ATOM     13  C   LIG    1       -1.542  -9.959   6.425  0.00  0.00    -0.260 C 
ATOM     14  S   LIG    1       -2.650  -9.425   5.091  0.00  0.00    +2.610 S 
ATOM     15  O   LIG    1       -2.098  -9.751   3.823  0.00  0.00    -0.940 OA
ATOM     16  O   LIG    1       -3.999  -9.742   5.407  0.00  0.00    -0.940 OA
ENDBRANCH  11  14
ENDBRANCH   4  11
ENDBRANCH   1   7
BRANCH   1  17
ATOM     17  N   LIG    1        2.339  -3.857   3.139  0.00  0.00    -1.110 NA
ATOM     18  H   LIG    1        2.825  -3.961   2.306  0.00  0.00    +0.420 HD
BRANCH  17  19
ATOM     19  C   LIG    1        1.412  -2.736   3.312  0.00  0.00    +0.280 C 
BRANCH  19  20
ATOM     20  C   LIG    1        1.664  -1.694   2.220  0.00  0.00    -0.020 C 
ATOM     21  C   LIG    1        3.004  -0.924   2.485  0.00  0.00    +0.020 C 
ATOM     22  C   LIG    1        2.530   0.549   2.669  0.00  0.00    +0.220 C 
ATOM     23  O   LIG    1        1.216   0.351   3.287  0.00  0.00    -0.370 OA
ATOM     24  C   LIG    1        2.131   1.036   1.209  0.00  0.00    -0.060 C 
ATOM     25  C   LIG    1        0.808   1.799   1.112  0.00  0.00    +0.060 C 
ATOM     26  C   LIG    1        0.799   0.274   0.988  0.00  0.00    -0.080 C 
ATOM     27  C   LIG    1        0.612  -0.547   2.299  0.00  0.00    +0.230 C 
ENDBRANCH  19  20
ENDBRANCH  17  19
ENDBRANCH   1  17
TORSDOF 6
