REMARK  Name = ZINCrg000000mSyJ.0
REMARK                            x       y       z     vdW  Elec       q    Type
REMARK                         _______ _______ _______ _____ _____    ______ ____
ROOT
ATOM      1  C   LIG    1       -2.175   0.531   3.293  0.00  0.00    -0.150 A 
ATOM      2  C   LIG    1       -2.735   1.765   3.626  0.00  0.00    +0.130 A 
ATOM      3  C   LIG    1       -2.460   2.875   2.855  0.00  0.00    +0.020 A 
ATOM      4  C   LIG    1       -1.626   2.768   1.755  0.00  0.00    +0.080 A 
ATOM      5  C   LIG    1       -1.072   1.544   1.416  0.00  0.00    -0.680 A 
ATOM      6 CL   LIG    1       -1.278   4.171   0.794  0.00  0.00    -0.030 Cl
ATOM      7  C   LIG    1       -1.339   0.428   2.179  0.00  0.00    +0.220 A 
ENDROOT
BRANCH   1  10
ATOM      8  N   LIG    1       -3.272  -0.560   5.189  0.00  0.00    -0.720 N 
ATOM      9  H   LIG    1       -3.663   0.296   5.423  0.00  0.00    +0.400 HD
ATOM     10  C   LIG    1       -2.465  -0.663   4.115  0.00  0.00    +0.560 C 
ATOM     11  O   LIG    1       -1.976  -1.736   3.822  0.00  0.00    -0.520 OA
BRANCH   8  12
ATOM     12  C   LIG    1       -3.560  -1.743   6.005  0.00  0.00    +0.270 C 
BRANCH  12  13
ATOM     13  C   LIG    1       -4.494  -1.356   7.153  0.00  0.00    +0.270 C 
BRANCH  13  16
ATOM     14  C   LIG    1       -5.885  -3.653   9.881  0.00  0.00    +0.110 C 
ATOM     15  C   LIG    1       -5.589  -2.437   9.043  0.00  0.00    +0.510 C 
ATOM     16  N   LIG    1       -4.782  -2.539   7.968  0.00  0.00    -0.730 N 
ATOM     17  H   LIG    1       -4.391  -3.396   7.735  0.00  0.00    +0.410 HD
ATOM     18  O   LIG    1       -6.077  -1.365   9.335  0.00  0.00    -0.540 OA
ENDBRANCH  13  16
ENDBRANCH  12  13
ENDBRANCH   8  12
ENDBRANCH   1  10
BRANCH   5  19
ATOM     19  S   LIG    1       -0.017   1.417   0.010  0.00  0.00    +2.690 S 
ATOM     20  O   LIG    1        0.913   2.487   0.107  0.00  0.00    -0.930 OA
ATOM     21  O   LIG    1        0.373   0.053  -0.077  0.00  0.00    -0.940 OA
BRANCH  19  22
ATOM     22  N   LIG    1       -0.944   1.724  -1.328  0.00  0.00    -0.990 NA
ATOM     23  C   LIG    1       -0.975   3.063  -1.937  0.00  0.00    +0.280 C 
ATOM     24  C   LIG    1       -0.713   2.911  -3.443  0.00  0.00    +0.200 C 
ATOM     25  O   LIG    1       -1.621   1.947  -3.982  0.00  0.00    -0.370 OA
ATOM     26  C   LIG    1       -1.469   0.632  -3.442  0.00  0.00    +0.140 C 
ATOM     27  C   LIG    1       -2.445  -0.321  -4.135  0.00  0.00    +0.070 C 
ATOM     28  C   LIG    1        0.725   2.440  -3.670  0.00  0.00    +0.010 C 
ATOM     29  C   LIG    1       -1.765   0.667  -1.939  0.00  0.00    +0.270 C 
ENDBRANCH  19  22
ENDBRANCH   5  19
TORSDOF 6
