REMARK  Name = ZINCvU0000000I1e.0
REMARK                            x       y       z     vdW  Elec       q    Type
REMARK                         _______ _______ _______ _____ _____    ______ ____
ROOT
ATOM      1  C   LIG    1       10.191   6.262  -0.074  0.00  0.00    +0.180 C 
ATOM      2  C   LIG    1       10.417   4.772  -0.076  0.00  0.00    +0.120 A 
ATOM      3  N   LIG    1       11.578   4.174  -0.084  0.00  0.00    -0.260 NA
ATOM      4  N   LIG    1       11.375   2.789  -0.090  0.00  0.00    -0.310 N 
ATOM      5  C   LIG    1       10.044   2.555  -0.079  0.00  0.00    +0.160 A 
ATOM      6 CL   LIG    1        9.274   0.999  -0.081  0.00  0.00    +0.050 Cl
ATOM      7  C   LIG    1        9.411   3.781  -0.066  0.00  0.00    -0.170 A 
ENDROOT
BRANCH   4   8
ATOM      8  C   LIG    1       12.380   1.813  -0.104  0.00  0.00    +0.140 A 
ATOM      9  C   LIG    1       12.199   0.619   0.581  0.00  0.00    +0.050 A 
ATOM     10  C   LIG    1       13.191  -0.342   0.564  0.00  0.00    +0.060 A 
ATOM     11  C   LIG    1       14.364  -0.116  -0.133  0.00  0.00    +0.080 A 
ATOM     12  C   LIG    1       14.546   1.073  -0.817  0.00  0.00    -0.170 A 
ATOM     13  C   LIG    1       13.556   2.035  -0.808  0.00  0.00    +0.100 A 
BRANCH  12  14
ATOM     14  C   LIG    1       15.825   1.316  -1.576  0.00  0.00    +0.510 C 
ATOM     15  F   LIG    1       16.465   2.449  -1.062  0.00  0.00    -0.170 F 
ATOM     16  F   LIG    1       15.533   1.518  -2.929  0.00  0.00    -0.170 F 
ATOM     17  F   LIG    1       16.665   0.205  -1.441  0.00  0.00    -0.170 F 
ENDBRANCH  12  14
ENDBRANCH   4   8
BRANCH   7  18
ATOM     18  C   LIG    1        7.955   4.013  -0.051  0.00  0.00    +0.270 C 
ATOM     19  N   LIG    1        7.137   3.006  -0.049  0.00  0.00    -0.220 NA
BRANCH  19  20
ATOM     20  N   LIG    1        5.753   3.226  -0.035  0.00  0.00    -0.580 N 
ATOM     21  H   LIG    1        5.407   4.132  -0.027  0.00  0.00    +0.380 HD
ATOM     22  C   LIG    1        4.904   2.180  -0.032  0.00  0.00    +0.610 C 
ATOM     23  O   LIG    1        5.339   1.043  -0.042  0.00  0.00    -0.500 OA
BRANCH  22  24
ATOM     24  C   LIG    1        3.454   2.411  -0.018  0.00  0.00    -0.230 A 
ATOM     25  C   LIG    1        2.820   3.618  -0.005  0.00  0.00    +0.290 A 
ATOM     26  N   LIG    1        1.477   3.431   0.006  0.00  0.00    -0.580 N 
ATOM     27  H   LIG    1        0.819   4.144   0.015  0.00  0.00    +0.420 HD
ATOM     28  C   LIG    1        1.179   2.084   0.002  0.00  0.00    +0.080 A 
ATOM     29  C   LIG    1       -0.017   1.374   0.010  0.00  0.00    -0.010 A 
ATOM     30  C   LIG    1        0.002  -0.004   0.002  0.00  0.00    +0.030 A 
ATOM     31  C   LIG    1        1.205  -0.695  -0.013  0.00  0.00    -0.010 A 
ATOM     32  C   LIG    1        2.400  -0.009  -0.020  0.00  0.00    +0.060 A 
ATOM     33  C   LIG    1        2.396   1.383  -0.013  0.00  0.00    -0.060 A 
ENDBRANCH  22  24
ENDBRANCH  19  20
ENDBRANCH   7  18
TORSDOF 5
