REMARK  Name = ZINCtV00001bB3r3.0
REMARK                            x       y       z     vdW  Elec       q    Type
REMARK                         _______ _______ _______ _____ _____    ______ ____
ROOT
ATOM      1  C   LIG    1       -7.306   2.463   0.044  0.00  0.00    +0.120 A 
ATOM      2  C   LIG    1       -8.329   3.395   0.103  0.00  0.00    +0.020 A 
ATOM      3  C   LIG    1       -8.036   4.746   0.107  0.00  0.00    +0.050 A 
ATOM      4  C   LIG    1       -6.721   5.179   0.051  0.00  0.00    +0.020 A 
ATOM      5  C   LIG    1       -5.690   4.267  -0.002  0.00  0.00    +0.060 A 
ATOM      6  C   LIG    1       -5.971   2.897  -0.013  0.00  0.00    -0.090 A 
ENDROOT
BRANCH   6   7
ATOM      7  C   LIG    1       -4.877   1.918  -0.076  0.00  0.00    +0.130 C 
ATOM      8  C   LIG    1       -3.595   2.341  -0.130  0.00  0.00    -0.090 C 
BRANCH   8   9
ATOM      9  C   LIG    1       -2.506   1.367  -0.193  0.00  0.00    +0.470 C 
ATOM     10  O   LIG    1       -2.755   0.173  -0.197  0.00  0.00    -0.430 OA
BRANCH   9  11
ATOM     11  C   LIG    1       -1.111   1.826  -0.252  0.00  0.00    -0.050 A 
ATOM     12  C   LIG    1       -0.021   1.015  -0.313  0.00  0.00    +0.060 A 
ATOM     13  C   LIG    1        1.141   1.900  -0.362  0.00  0.00    -0.150 A 
ATOM     14  C   LIG    1        2.520   1.693  -0.435  0.00  0.00    +0.070 A 
ATOM     15  C   LIG    1        3.366   2.767  -0.466  0.00  0.00    -0.010 A 
ATOM     16  C   LIG    1        2.862   4.059  -0.424  0.00  0.00    +0.060 A 
ATOM     17  C   LIG    1        1.504   4.285  -0.350  0.00  0.00    +0.030 A 
ATOM     18  C   LIG    1        0.625   3.210  -0.318  0.00  0.00    +0.070 A 
ATOM     19  O   LIG    1       -0.718   3.117  -0.250  0.00  0.00    -0.180 OA
ENDBRANCH   9  11
ENDBRANCH   8   9
ENDBRANCH   6   7
BRANCH   1  20
ATOM     20  O   LIG    1       -7.592   1.136   0.041  0.00  0.00    -0.300 OA
BRANCH  20  22
ATOM     21  O   LIG    1       -7.291   1.073   2.244  0.00  0.00    -0.490 OA
ATOM     22  C   LIG    1       -7.513   0.468   1.212  0.00  0.00    +0.510 C 
BRANCH  22  23
ATOM     23  C   LIG    1       -7.686  -0.933   1.238  0.00  0.00    -0.090 C 
ATOM     24  C   LIG    1       -7.606  -1.605   2.415  0.00  0.00    +0.210 C 
BRANCH  24  25
ATOM     25  C   LIG    1       -7.780  -3.009   2.441  0.00  0.00    -0.230 A 
ATOM     26  C   LIG    1       -7.718  -3.798   3.561  0.00  0.00    +0.070 A 
ATOM     27  C   LIG    1       -7.928  -5.130   3.297  0.00  0.00    +0.000 A 
ATOM     28  C   LIG    1       -8.146  -5.428   2.010  0.00  0.00    -0.060 A 
ATOM     29  S   LIG    1       -8.104  -4.024   1.042  0.00  0.00    +0.220 S 
ENDBRANCH  24  25
ENDBRANCH  22  23
ENDBRANCH  20  22
ENDBRANCH   1  20
TORSDOF 7
