REMARK  Name = ZINCtV00000L6k0I.0
REMARK                            x       y       z     vdW  Elec       q    Type
REMARK                         _______ _______ _______ _____ _____    ______ ____
ROOT
ATOM      1  C   LIG    1        1.135   3.610   0.007  0.00  0.00    -0.100 A 
ATOM      2  C   LIG    1       -0.077   4.272   0.022  0.00  0.00    +0.110 A 
ATOM      3  C   LIG    1       -1.259   3.554   0.031  0.00  0.00    -0.120 A 
ATOM      4  C   LIG    1       -1.229   2.171   0.020  0.00  0.00    +0.110 A 
ATOM      5  C   LIG    1       -0.018   1.504   0.010  0.00  0.00    -0.200 A 
ATOM      6  C   LIG    1        0.002  -0.004   0.002  0.00  0.00    +0.300 C 
ATOM      7  O   LIG    1        1.310  -0.461   0.359  0.00  0.00    -0.370 OA
ATOM      8  C   LIG    1        2.352   0.195  -0.372  0.00  0.00    +0.390 C 
ATOM      9  O   LIG    1        2.365   1.578  -0.007  0.00  0.00    -0.310 OA
ATOM     10 BR   LIG    1       -2.917   4.463   0.052  0.00  0.00    -0.040 Br
ATOM     11  C   LIG    1        1.167   2.222   0.003  0.00  0.00    +0.170 A 
ENDROOT
BRANCH   8  12
ATOM     12  C   LIG    1        3.680  -0.430  -0.031  0.00  0.00    -0.090 A 
ATOM     13  C   LIG    1        4.685   0.340   0.524  0.00  0.00    +0.050 A 
ATOM     14  C   LIG    1        5.902  -0.234   0.841  0.00  0.00    +0.010 A 
ATOM     15  C   LIG    1        6.117  -1.577   0.593  0.00  0.00    +0.020 A 
ATOM     16  C   LIG    1        5.114  -2.346   0.033  0.00  0.00    +0.010 A 
ATOM     17  C   LIG    1        3.896  -1.773  -0.279  0.00  0.00    +0.040 A 
ENDBRANCH   8  12
BRANCH   1  18
ATOM     18  C   LIG    1        2.422   4.393  -0.003  0.00  0.00    +0.110 C 
BRANCH  18  19
ATOM     19  S   LIG    1        2.921   4.713  -1.718  0.00  0.00    +0.050 S 
BRANCH  19  26
ATOM     20  C   LIG    1        5.115   6.056  -2.654  0.00  0.00    -0.030 A 
ATOM     21  C   LIG    1        6.287   6.769  -2.504  0.00  0.00    +0.150 A 
ATOM     22  C   LIG    1        6.771   7.052  -1.238  0.00  0.00    -0.050 A 
ATOM     23  C   LIG    1        6.080   6.621  -0.119  0.00  0.00    +0.130 A 
ATOM     24  C   LIG    1        4.904   5.913  -0.262  0.00  0.00    +0.030 A 
ATOM     25 CL   LIG    1        8.246   7.947  -1.055  0.00  0.00    -0.030 Cl
ATOM     26  C   LIG    1        4.419   5.622  -1.531  0.00  0.00    -0.040 A 
BRANCH  20  28
ATOM     27  O   LIG    1        5.209   6.134  -4.990  0.00  0.00    -0.160 OA
ATOM     28  N   LIG    1        4.599   5.754  -4.007  0.00  0.00    +0.030 N 
ATOM     29  O   LIG    1        3.564   5.125  -4.138  0.00  0.00    -0.140 OA
ENDBRANCH  20  28
ENDBRANCH  19  26
ENDBRANCH  18  19
ENDBRANCH   1  18
TORSDOF 5
