REMARK  Name = ZINCrD000000AJ5a.0
REMARK                            x       y       z     vdW  Elec       q    Type
REMARK                         _______ _______ _______ _____ _____    ______ ____
ROOT
ATOM      1  N   LIG    1       -1.058  -0.807  -0.011  0.00  0.00    -0.670 NA
ATOM      2  C   LIG    1        0.002  -0.004  -0.017  0.00  0.00    +0.490 A 
ATOM      3  C   LIG    1        1.355  -0.404  -0.013  0.00  0.00    -0.110 A 
ATOM      4  C   LIG    1        2.124   0.706  -0.022  0.00  0.00    +0.350 A 
ATOM      5  N   LIG    1        1.316   1.804  -0.030  0.00  0.00    -0.380 N 
ATOM      6  N   LIG    1       -0.017   1.370  -0.027  0.00  0.00    -0.470 N 
ATOM      7  H   LIG    1       -0.806   1.934  -0.035  0.00  0.00    +0.450 HD
ENDROOT
BRANCH   1   9
ATOM      8  O   LIG    1        0.232  -2.608   0.003  0.00  0.00    -0.560 OA
ATOM      9  C   LIG    1       -0.891  -2.135  -0.001  0.00  0.00    +0.550 C 
BRANCH   9  10
ATOM     10  C   LIG    1       -2.069  -3.028   0.006  0.00  0.00    -0.090 A 
ATOM     11  C   LIG    1       -3.345  -2.502   0.126  0.00  0.00    +0.120 A 
ATOM     12  C   LIG    1       -4.458  -3.336   0.129  0.00  0.00    -0.100 A 
ATOM     13  C   LIG    1       -4.326  -4.689   0.023  0.00  0.00    +0.090 A 
ATOM     14  C   LIG    1       -3.049  -5.265  -0.095  0.00  0.00    -0.060 A 
ATOM     15  C   LIG    1       -2.887  -6.657  -0.203  0.00  0.00    +0.020 A 
ATOM     16  C   LIG    1       -1.636  -7.182  -0.316  0.00  0.00    +0.010 A 
ATOM     17  C   LIG    1       -0.512  -6.360  -0.324  0.00  0.00    +0.010 A 
ATOM     18  C   LIG    1       -0.633  -5.007  -0.220  0.00  0.00    +0.050 A 
ATOM     19 BR   LIG    1       -6.185  -2.581   0.287  0.00  0.00    -0.050 Br
ATOM     20  C   LIG    1       -1.905  -4.431  -0.104  0.00  0.00    -0.010 A 
ENDBRANCH   9  10
ENDBRANCH   1   9
BRANCH   5  21
ATOM     21  C   LIG    1        1.764   3.199  -0.041  0.00  0.00    +0.350 C 
BRANCH  21  22
ATOM     22  C   LIG    1        2.038   3.658   1.392  0.00  0.00    +0.170 C 
BRANCH  22  23
ATOM     23  N   LIG    1        2.487   5.057   1.381  0.00  0.00    -0.530 NA
ATOM     24  C   LIG    1        3.796   5.185   0.723  0.00  0.00    +0.150 C 
ATOM     25  C   LIG    1        4.197   6.662   0.680  0.00  0.00    +0.220 C 
ATOM     26  O   LIG    1        4.207   7.187   2.010  0.00  0.00    -0.380 OA
ATOM     27  C   LIG    1        2.948   7.079   2.680  0.00  0.00    +0.220 C 
ATOM     28  C   LIG    1        2.534   5.606   2.744  0.00  0.00    +0.160 C 
ENDBRANCH  22  23
ENDBRANCH  21  22
ENDBRANCH   5  21
TORSDOF 5
