REMARK  Name = ZINCah0000004Thh.0
REMARK                            x       y       z     vdW  Elec       q    Type
REMARK                         _______ _______ _______ _____ _____    ______ ____
ROOT
ATOM      1  O   LIG    1        1.962   3.190  -0.709  0.00  0.00    -0.900 OA
ATOM      2  S   LIG    1        1.768   1.971  -0.004  0.00  0.00    +2.390 S 
ATOM      3  C   LIG    1        2.243   0.552  -1.072  0.00  0.00    -0.270 C 
ATOM      4  C   LIG    1        1.281  -0.561  -0.610  0.00  0.00    +0.130 C 
ATOM      5  C   LIG    1        0.002  -0.004   0.002  0.00  0.00    +0.070 C 
ATOM      6 CL   LIG    1       -1.409  -0.603  -0.947  0.00  0.00    -0.080 Cl
ATOM      7 CL   LIG    1       -0.143  -0.600   1.697  0.00  0.00    -0.090 Cl
ATOM      8 CL   LIG    1        0.852  -1.588  -2.029  0.00  0.00    -0.100 Cl
ATOM      9  O   LIG    1        2.315   1.801   1.296  0.00  0.00    -0.900 OA
ATOM     10  C   LIG    1       -0.019   1.538   0.011  0.00  0.00    -0.260 C 
ENDROOT
TORSDOF 0
