REMARK  Name = ZINCAx0000000gLn.0
REMARK                            x       y       z     vdW  Elec       q    Type
REMARK                         _______ _______ _______ _____ _____    ______ ____
ROOT
ATOM      1  C   LIG    1       -0.017   1.368   0.010  0.00  0.00    -0.660 A 
ATOM      2  C   LIG    1        1.167   2.090   0.002  0.00  0.00    +0.110 A 
ATOM      3  C   LIG    1        2.376   1.430  -0.013  0.00  0.00    +0.070 A 
ATOM      4  C   LIG    1        2.414   0.038  -0.021  0.00  0.00    -0.150 A 
ATOM      5  S   LIG    1        3.771  -1.085  -0.041  0.00  0.00    +0.060 S 
ATOM      6  C   LIG    1        2.661  -2.449  -0.038  0.00  0.00    +0.380 A 
ATOM      7  N   LIG    1        1.441  -2.033  -0.024  0.00  0.00    -0.530 NA
ATOM      8  C   LIG    1        1.228  -0.702  -0.014  0.00  0.00    +0.110 A 
ATOM      9  C   LIG    1        0.002  -0.004   0.002  0.00  0.00    +0.180 A 
ENDROOT
BRANCH   1  10
ATOM     10  S   LIG    1       -1.559   2.220   0.021  0.00  0.00    +2.700 S 
ATOM     11  O   LIG    1       -2.517   1.324  -0.523  0.00  0.00    -0.950 OA
ATOM     12  O   LIG    1       -1.308   3.511  -0.517  0.00  0.00    -0.950 OA
BRANCH  10  13
ATOM     13  N   LIG    1       -1.980   2.449   1.607  0.00  0.00    -1.090 NA
ATOM     14  H   LIG    1       -2.769   2.014   1.966  0.00  0.00    +0.430 HD
BRANCH  13  15
ATOM     15  C   LIG    1       -1.162   3.308   2.466  0.00  0.00    +0.260 C 
BRANCH  15  16
ATOM     16  C   LIG    1       -0.157   2.449   3.237  0.00  0.00    +0.160 C 
BRANCH  16  18
ATOM     17  C   LIG    1       -0.009   0.731   4.901  0.00  0.00    +0.200 C 
ATOM     18  O   LIG    1       -0.859   1.581   4.129  0.00  0.00    -0.380 OA
ENDBRANCH  16  18
ENDBRANCH  15  16
BRANCH  15  19
ATOM     19  C   LIG    1       -2.064   4.049   3.454  0.00  0.00    +0.200 C 
BRANCH  19  20
ATOM     20  N   LIG    1       -3.103   4.779   2.716  0.00  0.00    -0.530 NA
ATOM     21  C   LIG    1       -2.517   5.859   1.911  0.00  0.00    +0.150 C 
ATOM     22  C   LIG    1       -3.625   6.554   1.114  0.00  0.00    +0.220 C 
ATOM     23  O   LIG    1       -4.625   7.033   2.017  0.00  0.00    -0.390 OA
ATOM     24  C   LIG    1       -5.218   6.007   2.817  0.00  0.00    +0.220 C 
ATOM     25  C   LIG    1       -4.126   5.307   3.631  0.00  0.00    +0.150 C 
ENDBRANCH  19  20
ENDBRANCH  15  19
ENDBRANCH  13  15
ENDBRANCH  10  13
ENDBRANCH   1  10
BRANCH   6  26
ATOM     26  N   LIG    1        3.041  -3.775  -0.049  0.00  0.00    -0.680 N 
ATOM     27  H   LIG    1        2.368  -4.473  -0.046  0.00  0.00    +0.420 HD
BRANCH  26  28
ATOM     28  C   LIG    1        4.463  -4.129  -0.064  0.00  0.00    +0.290 C 
ATOM     29  C   LIG    1        4.989  -4.240  -1.515  0.00  0.00    +0.260 C 
ATOM     30  O   LIG    1        4.822  -5.639  -1.806  0.00  0.00    -0.280 OA
ATOM     31  C   LIG    1        4.894  -6.351  -0.648  0.00  0.00    +0.190 A 
ATOM     32  C   LIG    1        5.132  -7.708  -0.448  0.00  0.00    -0.030 A 
ATOM     33  C   LIG    1        5.143  -8.232   0.831  0.00  0.00    +0.190 A 
ATOM     34  C   LIG    1        4.919  -7.413   1.924  0.00  0.00    -0.060 A 
ATOM     35  C   LIG    1        4.685  -6.061   1.732  0.00  0.00    +0.210 A 
ATOM     36  F   LIG    1        4.465  -5.256   2.795  0.00  0.00    -0.120 F 
ATOM     37  F   LIG    1        5.375  -9.550   1.014  0.00  0.00    -0.120 F 
ATOM     38  C   LIG    1        4.677  -5.537   0.456  0.00  0.00    -0.260 A 
ENDBRANCH  26  28
ENDBRANCH   6  26
TORSDOF 9
