REMARK  Name = ZINCqH000000781J.0
REMARK                            x       y       z     vdW  Elec       q    Type
REMARK                         _______ _______ _______ _____ _____    ______ ____
ROOT
ATOM      1  C   LIG    1       -0.011   1.208   0.017  0.00  0.00    +0.520 C 
ATOM      2  N   LIG    1        1.145   1.901   0.002  0.00  0.00    -0.600 N 
ATOM      3  C   LIG    1        1.121   3.366   0.001  0.00  0.00    +0.290 C 
ATOM      4  O   LIG    1        0.009  -0.005   0.018  0.00  0.00    -0.520 OA
ENDROOT
BRANCH   1   5
ATOM      5  C   LIG    1       -1.328   1.940   0.028  0.00  0.00    +0.130 C 
BRANCH   5   9
ATOM      6  C   LIG    1       -4.531  -0.890   0.053  0.00  0.00    +0.100 A 
ATOM      7  C   LIG    1       -4.020  -0.430  -1.150  0.00  0.00    -0.040 A 
ATOM      8  C   LIG    1       -2.988   0.489  -1.155  0.00  0.00    +0.060 A 
ATOM      9  C   LIG    1       -2.457   0.942   0.038  0.00  0.00    -0.080 A 
ATOM     10  C   LIG    1       -2.965   0.486   1.241  0.00  0.00    +0.040 A 
ATOM     11  C   LIG    1       -4.001  -0.430   1.252  0.00  0.00    +0.070 A 
ATOM     12  F   LIG    1       -4.496  -0.876   2.427  0.00  0.00    -0.130 F 
BRANCH   6  14
ATOM     13  C   LIG    1       -6.046  -2.220  -1.209  0.00  0.00    +0.250 C 
ATOM     14  O   LIG    1       -5.551  -1.790   0.061  0.00  0.00    -0.310 OA
ENDBRANCH   6  14
ENDBRANCH   5   9
ENDBRANCH   1   5
BRANCH   2  15
ATOM     15  C   LIG    1        2.425   1.189  -0.015  0.00  0.00    +0.340 C 
BRANCH  15  16
ATOM     16  C   LIG    1        2.846   0.944  -1.441  0.00  0.00    +0.500 C 
ATOM     17  N   LIG    1        4.001   0.300  -1.702  0.00  0.00    -0.670 N 
ATOM     18  H   LIG    1        4.594   0.054  -0.975  0.00  0.00    +0.420 HD
ATOM     19  O   LIG    1        2.145   1.326  -2.354  0.00  0.00    -0.500 OA
BRANCH  17  20
ATOM     20  C   LIG    1        4.345  -0.013  -3.022  0.00  0.00    +0.160 A 
ATOM     21  C   LIG    1        4.007   0.853  -4.053  0.00  0.00    +0.040 A 
ATOM     22  C   LIG    1        4.347   0.543  -5.355  0.00  0.00    +0.070 A 
ATOM     23  C   LIG    1        5.024  -0.631  -5.633  0.00  0.00    -0.050 A 
ATOM     24  C   LIG    1        5.363  -1.498  -4.607  0.00  0.00    -0.010 A 
ATOM     25 CL   LIG    1        6.212  -2.970  -4.960  0.00  0.00    -0.040 Cl
ATOM     26 CL   LIG    1        5.450  -1.019  -7.271  0.00  0.00    -0.050 Cl
ATOM     27  C   LIG    1        5.029  -1.189  -3.302  0.00  0.00    +0.020 A 
ENDBRANCH  17  20
ENDBRANCH  15  16
ENDBRANCH   2  15
TORSDOF 6
