REMARK  Name = ZINCkj000005fosN.1
REMARK                            x       y       z     vdW  Elec       q    Type
REMARK                         _______ _______ _______ _____ _____    ______ ____
ROOT
ATOM      1  C   LIG    1        1.832   2.745  -1.043  0.00  0.00    +0.520 C 
ATOM      2  N   LIG    1        1.363   2.031   0.000  0.00  0.00    -0.600 N 
ATOM      3  C   LIG    1       -0.019   1.530   0.011  0.00  0.00    +0.300 C 
ATOM      4  C   LIG    1        0.002  -0.004   0.002  0.00  0.00    +0.130 C 
ATOM      5  C   LIG    1        1.020  -0.483   1.007  0.00  0.00    +0.020 A 
ATOM      6  C   LIG    1        2.007   0.285   1.517  0.00  0.00    -0.070 A 
ATOM      7  N   LIG    1        2.717  -0.492   2.378  0.00  0.00    -0.560 N 
ATOM      8  H   LIG    1        3.491  -0.220   2.897  0.00  0.00    +0.420 HD
ATOM      9  C   LIG    1        2.141  -1.716   2.373  0.00  0.00    +0.420 A 
ATOM     10  N   LIG    1        1.126  -1.700   1.550  0.00  0.00    -0.480 NA
ATOM     11  C   LIG    1        2.224   1.734   1.160  0.00  0.00    +0.370 C 
ATOM     12  O   LIG    1        1.111   2.980  -1.990  0.00  0.00    -0.540 OA
ENDROOT
BRANCH   1  13
ATOM     13  C   LIG    1        3.252   3.250  -1.034  0.00  0.00    +0.070 C 
BRANCH  13  23
ATOM     14  C   LIG    1        4.985   5.658  -1.120  0.00  0.00    +0.070 C 
ATOM     15  C   LIG    1        4.926   4.643  -2.263  0.00  0.00    -0.080 C 
ATOM     16  C   LIG    1        5.225   5.347  -3.588  0.00  0.00    +0.260 C 
ATOM     17  N   LIG    1        5.166   4.376  -4.687  0.00  0.00    -0.510 N 
ATOM     18  C   LIG    1        3.808   3.830  -4.798  0.00  0.00    +0.260 C 
ATOM     19  C   LIG    1        3.454   3.068  -3.519  0.00  0.00    +0.060 C 
ATOM     20  H   LIG    1        5.815   3.625  -4.505  0.00  0.00    +0.420 HD
ATOM     21  H   LIG    1        5.416   4.832  -5.551  0.00  0.00    +0.430 HD
ATOM     22  C   LIG    1        5.961   3.542  -2.024  0.00  0.00    +0.040 C 
ATOM     23  C   LIG    1        3.526   4.023  -2.325  0.00  0.00    +0.030 C 
ENDBRANCH  13  23
ENDBRANCH   1  13
TORSDOF 2
