REMARK  Name = ZINCkj000005fosN.0
REMARK                            x       y       z     vdW  Elec       q    Type
REMARK                         _______ _______ _______ _____ _____    ______ ____
ROOT
ATOM      1  C   LIG    1       -4.329   1.009  -2.466  0.00  0.00    +0.520 C 
ATOM      2  N   LIG    1       -5.189   1.360  -3.443  0.00  0.00    -0.610 N 
ATOM      3  C   LIG    1       -6.531   0.764  -3.516  0.00  0.00    +0.310 C 
ATOM      4  C   LIG    1       -7.579   1.870  -3.297  0.00  0.00    +0.110 C 
ATOM      5  C   LIG    1       -7.198   3.069  -4.124  0.00  0.00    -0.020 A 
ATOM      6  C   LIG    1       -5.971   3.290  -4.643  0.00  0.00    -0.020 A 
ATOM      7  N   LIG    1       -6.002   4.449  -5.305  0.00  0.00    -0.480 NA
ATOM      8  C   LIG    1       -7.204   4.957  -5.221  0.00  0.00    +0.400 A 
ATOM      9  N   LIG    1       -7.980   4.122  -4.491  0.00  0.00    -0.560 N 
ATOM     10  H   LIG    1       -8.916   4.250  -4.271  0.00  0.00    +0.420 HD
ATOM     11  C   LIG    1       -4.804   2.347  -4.468  0.00  0.00    +0.390 C 
ATOM     12  O   LIG    1       -4.661   0.196  -1.630  0.00  0.00    -0.540 OA
ENDROOT
BRANCH   1  13
ATOM     13  C   LIG    1       -2.956   1.627  -2.413  0.00  0.00    +0.070 C 
BRANCH  13  23
ATOM     14  C   LIG    1       -0.773   3.122  -1.226  0.00  0.00    +0.050 C 
ATOM     15  C   LIG    1       -0.752   1.592  -1.233  0.00  0.00    -0.080 C 
ATOM     16  C   LIG    1       -0.013   1.086   0.008  0.00  0.00    +0.260 C 
ATOM     17  N   LIG    1       -0.699   1.559   1.217  0.00  0.00    -0.510 N 
ATOM     18  C   LIG    1       -2.052   0.995   1.275  0.00  0.00    +0.260 C 
ATOM     19  C   LIG    1       -2.869   1.498   0.083  0.00  0.00    +0.060 C 
ATOM     20  H   LIG    1       -0.755   2.566   1.198  0.00  0.00    +0.420 HD
ATOM     21  H   LIG    1       -0.180   1.268   2.032  0.00  0.00    +0.430 HD
ATOM     22  C   LIG    1       -0.037   1.096  -2.491  0.00  0.00    +0.070 C 
ATOM     23  C   LIG    1       -2.188   1.061  -1.217  0.00  0.00    +0.030 C 
ENDBRANCH  13  23
ENDBRANCH   1  13
TORSDOF 2
