REMARK  Name = ZINCrD000000CLcm.0
REMARK                            x       y       z     vdW  Elec       q    Type
REMARK                         _______ _______ _______ _____ _____    ______ ____
ROOT
ATOM      1  O   LIG    1        4.309   1.254  -8.043  0.00  0.00    -0.510 OA
ATOM      2  C   LIG    1        3.145   1.551  -7.846  0.00  0.00    +0.560 A 
ATOM      3  N   LIG    1        2.610   1.505  -6.603  0.00  0.00    -0.650 N 
ATOM      4  H   LIG    1        3.159   1.231  -5.852  0.00  0.00    +0.420 HD
ATOM      5  C   LIG    1        1.299   1.841  -6.399  0.00  0.00    +0.460 A 
ATOM      6  N   LIG    1        0.499   2.214  -7.366  0.00  0.00    -0.520 NA
ATOM      7  C   LIG    1        0.926   2.302  -8.642  0.00  0.00    +0.200 A 
ATOM      8  C   LIG    1        0.072   2.704  -9.671  0.00  0.00    +0.020 A 
ATOM      9  C   LIG    1        0.552   2.775 -10.966  0.00  0.00    +0.160 A 
ATOM     10  C   LIG    1        1.877   2.447 -11.253  0.00  0.00    -0.070 A 
ATOM     11  C   LIG    1        2.728   2.051 -10.261  0.00  0.00    +0.150 A 
ATOM     12  C   LIG    1        2.268   1.972  -8.946  0.00  0.00    -0.230 A 
ENDROOT
BRANCH   5  13
ATOM     13  C   LIG    1        0.761   1.775  -5.026  0.00  0.00    -0.110 A 
ATOM     14  C   LIG    1       -0.573   2.111  -4.780  0.00  0.00    +0.130 A 
ATOM     15  C   LIG    1       -1.072   2.049  -3.498  0.00  0.00    -0.030 A 
ATOM     16  C   LIG    1       -0.250   1.652  -2.449  0.00  0.00    +0.200 A 
ATOM     17  C   LIG    1        1.079   1.321  -2.689  0.00  0.00    +0.000 A 
ATOM     18  C   LIG    1        1.583   1.376  -3.970  0.00  0.00    +0.070 A 
BRANCH  16  19
ATOM     19  N   LIG    1       -0.759   1.590  -1.151  0.00  0.00    -0.560 N 
ATOM     20  C   LIG    1       -2.103   2.036  -0.766  0.00  0.00    +0.270 C 
ATOM     21  C   LIG    1       -2.376   1.390   0.611  0.00  0.00    +0.060 C 
ATOM     22  C   LIG    1       -0.939   1.190   1.152  0.00  0.00    +0.070 C 
ATOM     23  C   LIG    1       -0.080   1.115  -0.092  0.00  0.00    +0.520 C 
ATOM     24  O   LIG    1        1.055   0.690  -0.128  0.00  0.00    -0.500 OA
ENDBRANCH  16  19
ENDBRANCH   5  13
BRANCH   9  25
ATOM     25  O   LIG    1       -0.275   3.166 -11.969  0.00  0.00    -0.310 OA
BRANCH  25  26
ATOM     26  C   LIG    1        0.279   3.218 -13.284  0.00  0.00    +0.600 C 
ATOM     27  F   LIG    1        0.736   1.947 -13.649  0.00  0.00    -0.200 F 
ATOM     28  F   LIG    1        1.348   4.121 -13.305  0.00  0.00    -0.200 F 
ENDBRANCH  25  26
ENDBRANCH   9  25
TORSDOF 4
