REMARK  Name = ZINCqH0000007C4x.0
REMARK                            x       y       z     vdW  Elec       q    Type
REMARK                         _______ _______ _______ _____ _____    ______ ____
ROOT
ATOM      1  C   LIG    1        4.671  -1.786  -0.049  0.00  0.00    +0.230 C 
ENDROOT
BRANCH   1   5
ATOM      2  C   LIG    1        2.488   1.069  -0.011  0.00  0.00    +0.220 A 
ATOM      3  N   LIG    1        3.677   1.612  -0.028  0.00  0.00    -0.360 NA
ATOM      4  O   LIG    1        4.529   0.750  -0.043  0.00  0.00    +0.100 OA
ATOM      5  C   LIG    1        3.958  -0.459  -0.036  0.00  0.00    +0.190 A 
ATOM      6  N   LIG    1        2.662  -0.272  -0.010  0.00  0.00    -0.450 NA
BRANCH   2  11
ATOM      7  C   LIG    1       -0.051   3.847   0.035  0.00  0.00    +0.130 A 
ATOM      8  C   LIG    1       -1.237   3.127   0.053  0.00  0.00    -0.050 A 
ATOM      9  C   LIG    1       -1.212   1.745   0.044  0.00  0.00    +0.060 A 
ATOM     10  C   LIG    1       -0.006   1.073   0.029  0.00  0.00    +0.030 A 
ATOM     11  C   LIG    1        1.190   1.789   0.011  0.00  0.00    +0.010 A 
ATOM     12  C   LIG    1        1.164   3.181   0.015  0.00  0.00    +0.020 A 
BRANCH   7  14
ATOM     13  C   LIG    1       -1.367   5.826   0.060  0.00  0.00    +0.250 C 
ATOM     14  O   LIG    1       -0.080   5.206   0.038  0.00  0.00    -0.310 OA
ENDBRANCH   7  14
ENDBRANCH   2  11
ENDBRANCH   1   5
BRANCH   1  15
ATOM     15  S   LIG    1        4.931  -2.316  -1.765  0.00  0.00    -0.120 S 
BRANCH  15  16
ATOM     16  C   LIG    1        5.787  -3.904  -1.576  0.00  0.00    +0.100 C 
BRANCH  16  17
ATOM     17  C   LIG    1        6.078  -4.482  -2.937  0.00  0.00    +0.530 C 
ATOM     18  N   LIG    1        6.713  -5.667  -3.045  0.00  0.00    -0.670 N 
ATOM     19  H   LIG    1        7.042  -6.114  -2.249  0.00  0.00    +0.420 HD
ATOM     20  O   LIG    1        5.740  -3.883  -3.936  0.00  0.00    -0.490 OA
BRANCH  18  21
ATOM     21  C   LIG    1        6.896  -6.250  -4.303  0.00  0.00    +0.170 A 
ATOM     22  C   LIG    1        6.850  -7.631  -4.443  0.00  0.00    -0.020 A 
ATOM     23  C   LIG    1        7.026  -8.205  -5.687  0.00  0.00    +0.070 A 
ATOM     24  C   LIG    1        7.260  -7.408  -6.791  0.00  0.00    -0.030 A 
ATOM     25  C   LIG    1        7.313  -6.030  -6.655  0.00  0.00    +0.120 A 
ATOM     26  F   LIG    1        7.541  -5.253  -7.737  0.00  0.00    -0.130 F 
ATOM     27  C   LIG    1        7.131  -5.450  -5.413  0.00  0.00    -0.010 A 
ENDBRANCH  18  21
ENDBRANCH  16  17
ENDBRANCH  15  16
ENDBRANCH   1  15
TORSDOF 7
