REMARK  Name = ZINCvU00000008V8.0
REMARK                            x       y       z     vdW  Elec       q    Type
REMARK                         _______ _______ _______ _____ _____    ______ ____
ROOT
ATOM      1  C   LIG    1        3.794   2.224  -0.972  0.00  0.00    -0.070 A 
ATOM      2  C   LIG    1        4.867   1.437  -0.579  0.00  0.00    +0.020 A 
ATOM      3  C   LIG    1        4.754   0.040  -0.636  0.00  0.00    +0.190 A 
ATOM      4  N   LIG    1        3.659  -0.561  -1.053  0.00  0.00    -0.420 NA
ATOM      5  C   LIG    1        2.581   0.117  -1.449  0.00  0.00    +0.130 A 
ATOM      6  C   LIG    1        1.424  -0.553  -1.889  0.00  0.00    +0.050 A 
ATOM      7  C   LIG    1        0.339   0.166  -2.288  0.00  0.00    +0.030 A 
ATOM      8  C   LIG    1        0.352   1.559  -2.268  0.00  0.00    +0.030 A 
ATOM      9  C   LIG    1        1.455   2.241  -1.847  0.00  0.00    +0.060 A 
ATOM     10  C   LIG    1        2.588   1.534  -1.431  0.00  0.00    -0.060 A 
ENDROOT
BRANCH   3  11
ATOM     11  C   LIG    1        5.908  -0.790  -0.213  0.00  0.00    -0.050 A 
ATOM     12  C   LIG    1        7.082  -0.182   0.228  0.00  0.00    +0.040 A 
ATOM     13  C   LIG    1        8.151  -0.959   0.627  0.00  0.00    +0.010 A 
ATOM     14  C   LIG    1        8.063  -2.338   0.579  0.00  0.00    +0.050 A 
ATOM     15  C   LIG    1        6.903  -2.948   0.137  0.00  0.00    +0.020 A 
ATOM     16  C   LIG    1        5.825  -2.182  -0.259  0.00  0.00    -0.000 A 
ATOM     17 CL   LIG    1        4.369  -2.948  -0.813  0.00  0.00    -0.030 Cl
ENDBRANCH   3  11
BRANCH   1  19
ATOM     18  O   LIG    1        2.953   4.367  -1.375  0.00  0.00    -0.390 OA
ATOM     19  C   LIG    1        3.866   3.700  -0.928  0.00  0.00    +0.540 C 
ATOM     20  N   LIG    1        4.944   4.307  -0.393  0.00  0.00    -0.630 N 
ATOM     21  H   LIG    1        5.673   3.775  -0.036  0.00  0.00    +0.410 HD
BRANCH  20  22
ATOM     22  C   LIG    1        5.010   5.652  -0.353  0.00  0.00    +0.460 C 
ATOM     23  S   LIG    1        3.724   6.591  -0.982  0.00  0.00    -0.410 S 
BRANCH  22  24
ATOM     24  N   LIG    1        6.088   6.259   0.182  0.00  0.00    -0.620 N 
ATOM     25  H   LIG    1        6.840   5.729   0.489  0.00  0.00    +0.410 HD
BRANCH  24  26
ATOM     26  C   LIG    1        6.122   7.655   0.296  0.00  0.00    +0.060 A 
ATOM     27  C   LIG    1        7.285   8.351  -0.014  0.00  0.00    +0.120 A 
ATOM     28  C   LIG    1        7.313   9.730   0.095  0.00  0.00    +0.000 A 
ATOM     29  C   LIG    1        6.190  10.415   0.520  0.00  0.00    +0.090 A 
ATOM     30  C   LIG    1        5.033   9.726   0.834  0.00  0.00    +0.000 A 
ATOM     31  F   LIG    1        8.384   7.682  -0.424  0.00  0.00    -0.130 F 
ATOM     32  C   LIG    1        4.995   8.347   0.723  0.00  0.00    +0.160 A 
ATOM     33  F   LIG    1        3.865   7.675   1.030  0.00  0.00    -0.090 F 
ENDBRANCH  24  26
ENDBRANCH  22  24
ENDBRANCH  20  22
ENDBRANCH   1  19
TORSDOF 5
