REMARK  Name = ZINCrg00000SjSHG.0
REMARK                            x       y       z     vdW  Elec       q    Type
REMARK                         _______ _______ _______ _____ _____    ______ ____
ROOT
ATOM      1  C   LIG    1       -2.168  -2.818   0.872  0.00  0.00    +0.140 C 
ATOM      2  C   LIG    1       -1.139  -2.369  -0.172  0.00  0.00    +0.270 C 
ATOM      3  N   LIG    1       -1.202  -0.903  -0.284  0.00  0.00    -0.610 N 
ATOM      4  C   LIG    1       -2.520  -0.280  -0.480  0.00  0.00    +0.270 C 
ATOM      5  C   LIG    1       -3.481  -0.832   0.574  0.00  0.00    +0.220 C 
ATOM      6  C   LIG    1       -0.085  -0.153  -0.205  0.00  0.00    +0.530 C 
ATOM      7  O   LIG    1       -0.164   1.057  -0.236  0.00  0.00    -0.530 OA
ATOM      8  O   LIG    1       -3.443  -2.260   0.546  0.00  0.00    -0.370 OA
ENDROOT
BRANCH   6   9
ATOM      9  C   LIG    1        1.262  -0.817  -0.078  0.00  0.00    -0.020 C 
ATOM     10  C   LIG    1        1.591  -1.555  -1.378  0.00  0.00    +0.040 C 
ATOM     11  C   LIG    1        2.944  -2.258  -1.238  0.00  0.00    +0.030 C 
ATOM     12  C   LIG    1        4.035  -1.212  -0.987  0.00  0.00    +0.260 C 
ATOM     13  N   LIG    1        3.653  -0.401   0.178  0.00  0.00    -0.620 N 
ATOM     14  C   LIG    1        4.496  -0.254   1.219  0.00  0.00    +0.520 C 
ATOM     15  O   LIG    1        4.135   0.339   2.213  0.00  0.00    -0.530 OA
ATOM     16  C   LIG    1        2.333   0.245   0.187  0.00  0.00    +0.310 C 
BRANCH  14  17
ATOM     17  C   LIG    1        5.889  -0.825   1.146  0.00  0.00    -0.020 C 
ATOM     18  C   LIG    1        5.898  -2.225   1.764  0.00  0.00    +0.050 C 
ATOM     19  C   LIG    1        6.852   0.079   1.918  0.00  0.00    +0.060 C 
ENDBRANCH  14  17
ENDBRANCH   6   9
BRANCH   1  20
ATOM     20  C   LIG    1       -2.263  -4.345   0.872  0.00  0.00    +0.370 C 
BRANCH  20  24
ATOM     21  C   LIG    1       -3.984  -5.836   5.341  0.00  0.00    +0.190 C 
ATOM     22  C   LIG    1       -3.890  -5.426   3.894  0.00  0.00    +0.230 A 
ATOM     23  N   LIG    1       -2.793  -5.089   3.270  0.00  0.00    -0.320 NA
ATOM     24  N   LIG    1       -3.156  -4.779   1.949  0.00  0.00    -0.380 N 
ATOM     25  C   LIG    1       -4.484  -4.966   1.868  0.00  0.00    +0.300 A 
ATOM     26  C   LIG    1       -5.333  -4.762   0.640  0.00  0.00    +0.200 C 
ATOM     27  N   LIG    1       -4.912  -5.354   3.042  0.00  0.00    -0.550 NA
ENDBRANCH  20  24
ENDBRANCH   1  20
TORSDOF 4
