REMARK  Name = ZINCpk00000xI1iE.0
REMARK                            x       y       z     vdW  Elec       q    Type
REMARK                         _______ _______ _______ _____ _____    ______ ____
ROOT
ATOM      1  C   LIG    1        5.968   0.295  -0.127  0.00  0.00    +0.190 C 
ATOM      2  C   LIG    1        4.674   1.065  -0.069  0.00  0.00    +0.070 A 
ATOM      3  C   LIG    1        3.454   0.537  -0.042  0.00  0.00    +0.020 A 
ATOM      4  N   LIG    1        2.534   1.570   0.011  0.00  0.00    -0.350 N 
ATOM      5  C   LIG    1        3.212   2.741   0.015  0.00  0.00    +0.450 A 
ATOM      6  N   LIG    1        2.350   3.746   0.065  0.00  0.00    -0.500 NA
ATOM      7  C   LIG    1        1.106   3.276   0.095  0.00  0.00    +0.380 A 
ATOM      8  N   LIG    1       -0.144   3.873   0.147  0.00  0.00    -0.510 N 
ATOM      9  C   LIG    1       -0.257   5.333   0.184  0.00  0.00    +0.350 C 
ATOM     10  C   LIG    1       -1.254   3.111   0.166  0.00  0.00    +0.710 A 
ATOM     11  O   LIG    1       -2.343   3.651   0.212  0.00  0.00    -0.530 OA
ATOM     12  N   LIG    1       -1.189   1.769   0.129  0.00  0.00    -0.550 N 
ATOM     13  C   LIG    1       -2.428   0.987   0.145  0.00  0.00    +0.360 C 
ATOM     14  C   LIG    1       -0.002   1.131   0.082  0.00  0.00    +0.600 A 
ATOM     15  O   LIG    1        0.042  -0.087   0.053  0.00  0.00    -0.520 OA
ATOM     16  C   LIG    1        1.184   1.884   0.061  0.00  0.00    -0.180 A 
ATOM     17  C   LIG    1        3.128  -0.934  -0.065  0.00  0.00    +0.170 C 
ATOM     18  N   LIG    1        4.550   2.442  -0.034  0.00  0.00    -0.410 N 
ENDROOT
BRANCH  18  19
ATOM     19  C   LIG    1        5.603   3.366  -0.047  0.00  0.00    +0.110 A 
ATOM     20  C   LIG    1        5.780   4.203  -1.141  0.00  0.00    +0.080 A 
ATOM     21  C   LIG    1        6.815   5.118  -1.149  0.00  0.00    +0.010 A 
ATOM     22  C   LIG    1        7.683   5.192  -0.073  0.00  0.00    +0.120 A 
ATOM     23  C   LIG    1        7.512   4.354   1.016  0.00  0.00    +0.010 A 
ATOM     24  F   LIG    1        8.698   6.083  -0.086  0.00  0.00    -0.130 F 
ATOM     25  C   LIG    1        6.475   3.442   1.031  0.00  0.00    +0.070 A 
ENDBRANCH  18  19
TORSDOF 1
