REMARK  Name = ZINCtV00000tRQHX.0
REMARK                            x       y       z     vdW  Elec       q    Type
REMARK                         _______ _______ _______ _____ _____    ______ ____
ROOT
ATOM      1  C   LIG    1        0.265   5.572  -0.712  0.00  0.00    +0.590 A 
ATOM      2  N   LIG    1        1.109   6.301  -0.008  0.00  0.00    -0.580 NA
ATOM      3  C   LIG    1        2.043   5.714   0.753  0.00  0.00    +0.230 A 
ATOM      4  C   LIG    1        2.956   6.459   1.513  0.00  0.00    +0.040 A 
ATOM      5  C   LIG    1        3.886   5.812   2.271  0.00  0.00    +0.100 A 
ATOM      6  C   LIG    1        3.945   4.420   2.303  0.00  0.00    -0.120 A 
ATOM      7  C   LIG    1        3.071   3.666   1.575  0.00  0.00    +0.130 A 
ATOM      8 BR   LIG    1        5.253   3.566   3.368  0.00  0.00    -0.040 Br
ATOM      9  C   LIG    1        2.100   4.298   0.791  0.00  0.00    -0.200 A 
ATOM     10  C   LIG    1        1.171   3.567   0.009  0.00  0.00    +0.330 A 
ATOM     11  N   LIG    1        0.286   4.243  -0.710  0.00  0.00    -0.550 NA
ENDROOT
BRANCH  10  12
ATOM     12  C   LIG    1        1.184   2.087   0.002  0.00  0.00    -0.070 A 
ATOM     13  C   LIG    1        1.316   1.381   1.198  0.00  0.00    +0.040 A 
ATOM     14  C   LIG    1        1.327   0.001   1.185  0.00  0.00    +0.010 A 
ATOM     15  C   LIG    1        1.206  -0.682  -0.012  0.00  0.00    +0.040 A 
ATOM     16  C   LIG    1        1.076   0.011  -1.202  0.00  0.00    +0.010 A 
ATOM     17  C   LIG    1        1.064   1.391  -1.202  0.00  0.00    +0.060 A 
ENDBRANCH  10  12
BRANCH   1  18
ATOM     18  N   LIG    1       -0.684   6.219  -1.484  0.00  0.00    -0.480 N 
ATOM     19  H   LIG    1       -1.315   5.702  -2.010  0.00  0.00    +0.450 HD
BRANCH  18  22
ATOM     20  O   LIG    1       -2.448   7.601  -2.918  0.00  0.00    -0.520 OA
ATOM     21  C   LIG    1       -1.657   8.248  -2.260  0.00  0.00    +0.560 C 
ATOM     22  N   LIG    1       -0.733   7.619  -1.508  0.00  0.00    -0.500 N 
ATOM     23  H   LIG    1       -0.102   8.135  -0.982  0.00  0.00    +0.430 HD
BRANCH  21  24
ATOM     24  C   LIG    1       -1.709   9.725  -2.284  0.00  0.00    -0.110 A 
ATOM     25  C   LIG    1       -2.665  10.380  -3.063  0.00  0.00    +0.120 A 
ATOM     26  C   LIG    1       -2.709  11.758  -3.082  0.00  0.00    +0.060 A 
ATOM     27  C   LIG    1       -1.807  12.493  -2.332  0.00  0.00    -0.000 A 
ATOM     28  C   LIG    1       -0.855  11.849  -1.556  0.00  0.00    -0.040 A 
ATOM     29 CL   LIG    1        0.272  12.779  -0.618  0.00  0.00    -0.030 Cl
ATOM     30 CL   LIG    1       -1.868  14.228  -2.362  0.00  0.00    -0.030 Cl
ATOM     31  C   LIG    1       -0.805  10.470  -1.525  0.00  0.00    +0.080 A 
ENDBRANCH  21  24
ENDBRANCH  18  22
ENDBRANCH   1  18
TORSDOF 4
