REMARK  Name = ZINCqH0000003Foa.0
REMARK                            x       y       z     vdW  Elec       q    Type
REMARK                         _______ _______ _______ _____ _____    ______ ____
ROOT
ATOM      1  C   LIG    1       -2.525   3.864   0.046  0.00  0.00    +0.570 C 
ATOM      2  N   LIG    1       -3.678   3.174   0.156  0.00  0.00    -0.610 N 
ATOM      3  C   LIG    1       -3.673   1.707   0.261  0.00  0.00    +0.310 C 
ATOM      4  C   LIG    1       -4.230   1.300   1.630  0.00  0.00    +0.100 C 
ATOM      5  C   LIG    1       -5.480   2.100   1.910  0.00  0.00    +0.080 A 
ATOM      6  C   LIG    1       -5.809   3.241   1.267  0.00  0.00    -0.190 A 
ATOM      7  C   LIG    1       -7.066   3.699   1.821  0.00  0.00    -0.090 A 
ATOM      8  C   LIG    1       -7.874   4.807   1.551  0.00  0.00    +0.060 A 
ATOM      9  C   LIG    1       -9.026   4.930   2.289  0.00  0.00    -0.030 A 
ATOM     10  C   LIG    1       -9.381   4.005   3.257  0.00  0.00    +0.020 A 
ATOM     11  C   LIG    1       -8.599   2.899   3.545  0.00  0.00    +0.000 A 
ATOM     12  C   LIG    1       -7.425   2.749   2.811  0.00  0.00    +0.100 A 
ATOM     13  N   LIG    1       -6.446   1.798   2.836  0.00  0.00    -0.580 N 
ATOM     14  H   LIG    1       -6.435   1.024   3.420  0.00  0.00    +0.420 HD
ATOM     15  C   LIG    1       -4.977   3.868   0.180  0.00  0.00    +0.360 C 
ATOM     16  O   LIG    1       -1.467   3.271  -0.034  0.00  0.00    -0.530 OA
ENDROOT
BRANCH   1  19
ATOM     17  C   LIG    1       -1.663   7.447   0.771  0.00  0.00    +0.100 A 
ATOM     18  C   LIG    1       -1.637   6.066   0.796  0.00  0.00    +0.020 A 
ATOM     19  C   LIG    1       -2.548   5.340   0.024  0.00  0.00    -0.130 A 
ATOM     20  C   LIG    1       -3.485   6.013  -0.763  0.00  0.00    +0.050 A 
ATOM     21  C   LIG    1       -3.502   7.391  -0.787  0.00  0.00    -0.040 A 
ATOM     22  C   LIG    1       -2.596   8.113  -0.021  0.00  0.00    +0.120 A 
BRANCH  22  23
ATOM     23  O   LIG    1       -2.621   9.470  -0.044  0.00  0.00    -0.300 OA
ATOM     24  C   LIG    1       -3.603  10.088  -0.878  0.00  0.00    +0.240 C 
ENDBRANCH  22  23
BRANCH  17  25
ATOM     25  O   LIG    1       -0.777   8.156   1.521  0.00  0.00    -0.300 OA
BRANCH  25  27
ATOM     26  C   LIG    1        1.059   8.372   3.077  0.00  0.00    +0.070 C 
ATOM     27  C   LIG    1        0.151   7.409   2.309  0.00  0.00    +0.170 C 
ENDBRANCH  25  27
ENDBRANCH  17  25
ENDBRANCH   1  19
TORSDOF 4
