REMARK  Name = ZINCqH0000004GxL.0
REMARK                            x       y       z     vdW  Elec       q    Type
REMARK                         _______ _______ _______ _____ _____    ______ ____
ROOT
ATOM      1  C   LIG    1        5.092  -4.221   1.339  0.00  0.00    +0.190 C 
ATOM      2  C   LIG    1        5.153  -3.258   0.143  0.00  0.00    +0.300 C 
ATOM      3  N   LIG    1        3.863  -2.555   0.054  0.00  0.00    -0.630 N 
ATOM      4  C   LIG    1        2.633  -3.364   0.064  0.00  0.00    +0.240 C 
ATOM      5  C   LIG    1        2.695  -4.323   1.258  0.00  0.00    +0.220 C 
ATOM      6  C   LIG    1        3.809  -1.212  -0.041  0.00  0.00    +0.710 C 
ATOM      7  N   LIG    1        2.618  -0.583  -0.026  0.00  0.00    -0.650 N 
ATOM      8  H   LIG    1        1.796  -1.099  -0.024  0.00  0.00    +0.400 HD
ATOM      9  O   LIG    1        4.836  -0.568  -0.139  0.00  0.00    -0.580 OA
ATOM     10  O   LIG    1        3.929  -5.044   1.219  0.00  0.00    -0.370 OA
ENDROOT
BRANCH   1  14
ATOM     11  C   LIG    1        8.584  -6.682   1.366  0.00  0.00    -0.070 A 
ATOM     12  C   LIG    1        8.502  -5.589   2.208  0.00  0.00    +0.000 A 
ATOM     13  C   LIG    1        7.372  -4.792   2.199  0.00  0.00    +0.020 A 
ATOM     14  C   LIG    1        6.324  -5.090   1.349  0.00  0.00    -0.090 A 
ATOM     15  C   LIG    1        6.403  -6.186   0.511  0.00  0.00    +0.040 A 
ATOM     16  C   LIG    1        7.535  -6.980   0.516  0.00  0.00    +0.000 A 
BRANCH  11  18
ATOM     17  C   LIG    1        9.640  -8.674   2.399  0.00  0.00    +0.030 C 
ATOM     18  C   LIG    1        9.815  -7.550   1.376  0.00  0.00    +0.050 C 
ENDBRANCH  11  18
ENDBRANCH   1  14
BRANCH   7  19
ATOM     19  C   LIG    1        2.565   0.825  -0.013  0.00  0.00    +0.010 A 
ATOM     20  C   LIG    1        3.631   1.665  -0.015  0.00  0.00    +0.250 A 
ATOM     21  N   LIG    1        3.151   2.936  -0.001  0.00  0.00    -0.380 N 
ATOM     22  N   LIG    1        1.752   2.868   0.005  0.00  0.00    -0.270 NA
ATOM     23  C   LIG    1        3.955   4.160   0.003  0.00  0.00    +0.370 C 
ATOM     24  C   LIG    1        1.401   1.607   0.002  0.00  0.00    +0.070 A 
BRANCH  24  25
ATOM     25  C   LIG    1       -0.013   1.086   0.008  0.00  0.00    +0.070 C 
ATOM     26  C   LIG    1       -0.731   1.575   1.267  0.00  0.00    +0.030 C 
ATOM     27  C   LIG    1       -0.750   1.597  -1.231  0.00  0.00    +0.030 C 
ENDBRANCH  24  25
ENDBRANCH   7  19
TORSDOF 4
