REMARK  Name = ZINCqH0000008w7z.0
REMARK                            x       y       z     vdW  Elec       q    Type
REMARK                         _______ _______ _______ _____ _____    ______ ____
ROOT
ATOM      1  C   LIG    1        2.117   1.945   1.846  0.00  0.00    +0.090 C 
ATOM      2  C   LIG    1        1.585   1.516   0.477  0.00  0.00    -0.010 C 
ENDROOT
BRANCH   2   3
ATOM      3  C   LIG    1        0.424   0.572   0.662  0.00  0.00    +0.450 C 
ATOM      4  O   LIG    1        0.609  -0.627   0.644  0.00  0.00    -0.450 OA
BRANCH   3   5
ATOM      5  C   LIG    1       -0.883   1.085   0.852  0.00  0.00    -0.270 A 
ATOM      6  C   LIG    1       -1.253   2.412   0.896  0.00  0.00    +0.340 A 
ATOM      7  N   LIG    1       -2.582   2.505   1.093  0.00  0.00    -0.560 N 
ATOM      8  H   LIG    1       -3.073   3.339   1.159  0.00  0.00    +0.420 HD
ATOM      9  C   LIG    1       -3.150   1.250   1.187  0.00  0.00    +0.070 A 
ATOM     10  C   LIG    1       -4.455   0.812   1.384  0.00  0.00    +0.000 A 
ATOM     11  C   LIG    1       -4.727  -0.539   1.435  0.00  0.00    +0.030 A 
ATOM     12  C   LIG    1       -3.709  -1.470   1.292  0.00  0.00    +0.000 A 
ATOM     13  C   LIG    1       -2.410  -1.054   1.096  0.00  0.00    +0.060 A 
ATOM     14  C   LIG    1       -2.123   0.306   1.036  0.00  0.00    -0.050 A 
ENDBRANCH   3   5
ENDBRANCH   2   3
BRANCH   2  15
ATOM     15  S   LIG    1        2.899   0.682  -0.447  0.00  0.00    +0.060 S 
BRANCH  15  16
ATOM     16  C   LIG    1        4.029   2.020  -0.646  0.00  0.00    +0.160 A 
ATOM     17  N   LIG    1        3.865   3.251  -0.212  0.00  0.00    -0.290 NA
ATOM     18  N   LIG    1        4.883   3.968  -0.527  0.00  0.00    -0.250 NA
ATOM     19  C   LIG    1        5.755   3.243  -1.189  0.00  0.00    +0.210 A 
ATOM     20  N   LIG    1        5.233   1.973  -1.286  0.00  0.00    -0.460 N 
ATOM     21  C   LIG    1        5.844   0.813  -1.939  0.00  0.00    +0.350 C 
BRANCH  19  22
ATOM     22  C   LIG    1        7.051   3.704  -1.729  0.00  0.00    +0.030 A 
ATOM     23  C   LIG    1        7.634   4.896  -1.283  0.00  0.00    +0.020 A 
ATOM     24  C   LIG    1        8.847   5.285  -1.810  0.00  0.00    +0.280 A 
ATOM     25  N   LIG    1        9.451   4.556  -2.730  0.00  0.00    -0.480 NA
ATOM     26  C   LIG    1        8.934   3.430  -3.182  0.00  0.00    +0.270 A 
ATOM     27  C   LIG    1        7.728   2.963  -2.706  0.00  0.00    -0.030 A 
ENDBRANCH  19  22
ENDBRANCH  15  16
ENDBRANCH   2  15
TORSDOF 5
