REMARK  Name = ZINCrD000000fnIa.0
REMARK                            x       y       z     vdW  Elec       q    Type
REMARK                         _______ _______ _______ _____ _____    ______ ____
ROOT
ATOM      1  C   LIG    1       -3.011   0.955   1.208  0.00  0.00    +0.360 A 
ATOM      2  N   LIG    1       -4.138   0.292   1.284  0.00  0.00    -0.520 NA
ATOM      3  C   LIG    1       -4.808  -0.096   0.174  0.00  0.00    +0.160 A 
ATOM      4  C   LIG    1       -6.008  -0.807   0.256  0.00  0.00    +0.030 A 
ATOM      5  C   LIG    1       -6.659  -1.182  -0.898  0.00  0.00    +0.070 A 
ATOM      6  C   LIG    1       -6.137  -0.863  -2.145  0.00  0.00    +0.000 A 
ATOM      7  C   LIG    1       -4.956  -0.162  -2.252  0.00  0.00    +0.100 A 
ATOM      8  C   LIG    1       -4.281   0.228  -1.097  0.00  0.00    -0.200 A 
ATOM      9  C   LIG    1       -3.018   0.977  -1.154  0.00  0.00    +0.560 A 
ATOM     10  O   LIG    1       -2.514   1.284  -2.219  0.00  0.00    -0.490 OA
ATOM     11  N   LIG    1       -2.435   1.312   0.020  0.00  0.00    -0.480 N 
ENDROOT
BRANCH  11  12
ATOM     12  C   LIG    1       -1.229   2.027   0.019  0.00  0.00    +0.050 A 
ATOM     13  C   LIG    1       -1.243   3.414   0.033  0.00  0.00    +0.080 A 
ATOM     14  C   LIG    1       -0.053   4.116   0.025  0.00  0.00    +0.020 A 
ATOM     15  C   LIG    1        1.152   3.438   0.010  0.00  0.00    +0.070 A 
ATOM     16  C   LIG    1        1.171   2.056   0.002  0.00  0.00    +0.000 A 
ATOM     17  C   LIG    1       -0.016   1.347   0.009  0.00  0.00    +0.130 A 
ATOM     18  F   LIG    1        0.002  -0.004   0.002  0.00  0.00    -0.130 F 
ENDBRANCH  11  12
BRANCH   1  19
ATOM     19  S   LIG    1       -2.202   1.413   2.705  0.00  0.00    +0.080 S 
BRANCH  19  20
ATOM     20  C   LIG    1       -3.355   0.713   3.912  0.00  0.00    +0.020 C 
ATOM     21  C   LIG    1       -3.366  -0.811   3.782  0.00  0.00    +0.090 C 
BRANCH  20  24
ATOM     22  N   LIG    1       -3.801   1.049   6.322  0.00  0.00    -0.720 N 
ATOM     23  H   LIG    1       -4.716   0.769   6.160  0.00  0.00    +0.410 HD
ATOM     24  C   LIG    1       -2.920   1.096   5.303  0.00  0.00    +0.530 C 
ATOM     25  O   LIG    1       -1.777   1.446   5.506  0.00  0.00    -0.520 OA
BRANCH  22  26
ATOM     26  C   LIG    1       -3.378   1.421   7.674  0.00  0.00    +0.310 C 
BRANCH  26  28
ATOM     27  C   LIG    1       -4.431   0.538   9.692  0.00  0.00    +0.050 C 
ATOM     28  C   LIG    1       -4.543   1.283   8.620  0.00  0.00    -0.060 C 
ENDBRANCH  26  28
ENDBRANCH  22  26
ENDBRANCH  20  24
ENDBRANCH  19  20
ENDBRANCH   1  19
TORSDOF 6
