REMARK  Name = ZINCzw00000009su.1
REMARK                            x       y       z     vdW  Elec       q    Type
REMARK                         _______ _______ _______ _____ _____    ______ ____
ROOT
ATOM      1  C   LIG    1        5.073  -1.766  -2.390  0.00  0.00    +0.090 A 
ATOM      2  C   LIG    1        5.436  -0.583  -1.764  0.00  0.00    -0.010 A 
ATOM      3  C   LIG    1        4.905  -0.264  -0.527  0.00  0.00    +0.120 A 
ATOM      4  C   LIG    1        4.013  -1.122   0.088  0.00  0.00    -0.650 A 
ATOM      5  C   LIG    1        3.650  -2.307  -0.526  0.00  0.00    +0.140 A 
ATOM      6  C   LIG    1        4.173  -2.632  -1.768  0.00  0.00    +0.170 A 
ENDROOT
BRANCH   1  11
ATOM      7  C   LIG    1        7.811  -2.032  -7.228  0.00  0.00    +0.330 C 
ATOM      8  N   LIG    1        7.279  -1.645  -5.915  0.00  0.00    -0.390 N 
ATOM      9  C   LIG    1        5.821  -1.491  -6.004  0.00  0.00    +0.280 C 
ATOM     10  C   LIG    1        5.268  -1.070  -4.641  0.00  0.00    +0.220 C 
ATOM     11  N   LIG    1        5.610  -2.091  -3.640  0.00  0.00    -0.500 N 
ATOM     12  C   LIG    1        7.066  -2.273  -3.558  0.00  0.00    +0.230 C 
ATOM     13  C   LIG    1        7.604  -2.684  -4.930  0.00  0.00    +0.280 C 
ATOM     14  H   LIG    1        7.692  -0.770  -5.630  0.00  0.00    +0.420 HD
ENDBRANCH   1  11
BRANCH   6  15
ATOM     15  N   LIG    1        3.803  -3.829  -2.396  0.00  0.00    -0.660 N 
ATOM     16  H   LIG    1        3.717  -3.865  -3.361  0.00  0.00    +0.420 HD
ATOM     17  C   LIG    1        3.566  -4.931  -1.657  0.00  0.00    +0.520 C 
ATOM     18  O   LIG    1        3.594  -4.867  -0.446  0.00  0.00    -0.500 OA
BRANCH  17  19
ATOM     19  C   LIG    1        3.267  -6.243  -2.336  0.00  0.00    -0.060 C 
ATOM     20  C   LIG    1        2.010  -6.097  -3.195  0.00  0.00    +0.030 C 
ATOM     21  C   LIG    1        1.706  -7.429  -3.884  0.00  0.00    +0.000 C 
ATOM     22  C   LIG    1        2.887  -7.826  -4.772  0.00  0.00    +0.020 C 
ATOM     23  C   LIG    1        4.144  -7.971  -3.912  0.00  0.00    -0.010 C 
ATOM     24  C   LIG    1        3.916  -9.053  -2.854  0.00  0.00    +0.020 C 
ATOM     25  C   LIG    1        2.735  -8.656  -1.966  0.00  0.00    -0.010 C 
ATOM     26  C   LIG    1        1.477  -8.510  -2.826  0.00  0.00    +0.030 C 
ATOM     27  C   LIG    1        4.448  -6.640  -3.223  0.00  0.00    +0.040 C 
ATOM     28  C   LIG    1        3.038  -7.324  -1.277  0.00  0.00    +0.050 C 
ENDBRANCH  17  19
ENDBRANCH   6  15
BRANCH   4  29
ATOM     29  S   LIG    1        3.341  -0.709   1.664  0.00  0.00    +2.690 S 
ATOM     30  O   LIG    1        2.946  -1.934   2.266  0.00  0.00    -0.930 OA
ATOM     31  O   LIG    1        4.259   0.193   2.267  0.00  0.00    -0.940 OA
BRANCH  29  32
ATOM     32  N   LIG    1        1.951   0.149   1.394  0.00  0.00    -1.000 NA
ATOM     33  C   LIG    1        0.652  -0.532   1.270  0.00  0.00    +0.270 C 
ATOM     34  C   LIG    1       -0.034  -0.035  -0.007  0.00  0.00    +0.210 C 
ATOM     35  O   LIG    1       -0.065   1.394   0.001  0.00  0.00    -0.370 OA
ATOM     36  C   LIG    1        1.226   2.008  -0.005  0.00  0.00    +0.210 C 
ATOM     37  C   LIG    1        1.977   1.615   1.272  0.00  0.00    +0.270 C 
ENDBRANCH  29  32
ENDBRANCH   4  29
TORSDOF 5
