REMARK  Name = ZINCtV00001bB36a.0
REMARK                            x       y       z     vdW  Elec       q    Type
REMARK                         _______ _______ _______ _____ _____    ______ ____
ROOT
ATOM      1  N   LIG    1       -1.071  -0.777   0.009  0.00  0.00    -0.630 NA
ATOM      2  C   LIG    1        0.004  -0.009   0.069  0.00  0.00    +0.520 C 
ATOM      3  C   LIG    1        1.387  -0.501   0.194  0.00  0.00    -0.140 A 
ATOM      4  C   LIG    1        1.922  -1.789   0.277  0.00  0.00    +0.090 A 
ATOM      5  C   LIG    1        3.286  -1.960   0.390  0.00  0.00    +0.020 A 
ATOM      6  C   LIG    1        4.127  -0.862   0.421  0.00  0.00    +0.060 A 
ATOM      7  C   LIG    1        3.605   0.418   0.340  0.00  0.00    +0.040 A 
ATOM      8  C   LIG    1        2.247   0.602   0.227  0.00  0.00    -0.080 A 
ATOM      9  C   LIG    1        1.380   1.831   0.119  0.00  0.00    +0.360 C 
ATOM     10  N   LIG    1       -0.005   1.354   0.025  0.00  0.00    -0.510 N 
ENDROOT
BRANCH  10  11
ATOM     11  C   LIG    1       -1.140   2.159  -0.096  0.00  0.00    +0.160 A 
ATOM     12  C   LIG    1       -2.384   1.575  -0.187  0.00  0.00    +0.030 A 
ATOM     13  C   LIG    1       -3.523   2.388  -0.302  0.00  0.00    -0.030 A 
ATOM     14  C   LIG    1       -4.810   1.830  -0.393  0.00  0.00    +0.020 A 
ATOM     15  C   LIG    1       -5.892   2.647  -0.509  0.00  0.00    +0.010 A 
ATOM     16  C   LIG    1       -5.744   4.032  -0.541  0.00  0.00    +0.000 A 
ATOM     17  C   LIG    1       -4.513   4.609  -0.456  0.00  0.00    +0.030 A 
ATOM     18  C   LIG    1       -3.373   3.798  -0.335  0.00  0.00    -0.070 A 
ATOM     19  C   LIG    1       -2.087   4.360  -0.245  0.00  0.00    +0.050 A 
ATOM     20  C   LIG    1       -1.000   3.552  -0.129  0.00  0.00    -0.010 A 
ENDBRANCH  10  11
BRANCH   1  22
ATOM     21  O   LIG    1       -0.256  -2.581  -0.991  0.00  0.00    -0.500 OA
ATOM     22  C   LIG    1       -0.940  -2.108  -0.101  0.00  0.00    +0.550 C 
BRANCH  22  23
ATOM     23  C   LIG    1       -1.626  -3.001   0.860  0.00  0.00    -0.140 A 
ATOM     24  C   LIG    1       -2.405  -2.461   1.884  0.00  0.00    +0.090 A 
ATOM     25  C   LIG    1       -3.047  -3.299   2.772  0.00  0.00    +0.020 A 
ATOM     26  C   LIG    1       -2.909  -4.672   2.657  0.00  0.00    -0.010 A 
ATOM     27  C   LIG    1       -2.133  -5.213   1.645  0.00  0.00    +0.020 A 
ATOM     28 CL   LIG    1       -3.714  -5.719   3.783  0.00  0.00    -0.060 Cl
ATOM     29  C   LIG    1       -1.491  -4.386   0.748  0.00  0.00    +0.090 A 
ENDBRANCH  22  23
ENDBRANCH   1  22
TORSDOF 3
