REMARK  Name = ZINCrH000004ni9k.0
REMARK                            x       y       z     vdW  Elec       q    Type
REMARK                         _______ _______ _______ _____ _____    ______ ____
ROOT
ATOM      1  C   LIG    1       -0.014   1.212   0.009  0.00  0.00    +0.560 C 
ATOM      2  N   LIG    1       -1.191   1.869   0.018  0.00  0.00    -0.630 N 
ATOM      3  H   LIG    1       -1.204   2.839   0.023  0.00  0.00    +0.410 HD
ATOM      4  O   LIG    1        0.002  -0.004   0.002  0.00  0.00    -0.500 OA
ENDROOT
BRANCH   1   9
ATOM      5  C   LIG    1        3.660   2.005  -0.022  0.00  0.00    +0.170 A 
ATOM      6  C   LIG    1        3.634   3.393  -0.014  0.00  0.00    -0.010 A 
ATOM      7  C   LIG    1        2.427   4.067   0.001  0.00  0.00    +0.110 A 
ATOM      8  C   LIG    1        1.240   3.364   0.003  0.00  0.00    +0.040 A 
ATOM      9  C   LIG    1        1.256   1.968   0.001  0.00  0.00    -0.050 A 
ATOM     10  C   LIG    1        2.474   1.290  -0.015  0.00  0.00    -0.010 A 
BRANCH  10  11
ATOM     11  N   LIG    1        2.500  -0.190  -0.023  0.00  0.00    +0.040 N 
ATOM     12  O   LIG    1        2.521  -0.805   1.028  0.00  0.00    -0.130 OA
ATOM     13  O   LIG    1        2.501  -0.793  -1.082  0.00  0.00    -0.130 OA
ENDBRANCH  10  11
BRANCH   5  15
ATOM     14  C   LIG    1        6.033   2.149  -0.043  0.00  0.00    +0.270 C 
ATOM     15  O   LIG    1        4.850   1.348  -0.036  0.00  0.00    -0.310 OA
ENDBRANCH   5  15
ENDBRANCH   1   9
BRANCH   2  16
ATOM     16  C   LIG    1       -2.399   1.150   0.020  0.00  0.00    +0.010 A 
ATOM     17  C   LIG    1       -3.647   1.683   0.034  0.00  0.00    +0.240 A 
ATOM     18  N   LIG    1       -4.535   0.650   0.028  0.00  0.00    -0.330 N 
ATOM     19  N   LIG    1       -3.803  -0.544   0.018  0.00  0.00    -0.250 NA
ATOM     20  C   LIG    1       -2.529  -0.248   0.013  0.00  0.00    +0.300 A 
BRANCH  18  21
ATOM     21  C   LIG    1       -5.928   0.762   0.035  0.00  0.00    +0.390 A 
ATOM     22  N   LIG    1       -6.495   1.851   0.530  0.00  0.00    -0.470 NA
ATOM     23  C   LIG    1       -7.806   1.997   0.557  0.00  0.00    +0.340 A 
ATOM     24  C   LIG    1       -8.640   1.011   0.065  0.00  0.00    -0.090 A 
ATOM     25  C   LIG    1       -8.085  -0.147  -0.463  0.00  0.00    +0.130 A 
ATOM     26 CL   LIG    1      -10.363   1.217   0.107  0.00  0.00    -0.030 Cl
ATOM     27  C   LIG    1       -6.705  -0.269  -0.482  0.00  0.00    -0.080 A 
ATOM     28 CL   LIG    1       -5.956  -1.692  -1.136  0.00  0.00    +0.000 Cl
ENDBRANCH  18  21
ENDBRANCH   2  16
TORSDOF 5
