REMARK  Name = ZINCpe000000SXIh.0
REMARK                            x       y       z     vdW  Elec       q    Type
REMARK                         _______ _______ _______ _____ _____    ______ ____
ROOT
ATOM      1  C   LIG    1        1.989   2.119   1.399  0.00  0.00    +0.530 C 
ATOM      2  N   LIG    1        1.449   3.078   2.178  0.00  0.00    -0.610 N 
ATOM      3  C   LIG    1        0.362   3.933   1.677  0.00  0.00    +0.290 C 
ATOM      4  C   LIG    1       -0.783   3.907   2.702  0.00  0.00    +0.200 C 
ATOM      5  N   LIG    1       -0.259   4.277   4.024  0.00  0.00    -0.470 N 
ATOM      6  C   LIG    1        0.732   3.302   4.497  0.00  0.00    +0.210 C 
ATOM      7  C   LIG    1        1.935   3.300   3.548  0.00  0.00    +0.290 C 
ATOM      8  O   LIG    1        2.887   1.425   1.827  0.00  0.00    -0.520 OA
ENDROOT
BRANCH   1  11
ATOM      9  N   LIG    1        1.217  -0.448  -0.365  0.00  0.00    -0.610 N 
ATOM     10  C   LIG    1        2.128   0.667  -0.649  0.00  0.00    +0.290 C 
ATOM     11  C   LIG    1        1.475   1.908  -0.002  0.00  0.00    +0.000 C 
ATOM     12  C   LIG    1       -0.018   1.509   0.010  0.00  0.00    +0.070 C 
ATOM     13  C   LIG    1        0.002  -0.004   0.002  0.00  0.00    +0.520 C 
ATOM     14  O   LIG    1       -0.940  -0.713   0.285  0.00  0.00    -0.520 OA
BRANCH   9  16
ATOM     15  C   LIG    1        1.408  -2.535   0.894  0.00  0.00    +0.030 C 
ATOM     16  C   LIG    1        1.583  -1.863  -0.469  0.00  0.00    +0.240 C 
ATOM     17  C   LIG    1        0.681  -2.550  -1.496  0.00  0.00    +0.030 C 
ENDBRANCH   9  16
ENDBRANCH   1  11
BRANCH   5  18
ATOM     18  C   LIG    1       -1.291   4.427   4.944  0.00  0.00    +0.320 A 
ATOM     19  C   LIG    1       -2.329   5.310   4.675  0.00  0.00    +0.010 A 
ATOM     20  C   LIG    1       -3.358   5.448   5.610  0.00  0.00    +0.050 A 
ATOM     21  C   LIG    1       -3.293   4.685   6.783  0.00  0.00    +0.000 A 
ATOM     22  C   LIG    1       -2.227   3.832   6.972  0.00  0.00    +0.310 A 
ATOM     23  N   LIG    1       -1.275   3.722   6.065  0.00  0.00    -0.500 NA
BRANCH  20  24
ATOM     24  C   LIG    1       -4.448   6.346   5.376  0.00  0.00    +0.250 C 
ATOM     25  N   LIG    1       -5.313   7.059   5.191  0.00  0.00    -0.390 NA
ENDBRANCH  20  24
ENDBRANCH   5  18
TORSDOF 4
