REMARK  Name = ZINCnE000001QKPD.0
REMARK                            x       y       z     vdW  Elec       q    Type
REMARK                         _______ _______ _______ _____ _____    ______ ____
ROOT
ATOM      1  C   LIG    1        1.638   7.590  -0.950  0.00  0.00    +0.600 C 
ATOM      2  N   LIG    1        1.669   6.411  -0.297  0.00  0.00    -0.700 N 
ATOM      3  H   LIG    1        1.281   6.337   0.589  0.00  0.00    +0.400 HD
ATOM      4  O   LIG    1        2.126   7.683  -2.061  0.00  0.00    -0.520 OA
ENDROOT
BRANCH   1   7
ATOM      5  C   LIG    1        1.453  10.343  -2.229  0.00  0.00    +0.160 C 
ATOM      6  C   LIG    1        0.918  10.001  -0.862  0.00  0.00    +0.150 A 
ATOM      7  C   LIG    1        1.018   8.761  -0.321  0.00  0.00    -0.300 A 
ATOM      8  S   LIG    1        0.261   8.807   1.270  0.00  0.00    +0.160 S 
ATOM      9  C   LIG    1       -0.101  10.464   1.060  0.00  0.00    +0.080 A 
ATOM     10  N   LIG    1        0.317  10.875  -0.094  0.00  0.00    -0.470 NA
BRANCH   9  11
ATOM     11  C   LIG    1       -0.811  11.325   2.073  0.00  0.00    +0.080 C 
ATOM     12  C   LIG    1       -2.080  11.940   1.448  0.00  0.00    +0.040 C 
ATOM     13  C   LIG    1       -2.152  13.362   2.056  0.00  0.00    +0.020 C 
ATOM     14  C   LIG    1       -0.664  13.791   2.101  0.00  0.00    +0.020 C 
ATOM     15  C   LIG    1        0.089  12.502   2.489  0.00  0.00    +0.030 C 
ENDBRANCH   9  11
ENDBRANCH   1   7
BRANCH   2  16
ATOM     16  C   LIG    1        2.289   5.242  -0.925  0.00  0.00    +0.220 C 
ATOM     17  C   LIG    1        2.795   4.197   0.083  0.00  0.00    +0.030 C 
ATOM     18  C   LIG    1        1.396   3.562   0.008  0.00  0.00    -0.030 C 
ATOM     19  C   LIG    1        1.273   4.184  -1.393  0.00  0.00    +0.020 C 
BRANCH  18  20
ATOM     20  C   LIG    1        1.417   2.032  -0.001  0.00  0.00    +0.040 C 
BRANCH  20  21
ATOM     21  C   LIG    1       -0.018   1.503   0.010  0.00  0.00    -0.080 C 
BRANCH  21  22
ATOM     22  C   LIG    1        0.002  -0.004   0.002  0.00  0.00    +0.490 C 
ATOM     23  O   LIG    1       -1.045  -0.628   0.009  0.00  0.00    -0.710 OA
ATOM     24  O   LIG    1        1.066  -0.599  -0.011  0.00  0.00    -0.700 OA
ENDBRANCH  21  22
ENDBRANCH  20  21
ENDBRANCH  18  20
ENDBRANCH   2  16
TORSDOF 6
