REMARK  Name = ZINCrH00000tj1k3.0
REMARK                            x       y       z     vdW  Elec       q    Type
REMARK                         _______ _______ _______ _____ _____    ______ ____
ROOT
ATOM      1  C   LIG    1       -2.160   5.335   2.233  0.00  0.00    +0.550 C 
ATOM      2  N   LIG    1       -2.417   5.347   0.910  0.00  0.00    -0.470 N 
ATOM      3  N   LIG    1       -2.630   6.486   0.136  0.00  0.00    -0.230 NA
ATOM      4  C   LIG    1       -2.857   6.242  -1.108  0.00  0.00    +0.140 C 
ATOM      5  C   LIG    1       -2.820   4.750  -1.345  0.00  0.00    +0.100 C 
ATOM      6  C   LIG    1       -2.518   4.160   0.047  0.00  0.00    +0.260 C 
ATOM      7  O   LIG    1       -1.990   4.281   2.808  0.00  0.00    -0.480 OA
ENDROOT
BRANCH   6   8
ATOM      8  C   LIG    1       -1.215   3.403   0.031  0.00  0.00    -0.070 A 
ATOM      9  C   LIG    1       -1.230   2.043   0.019  0.00  0.00    +0.080 A 
ATOM     10  C   LIG    1       -0.016   1.333   0.009  0.00  0.00    +0.080 A 
ATOM     11  N   LIG    1        0.002  -0.004   0.002  0.00  0.00    -0.420 NA
ATOM     12  C   LIG    1        1.152  -0.639  -0.012  0.00  0.00    +0.260 A 
ATOM     13  C   LIG    1        2.357   0.066  -0.020  0.00  0.00    +0.260 A 
ATOM     14  N   LIG    1        2.365   1.380  -0.013  0.00  0.00    -0.420 NA
ATOM     15  C   LIG    1        1.207   2.050   0.002  0.00  0.00    +0.080 A 
ATOM     16  C   LIG    1        1.182   3.455   0.009  0.00  0.00    +0.060 A 
ATOM     17  C   LIG    1       -0.012   4.108   0.023  0.00  0.00    +0.050 A 
ENDBRANCH   6   8
BRANCH   4  18
ATOM     18  C   LIG    1       -3.115   7.262  -2.142  0.00  0.00    -0.020 A 
ATOM     19  C   LIG    1       -3.343   6.877  -3.465  0.00  0.00    +0.060 A 
ATOM     20  C   LIG    1       -3.588   7.836  -4.426  0.00  0.00    +0.050 A 
ATOM     21  C   LIG    1       -3.597   9.177  -4.084  0.00  0.00    -0.070 A 
ATOM     22  C   LIG    1       -3.366   9.566  -2.775  0.00  0.00    +0.050 A 
ATOM     23 BR   LIG    1       -3.926  10.485  -5.409  0.00  0.00    -0.040 Br
ATOM     24  C   LIG    1       -3.126   8.617  -1.803  0.00  0.00    +0.070 A 
ENDBRANCH   4  18
BRANCH   1  25
ATOM     25  C   LIG    1       -2.084   6.631   2.998  0.00  0.00    +0.240 C 
BRANCH  25  27
ATOM     26  C   LIG    1       -1.710   7.526   5.190  0.00  0.00    +0.220 C 
ATOM     27  O   LIG    1       -1.803   6.358   4.372  0.00  0.00    -0.370 OA
ENDBRANCH  25  27
ENDBRANCH   1  25
TORSDOF 4
