REMARK  Name = ZINCrg00000fSpIe.0
REMARK                            x       y       z     vdW  Elec       q    Type
REMARK                         _______ _______ _______ _____ _____    ______ ____
ROOT
ATOM      1  N   LIG    1       -0.038   3.796   1.216  0.00  0.00    -0.990 NA
ATOM      2  C   LIG    1        1.237   3.066   1.200  0.00  0.00    +0.290 C 
ATOM      3  C   LIG    1        1.238   2.109   0.002  0.00  0.00    +0.280 C 
ATOM      4  N   LIG    1       -0.016   1.344   0.009  0.00  0.00    -0.620 N 
ATOM      5  C   LIG    1       -1.291   2.074   0.019  0.00  0.00    +0.270 C 
ATOM      6  C   LIG    1        0.002  -0.004   0.002  0.00  0.00    +0.520 C 
ATOM      7  O   LIG    1        1.060  -0.596  -0.011  0.00  0.00    -0.510 OA
ATOM      8  C   LIG    1       -1.293   3.031   1.224  0.00  0.00    +0.300 C 
ENDROOT
BRANCH   1   9
ATOM      9  S   LIG    1       -0.061   5.452   1.224  0.00  0.00    +2.730 S 
ATOM     10  O   LIG    1        1.188   5.868   1.758  0.00  0.00    -0.950 OA
ATOM     11  O   LIG    1       -1.311   5.834   1.782  0.00  0.00    -0.940 OA
BRANCH   9  18
ATOM     12  C   LIG    1       -2.658   6.089  -0.886  0.00  0.00    +0.190 C 
ATOM     13  C   LIG    1       -1.209   6.228  -1.276  0.00  0.00    +0.110 A 
ATOM     14  N   LIG    1       -0.746   6.599  -2.435  0.00  0.00    -0.360 NA
ATOM     15  O   LIG    1        0.463   6.616  -2.446  0.00  0.00    +0.100 OA
ATOM     16  C   LIG    1        0.972   6.252  -1.260  0.00  0.00    +0.120 A 
ATOM     17  C   LIG    1        2.431   6.161  -0.894  0.00  0.00    +0.220 C 
ATOM     18  C   LIG    1       -0.084   5.981  -0.457  0.00  0.00    -0.800 A 
ENDBRANCH   9  18
ENDBRANCH   1   9
BRANCH   6  19
ATOM     19  C   LIG    1       -1.293  -0.775   0.010  0.00  0.00    +0.170 C 
BRANCH  19  20
ATOM     20  C   LIG    1       -0.997  -2.253  -0.001  0.00  0.00    +0.060 A 
ATOM     21  C   LIG    1       -1.447  -3.151   0.891  0.00  0.00    +0.140 A 
ATOM     22  N   LIG    1       -0.946  -4.394   0.521  0.00  0.00    -0.420 N 
ATOM     23  C   LIG    1       -0.993  -5.701   0.950  0.00  0.00    +0.220 A 
ATOM     24  C   LIG    1       -0.333  -6.618   0.265  0.00  0.00    +0.010 A 
ATOM     25  S   LIG    1        0.437  -5.750  -1.075  0.00  0.00    +0.160 S 
ATOM     26  C   LIG    1       -0.205  -4.171  -0.598  0.00  0.00    +0.160 A 
ATOM     27  N   LIG    1       -0.245  -2.896  -0.905  0.00  0.00    -0.420 NA
ENDBRANCH  19  20
ENDBRANCH   6  19
TORSDOF 4
