REMARK  Name = ZINCtV00000vwTlC.0
REMARK                            x       y       z     vdW  Elec       q    Type
REMARK                         _______ _______ _______ _____ _____    ______ ____
ROOT
ATOM      1  O   LIG    1        1.616   5.689  -0.870  0.00  0.00    -0.500 OA
ATOM      2  C   LIG    1        2.608   5.089  -0.505  0.00  0.00    +0.560 C 
ATOM      3  N   LIG    1        2.497   3.842  -0.005  0.00  0.00    -0.650 N 
ATOM      4  H   LIG    1        3.280   3.386   0.339  0.00  0.00    +0.420 HD
ENDROOT
BRANCH   3   5
ATOM      5  C   LIG    1        1.250   3.205   0.015  0.00  0.00    +0.150 A 
ATOM      6  C   LIG    1        0.085   3.957   0.042  0.00  0.00    +0.060 A 
ATOM      7  C   LIG    1       -1.146   3.326   0.061  0.00  0.00    -0.030 A 
ATOM      8  C   LIG    1       -1.219   1.944   0.049  0.00  0.00    +0.040 A 
ATOM      9  C   LIG    1       -0.062   1.187   0.028  0.00  0.00    +0.010 A 
ATOM     10 CL   LIG    1       -2.603   4.269   0.094  0.00  0.00    -0.060 Cl
ATOM     11  C   LIG    1        1.175   1.812   0.008  0.00  0.00    +0.080 A 
BRANCH  11  12
ATOM     12  N   LIG    1        2.347   1.047  -0.018  0.00  0.00    -0.470 N 
ATOM     13  C   LIG    1        2.037  -0.405   0.031  0.00  0.00    +0.180 C 
ATOM     14  C   LIG    1        3.325  -1.062  -0.526  0.00  0.00    +0.040 C 
ATOM     15  C   LIG    1        3.759  -0.081  -1.639  0.00  0.00    +0.020 C 
ATOM     16  C   LIG    1        3.090   1.258  -1.280  0.00  0.00    +0.180 C 
ENDBRANCH  11  12
ENDBRANCH   3   5
BRANCH   2  17
ATOM     17  C   LIG    1        3.938   5.728  -0.607  0.00  0.00    -0.130 A 
ATOM     18  C   LIG    1        5.078   5.045  -0.183  0.00  0.00    +0.140 A 
ATOM     19  C   LIG    1        6.316   5.645  -0.286  0.00  0.00    -0.190 A 
ATOM     20  C   LIG    1        6.428   6.925  -0.799  0.00  0.00    +0.170 A 
ATOM     21  C   LIG    1        5.300   7.610  -1.216  0.00  0.00    -0.190 A 
ATOM     22  C   LIG    1        4.057   7.019  -1.123  0.00  0.00    +0.190 A 
BRANCH  21  23
ATOM     23  C   LIG    1        5.431   9.004  -1.774  0.00  0.00    +0.510 C 
ATOM     24  F   LIG    1        6.250   8.978  -2.907  0.00  0.00    -0.170 F 
ATOM     25  F   LIG    1        5.998   9.841  -0.807  0.00  0.00    -0.170 F 
ATOM     26  F   LIG    1        4.165   9.486  -2.124  0.00  0.00    -0.170 F 
ENDBRANCH  21  23
BRANCH  19  27
ATOM     27  C   LIG    1        7.550   4.907   0.167  0.00  0.00    +0.510 C 
ATOM     28  F   LIG    1        8.649   5.326  -0.590  0.00  0.00    -0.170 F 
ATOM     29  F   LIG    1        7.361   3.531  -0.007  0.00  0.00    -0.170 F 
ATOM     30  F   LIG    1        7.785   5.177   1.520  0.00  0.00    -0.170 F 
ENDBRANCH  19  27
ENDBRANCH   2  17
TORSDOF 5
