REMARK  Name = ZINCkj000005jlbt.2
REMARK                            x       y       z     vdW  Elec       q    Type
REMARK                         _______ _______ _______ _____ _____    ______ ____
ROOT
ATOM      1  C   LIG    1        3.144   1.396   1.329  0.00  0.00    +0.050 C 
ATOM      2  C   LIG    1        2.439   1.201  -0.015  0.00  0.00    +0.260 C 
ATOM      3  C   LIG    1        3.295   1.792  -1.140  0.00  0.00    +0.260 C 
ATOM      4  N   LIG    1        3.391   3.247  -0.968  0.00  0.00    -0.390 N 
ATOM      5  C   LIG    1        2.064   3.858  -1.118  0.00  0.00    +0.260 C 
ATOM      6  C   LIG    1        1.148   3.369   0.003  0.00  0.00    +0.310 C 
ATOM      7  C   LIG    1        4.300   3.800  -1.981  0.00  0.00    +0.330 C 
ATOM      8  H   LIG    1        3.752   3.453  -0.048  0.00  0.00    +0.420 HD
ATOM      9  N   LIG    1        1.143   1.898   0.001  0.00  0.00    -0.630 N 
ATOM     10  C   LIG    1       -0.014   1.209   0.009  0.00  0.00    +0.520 C 
ATOM     11  O   LIG    1        0.002  -0.004   0.002  0.00  0.00    -0.500 OA
ENDROOT
BRANCH  10  12
ATOM     12  C   LIG    1       -1.330   1.944   0.019  0.00  0.00    +0.130 C 
BRANCH  12  13
ATOM     13  C   LIG    1       -2.462   0.950   0.019  0.00  0.00    -0.120 A 
ATOM     14  C   LIG    1       -2.992   0.502  -1.177  0.00  0.00    +0.060 A 
ATOM     15  C   LIG    1       -4.028  -0.409  -1.183  0.00  0.00    -0.010 A 
ATOM     16  C   LIG    1       -4.556  -0.878   0.018  0.00  0.00    +0.120 A 
ATOM     17  O   LIG    1       -5.574  -1.754   0.240  0.00  0.00    -0.300 OA
ATOM     18  C   LIG    1       -5.478  -2.261   1.582  0.00  0.00    +0.240 C 
ATOM     19  C   LIG    1       -4.769  -1.110   2.334  0.00  0.00    +0.070 C 
ATOM     20  C   LIG    1       -4.013  -0.422   1.213  0.00  0.00    -0.170 A 
ATOM     21  C   LIG    1       -2.978   0.485   1.216  0.00  0.00    +0.070 A 
ENDBRANCH  12  13
ENDBRANCH  10  12
TORSDOF 2
