REMARK  Name = ZINCkj000005jlbt.1
REMARK                            x       y       z     vdW  Elec       q    Type
REMARK                         _______ _______ _______ _____ _____    ______ ____
ROOT
ATOM      1  C   LIG    1       -0.209   0.988  -2.531  0.00  0.00    +0.090 C 
ATOM      2  C   LIG    1       -0.796   1.591  -1.253  0.00  0.00    +0.230 C 
ATOM      3  C   LIG    1        0.131   1.294  -0.070  0.00  0.00    +0.250 C 
ATOM      4  N   LIG    1       -0.500   1.754   1.173  0.00  0.00    -0.390 N 
ATOM      5  C   LIG    1       -1.723   0.982   1.427  0.00  0.00    +0.260 C 
ATOM      6  C   LIG    1       -2.743   1.264   0.319  0.00  0.00    +0.310 C 
ATOM      7  C   LIG    1        0.435   1.570   2.292  0.00  0.00    +0.330 C 
ATOM      8  H   LIG    1       -0.732   2.732   1.089  0.00  0.00    +0.430 HD
ATOM      9  N   LIG    1       -2.109   0.986  -0.979  0.00  0.00    -0.640 N 
ATOM     10  C   LIG    1       -2.714   0.199  -1.891  0.00  0.00    +0.520 C 
ATOM     11  O   LIG    1       -2.139  -0.089  -2.920  0.00  0.00    -0.490 OA
ENDROOT
BRANCH  10  12
ATOM     12  C   LIG    1       -4.104  -0.322  -1.634  0.00  0.00    +0.120 C 
BRANCH  12  13
ATOM     13  C   LIG    1       -4.546  -1.170  -2.799  0.00  0.00    -0.110 A 
ATOM     14  C   LIG    1       -5.217  -0.593  -3.861  0.00  0.00    +0.060 A 
ATOM     15  C   LIG    1       -5.623  -1.364  -4.931  0.00  0.00    -0.010 A 
ATOM     16  C   LIG    1       -5.372  -2.733  -4.943  0.00  0.00    +0.120 A 
ATOM     17  O   LIG    1       -5.694  -3.672  -5.875  0.00  0.00    -0.300 OA
ATOM     18  C   LIG    1       -4.872  -4.835  -5.681  0.00  0.00    +0.240 C 
ATOM     19  C   LIG    1       -4.555  -4.782  -4.168  0.00  0.00    +0.070 C 
ATOM     20  C   LIG    1       -4.697  -3.302  -3.870  0.00  0.00    -0.170 A 
ATOM     21  C   LIG    1       -4.289  -2.530  -2.806  0.00  0.00    +0.070 A 
ENDBRANCH  12  13
ENDBRANCH  10  12
TORSDOF 2
