REMARK  Name = ZINCpk00000y6wGK.0
REMARK                            x       y       z     vdW  Elec       q    Type
REMARK                         _______ _______ _______ _____ _____    ______ ____
ROOT
ATOM      1  C   LIG    1        2.524   8.577  -2.956  0.00  0.00    +0.270 C 
ATOM      2  C   LIG    1        2.316   8.008  -1.550  0.00  0.00    +0.180 C 
ATOM      3  N   LIG    1        0.887   8.066  -1.210  0.00  0.00    -0.520 NA
ATOM      4  C   LIG    1        0.392   9.449  -1.272  0.00  0.00    +0.170 C 
ATOM      5  C   LIG    1        0.620  10.004  -2.681  0.00  0.00    +0.240 C 
ATOM      6  O   LIG    1        2.010   9.911  -3.006  0.00  0.00    -0.360 OA
ENDROOT
BRANCH   3   7
ATOM      7  C   LIG    1        0.635   7.476   0.111  0.00  0.00    +0.140 C 
ATOM      8  C   LIG    1       -0.880   7.465   0.420  0.00  0.00    +0.070 C 
ATOM      9  C   LIG    1       -1.288   6.054  -0.065  0.00  0.00    +0.280 C 
ATOM     10  N   LIG    1       -0.069   5.242   0.031  0.00  0.00    -0.550 N 
ATOM     11  C   LIG    1        1.027   6.014   0.122  0.00  0.00    +0.530 C 
ATOM     12  O   LIG    1        2.164   5.600   0.200  0.00  0.00    -0.500 OA
BRANCH  10  13
ATOM     13  C   LIG    1       -0.050   3.842   0.023  0.00  0.00    +0.160 A 
ATOM     14  C   LIG    1        1.161   3.163  -0.007  0.00  0.00    -0.010 A 
ATOM     15  C   LIG    1        1.176   1.782  -0.015  0.00  0.00    +0.040 A 
ATOM     16  C   LIG    1       -0.013   1.076   0.008  0.00  0.00    -0.020 A 
ATOM     17  C   LIG    1       -1.220   1.749   0.033  0.00  0.00    +0.040 A 
ATOM     18  C   LIG    1       -1.242   3.130   0.045  0.00  0.00    -0.030 A 
ENDBRANCH  10  13
ENDBRANCH   3   7
BRANCH   1  23
ATOM     19  N   LIG    1        4.644   7.744  -4.114  0.00  0.00    -0.470 N 
ATOM     20  C   LIG    1        5.944   8.127  -4.101  0.00  0.00    +0.380 A 
ATOM     21  N   LIG    1        6.039   9.150  -3.297  0.00  0.00    -0.300 NA
ATOM     22  N   LIG    1        4.881   9.431  -2.813  0.00  0.00    -0.260 NA
ATOM     23  C   LIG    1        3.996   8.593  -3.280  0.00  0.00    +0.170 A 
BRANCH  19  25
ATOM     24  C   LIG    1        3.490   7.168  -6.191  0.00  0.00    +0.040 C 
ATOM     25  C   LIG    1        4.058   6.638  -4.874  0.00  0.00    +0.300 C 
ENDBRANCH  19  25
ENDBRANCH   1  23
TORSDOF 4
