REMARK  Name = ZINCqH00000070n4.0
REMARK                            x       y       z     vdW  Elec       q    Type
REMARK                         _______ _______ _______ _____ _____    ______ ____
ROOT
ATOM      1  C   LIG    1        5.107   7.631  -0.333  0.00  0.00    +0.380 C 
ENDROOT
BRANCH   1   5
ATOM      2  N   LIG    1        8.734   8.015  -0.691  0.00  0.00    -0.310 N 
ATOM      3  C   LIG    1        8.360   9.313  -0.743  0.00  0.00    +0.230 A 
ATOM      4  C   LIG    1        7.012   9.359  -0.623  0.00  0.00    -0.090 A 
ATOM      5  C   LIG    1        6.547   8.046  -0.493  0.00  0.00    +0.060 A 
ATOM      6  N   LIG    1        7.577   7.240  -0.534  0.00  0.00    -0.270 NA
BRANCH   2  10
ATOM      7  C   LIG    1       12.639   6.573  -0.955  0.00  0.00    +0.120 A 
ATOM      8  C   LIG    1       11.582   5.688  -0.798  0.00  0.00    +0.010 A 
ATOM      9  C   LIG    1       10.289   6.165  -0.710  0.00  0.00    +0.070 A 
ATOM     10  C   LIG    1       10.047   7.530  -0.779  0.00  0.00    +0.120 A 
ATOM     11  C   LIG    1       11.105   8.415  -0.942  0.00  0.00    +0.030 A 
ATOM     12  C   LIG    1       12.398   7.937  -1.024  0.00  0.00    -0.040 A 
BRANCH   7  14
ATOM     13  C   LIG    1       14.951   7.070  -1.203  0.00  0.00    +0.240 C 
ATOM     14  O   LIG    1       13.912   6.103  -1.042  0.00  0.00    -0.310 OA
ENDBRANCH   7  14
ENDBRANCH   2  10
ENDBRANCH   1   5
BRANCH   1  15
ATOM     15  N   LIG    1        4.549   7.290  -1.644  0.00  0.00    -0.720 N 
ATOM     16  H   LIG    1        5.102   7.353  -2.438  0.00  0.00    +0.400 HD
ATOM     17  C   LIG    1        3.266   6.888  -1.747  0.00  0.00    +0.550 C 
ATOM     18  O   LIG    1        2.574   6.809  -0.754  0.00  0.00    -0.530 OA
BRANCH  17  19
ATOM     19  C   LIG    1        2.692   6.537  -3.095  0.00  0.00    -0.070 C 
ATOM     20  C   LIG    1        1.696   5.377  -3.159  0.00  0.00    +0.040 C 
ATOM     21  C   LIG    1        1.206   6.817  -3.325  0.00  0.00    -0.080 C 
ATOM     22  C   LIG    1        0.778   7.261  -4.725  0.00  0.00    +0.080 C 
ATOM     23  C   LIG    1        0.416   7.432  -2.168  0.00  0.00    +0.080 C 
BRANCH  20  24
ATOM     24  C   LIG    1        1.365   4.674  -1.868  0.00  0.00    +0.000 C 
ATOM     25  C   LIG    1        0.654   3.573  -1.886  0.00  0.00    -0.130 C 
ATOM     26  C   LIG    1        0.322   2.870  -0.595  0.00  0.00    +0.060 C 
ATOM     27  C   LIG    1        0.168   3.011  -3.197  0.00  0.00    +0.060 C 
ENDBRANCH  20  24
ENDBRANCH  17  19
ENDBRANCH   1  15
TORSDOF 6
