REMARK  Name = ZINCqH0000051uPU.0
REMARK                            x       y       z     vdW  Elec       q    Type
REMARK                         _______ _______ _______ _____ _____    ______ ____
ROOT
ATOM      1  O   LIG    1       -1.356  -0.912  -0.098  0.00  0.00    -0.510 OA
ATOM      2  C   LIG    1       -2.416  -0.315  -0.090  0.00  0.00    +0.580 C 
ATOM      3  N   LIG    1       -2.432   1.028   0.019  0.00  0.00    -0.650 N 
ATOM      4  H   LIG    1       -3.277   1.498   0.103  0.00  0.00    +0.420 HD
ENDROOT
BRANCH   2   5
ATOM      5  C   LIG    1       -3.687  -1.064  -0.199  0.00  0.00    +0.050 A 
ATOM      6  C   LIG    1       -3.660  -2.454  -0.312  0.00  0.00    +0.060 A 
ATOM      7  C   LIG    1       -4.853  -3.145  -0.413  0.00  0.00    +0.060 A 
ATOM      8  C   LIG    1       -6.046  -2.417  -0.398  0.00  0.00    -0.010 A 
ATOM      9  C   LIG    1       -5.992  -1.025  -0.283  0.00  0.00    +0.260 A 
ATOM     10  N   LIG    1       -4.840  -0.404  -0.183  0.00  0.00    -0.450 NA
BRANCH   8  11
ATOM     11  C   LIG    1       -7.351  -3.113  -0.504  0.00  0.00    -0.220 A 
ATOM     12  C   LIG    1       -8.583  -2.522  -0.502  0.00  0.00    +0.280 A 
ATOM     13  N   LIG    1       -9.503  -3.500  -0.616  0.00  0.00    -0.470 N 
ATOM     14  H   LIG    1      -10.465  -3.375  -0.641  0.00  0.00    +0.450 HD
ATOM     15  N   LIG    1       -8.833  -4.727  -0.690  0.00  0.00    -0.290 NA
ATOM     16  C   LIG    1       -7.547  -4.503  -0.630  0.00  0.00    +0.260 A 
ENDBRANCH   8  11
ENDBRANCH   2   5
BRANCH   3  17
ATOM     17  C   LIG    1       -1.231   1.745   0.012  0.00  0.00    +0.100 A 
ATOM     18  C   LIG    1       -1.106   2.916   0.749  0.00  0.00    +0.240 A 
ATOM     19  N   LIG    1        0.024   3.596   0.753  0.00  0.00    -0.460 NA
ATOM     20  C   LIG    1        1.075   3.206   0.062  0.00  0.00    +0.250 A 
ATOM     21  C   LIG    1        1.031   2.045  -0.708  0.00  0.00    -0.070 A 
ATOM     22  C   LIG    1       -0.148   1.297  -0.738  0.00  0.00    +0.080 A 
BRANCH  21  23
ATOM     23  C   LIG    1        2.219   1.610  -1.484  0.00  0.00    -0.050 A 
ATOM     24  C   LIG    1        2.167   0.445  -2.246  0.00  0.00    +0.030 A 
ATOM     25  C   LIG    1        3.273   0.048  -2.970  0.00  0.00    +0.010 A 
ATOM     26  C   LIG    1        4.435   0.799  -2.931  0.00  0.00    +0.010 A 
ATOM     27  C   LIG    1        4.493   1.953  -2.171  0.00  0.00    +0.010 A 
ATOM     28  C   LIG    1        3.391   2.362  -1.448  0.00  0.00    +0.020 A 
ENDBRANCH  21  23
ENDBRANCH   3  17
TORSDOF 4
