REMARK  Name = ZINCnE000001JGnM.1
REMARK                            x       y       z     vdW  Elec       q    Type
REMARK                         _______ _______ _______ _____ _____    ______ ____
ROOT
ATOM      1  N   LIG    1        1.293   3.291   0.006  0.00  0.00    -0.650 NA
ATOM      2  C   LIG    1        2.530   3.825  -0.002  0.00  0.00    +0.470 C 
ATOM      3  O   LIG    1        3.503   3.101  -0.015  0.00  0.00    -0.570 OA
ENDROOT
BRANCH   1   7
ATOM      4  C   LIG    1        1.260  -0.544  -0.013  0.00  0.00    -0.430 A 
ATOM      5  C   LIG    1        0.002  -0.004   0.002  0.00  0.00    +0.210 A 
ATOM      6  N   LIG    1       -0.016   1.304   0.009  0.00  0.00    -0.560 NA
ATOM      7  C   LIG    1        1.133   1.917   0.002  0.00  0.00    +0.350 A 
ATOM      8  C   LIG    1       -1.250  -0.842   0.010  0.00  0.00    +0.140 C 
ATOM      9  S   LIG    1        2.415   0.787  -0.017  0.00  0.00    +0.110 S 
BRANCH   4  10
ATOM     10  C   LIG    1        1.586  -1.968  -0.024  0.00  0.00    +0.560 C 
ATOM     11  O   LIG    1        0.695  -2.796  -0.020  0.00  0.00    -0.540 OA
BRANCH  10  13
ATOM     12  C   LIG    1        3.121  -3.772  -0.048  0.00  0.00    +0.230 C 
ATOM     13  O   LIG    1        2.875  -2.365  -0.038  0.00  0.00    -0.350 OA
ENDBRANCH  10  13
ENDBRANCH   4  10
ENDBRANCH   1   7
BRANCH   2  14
ATOM     14  C   LIG    1        2.705   5.322   0.003  0.00  0.00    +0.110 C 
BRANCH  14  15
ATOM     15  S   LIG    1        4.473   5.725  -0.011  0.00  0.00    -0.190 S 
BRANCH  15  16
ATOM     16  C   LIG    1        4.479   7.539  -0.003  0.00  0.00    +0.110 C 
BRANCH  16  17
ATOM     17  C   LIG    1        5.901   8.037  -0.014  0.00  0.00    -0.070 A 
ATOM     18  C   LIG    1        6.563   8.265   1.179  0.00  0.00    +0.020 A 
ATOM     19  C   LIG    1        7.869   8.716   1.169  0.00  0.00    +0.000 A 
ATOM     20  C   LIG    1        8.510   8.951  -0.033  0.00  0.00    -0.090 A 
ATOM     21  C   LIG    1        7.847   8.728  -1.226  0.00  0.00    +0.000 A 
ATOM     22  C   LIG    1        9.933   9.449  -0.044  0.00  0.00    +0.100 C 
ATOM     23  C   LIG    1        6.543   8.271  -1.216  0.00  0.00    +0.020 A 
ENDBRANCH  16  17
ENDBRANCH  15  16
ENDBRANCH  14  15
ENDBRANCH   2  14
TORSDOF 7
