REMARK  Name = ZINCrD0000071xJr.0
REMARK                            x       y       z     vdW  Elec       q    Type
REMARK                         _______ _______ _______ _____ _____    ______ ____
ROOT
ATOM      1  C   LIG    1        4.784  -0.536  -2.238  0.00  0.00    +0.570 C 
ATOM      2  N   LIG    1        4.198  -0.183  -1.077  0.00  0.00    -0.610 N 
ATOM      3  C   LIG    1        2.833   0.366  -1.054  0.00  0.00    +0.280 C 
ATOM      4  C   LIG    1        2.014  -0.416  -0.021  0.00  0.00    +0.190 C 
ATOM      5  O   LIG    1        2.716  -0.428   1.225  0.00  0.00    -0.370 OA
ATOM      6  C   LIG    1        3.984  -1.086   1.176  0.00  0.00    +0.140 C 
ATOM      7  C   LIG    1        4.611  -1.092   2.572  0.00  0.00    +0.080 C 
ATOM      8  C   LIG    1        4.904  -0.338   0.205  0.00  0.00    +0.250 C 
ATOM      9  O   LIG    1        4.159  -0.468  -3.279  0.00  0.00    -0.520 OA
ENDROOT
BRANCH   1  14
ATOM     10  C   LIG    1        8.416  -0.918  -1.355  0.00  0.00    +0.130 A 
ATOM     11  C   LIG    1        8.816  -1.887  -2.268  0.00  0.00    +0.070 A 
ATOM     12  C   LIG    1        7.910  -2.414  -3.167  0.00  0.00    +0.010 A 
ATOM     13  C   LIG    1        6.593  -1.980  -3.165  0.00  0.00    +0.160 A 
ATOM     14  C   LIG    1        6.183  -1.004  -2.247  0.00  0.00    -0.150 A 
ATOM     15  C   LIG    1        7.106  -0.472  -1.344  0.00  0.00    +0.030 A 
BRANCH  10  17
ATOM     16  C   LIG    1       10.625  -0.209  -0.821  0.00  0.00    +0.510 C 
ATOM     17  N   LIG    1        9.343  -0.389  -0.447  0.00  0.00    -0.680 N 
ATOM     18  H   LIG    1        9.061  -0.151   0.450  0.00  0.00    +0.410 HD
ATOM     19  O   LIG    1       10.997  -0.583  -1.913  0.00  0.00    -0.520 OA
BRANCH  16  21
ATOM     20  C   LIG    1       12.974   0.536  -0.544  0.00  0.00    +0.050 C 
ATOM     21  C   LIG    1       11.598   0.457   0.119  0.00  0.00    +0.060 C 
ENDBRANCH  16  21
ENDBRANCH  10  17
BRANCH  13  22
ATOM     22  O   LIG    1        5.705  -2.498  -4.050  0.00  0.00    -0.490 OA
ATOM     23  H   LIG    1        5.655  -2.015  -4.886  0.00  0.00    +0.400 HD
ENDBRANCH  13  22
ENDBRANCH   1  14
BRANCH   4  24
ATOM     24  C   LIG    1        0.672   0.245   0.164  0.00  0.00    -0.090 A 
ATOM     25  C   LIG    1       -0.443  -0.267  -0.471  0.00  0.00    +0.020 A 
ATOM     26  C   LIG    1       -1.673   0.343  -0.307  0.00  0.00    +0.010 A 
ATOM     27  C   LIG    1       -1.789   1.459   0.501  0.00  0.00    +0.010 A 
ATOM     28  C   LIG    1       -0.673   1.970   1.137  0.00  0.00    +0.000 A 
ATOM     29  C   LIG    1        0.558   1.364   0.968  0.00  0.00    +0.040 A 
ENDBRANCH   4  24
TORSDOF 5
