REMARK  Name = ZINCpk00000xOCoY.0
REMARK                            x       y       z     vdW  Elec       q    Type
REMARK                         _______ _______ _______ _____ _____    ______ ____
ROOT
ATOM      1  C   LIG    1       -1.222   2.184   0.019  0.00  0.00    +0.300 C 
ATOM      2  C   LIG    1       -0.756   3.655   0.000  0.00  0.00    +0.040 C 
ATOM      3  C   LIG    1        0.672   3.557  -0.598  0.00  0.00    +0.040 C 
ATOM      4  C   LIG    1        1.170   2.219   0.003  0.00  0.00    +0.240 C 
ATOM      5  N   LIG    1       -0.016   1.344   0.009  0.00  0.00    -0.610 N 
ATOM      6  C   LIG    1        0.002  -0.004   0.002  0.00  0.00    +0.510 C 
ATOM      7  O   LIG    1       -1.040  -0.625   0.008  0.00  0.00    -0.510 OA
ENDROOT
BRANCH   1  11
ATOM      8  C   LIG    1       -5.046   1.422   3.169  0.00  0.00    +0.350 C 
ATOM      9  N   LIG    1       -3.692   1.588   2.635  0.00  0.00    -0.370 N 
ATOM     10  C   LIG    1       -3.370   1.835   1.348  0.00  0.00    +0.240 A 
ATOM     11  C   LIG    1       -2.022   1.919   1.268  0.00  0.00    -0.240 A 
ATOM     12  C   LIG    1       -1.502   1.709   2.550  0.00  0.00    +0.240 A 
ATOM     13  N   LIG    1       -2.502   1.516   3.371  0.00  0.00    -0.300 NA
ENDBRANCH   1  11
BRANCH   6  14
ATOM     14  C   LIG    1        1.317  -0.740  -0.014  0.00  0.00    +0.360 C 
BRANCH  14  15
ATOM     15  N   LIG    1        1.069  -2.183  -0.019  0.00  0.00    -0.520 N 
ATOM     16  C   LIG    1        0.951  -2.967   1.069  0.00  0.00    +0.690 A 
ATOM     17  N   LIG    1        0.725  -4.239   0.690  0.00  0.00    -0.540 N 
ATOM     18  C   LIG    1        0.702  -4.285  -0.702  0.00  0.00    +0.090 A 
ATOM     19  C   LIG    1        0.518  -5.309  -1.617  0.00  0.00    +0.020 A 
ATOM     20  C   LIG    1        0.551  -5.036  -2.971  0.00  0.00    +0.020 A 
ATOM     21  C   LIG    1        0.767  -3.744  -3.417  0.00  0.00    +0.020 A 
ATOM     22  C   LIG    1        0.952  -2.716  -2.512  0.00  0.00    +0.030 A 
ATOM     23  C   LIG    1        0.539  -5.381   1.589  0.00  0.00    +0.340 C 
ATOM     24  O   LIG    1        1.035  -2.583   2.221  0.00  0.00    -0.550 OA
ATOM     25  C   LIG    1        0.921  -2.981  -1.152  0.00  0.00    +0.100 A 
ENDBRANCH  14  15
ENDBRANCH   6  14
TORSDOF 3
