REMARK  Name = ZINCpe00000MGD0p.2
REMARK                            x       y       z     vdW  Elec       q    Type
REMARK                         _______ _______ _______ _____ _____    ______ ____
ROOT
ATOM      1  N   LIG    1       -0.906   1.725   0.925  0.00  0.00    -0.480 NA
ATOM      2  C   LIG    1       -0.401   1.480  -0.444  0.00  0.00    +0.170 C 
ATOM      3  C   LIG    1       -1.338   2.222  -1.415  0.00  0.00    +0.160 C 
ATOM      4  C   LIG    1       -2.381   2.922  -0.514  0.00  0.00    +0.050 C 
ATOM      5  F   LIG    1       -1.968   1.313  -2.271  0.00  0.00    -0.210 F 
ATOM      6  C   LIG    1       -1.657   3.008   0.853  0.00  0.00    +0.130 C 
ENDROOT
BRANCH   1   7
ATOM      7  C   LIG    1        0.201   1.811   1.887  0.00  0.00    +0.310 C 
BRANCH   7  11
ATOM      8  C   LIG    1        3.827   4.257  -0.458  0.00  0.00    +0.180 C 
ATOM      9  C   LIG    1        2.680   4.089   0.505  0.00  0.00    +0.050 A 
ATOM     10  N   LIG    1        2.026   2.992   0.690  0.00  0.00    -0.470 NA
ATOM     11  C   LIG    1        1.047   3.018   1.572  0.00  0.00    +0.040 A 
ATOM     12  C   LIG    1        0.863   4.203   2.162  0.00  0.00    -0.070 A 
ATOM     13  S   LIG    1        2.057   5.323   1.511  0.00  0.00    +0.130 S 
ENDBRANCH   7  11
ENDBRANCH   1   7
BRANCH   6  14
ATOM     14  C   LIG    1       -2.669   3.111   1.995  0.00  0.00    +0.190 C 
BRANCH  14  15
ATOM     15  N   LIG    1       -3.492   1.894   2.032  0.00  0.00    -0.510 NA
ATOM     16  C   LIG    1       -2.774   0.793   2.687  0.00  0.00    +0.200 C 
BRANCH  15  17
ATOM     17  C   LIG    1       -4.779   2.149   2.691  0.00  0.00    +0.230 C 
BRANCH  17  18
ATOM     18  C   LIG    1       -5.688   0.963   2.495  0.00  0.00    +0.550 C 
ATOM     19  N   LIG    1       -6.931   0.972   3.016  0.00  0.00    -0.590 N 
ATOM     20  C   LIG    1       -7.912  -0.117   2.898  0.00  0.00    +0.280 C 
ATOM     21  C   LIG    1       -9.141   0.410   3.664  0.00  0.00    +0.270 C 
ATOM     22  N   LIG    1       -8.722   1.739   4.132  0.00  0.00    -0.730 N 
ATOM     23  H   LIG    1       -9.266   2.349   4.654  0.00  0.00    +0.440 HD
ATOM     24  C   LIG    1       -7.466   1.972   3.729  0.00  0.00    +0.700 C 
ATOM     25  O   LIG    1       -6.867   2.998   3.984  0.00  0.00    -0.560 OA
ATOM     26  O   LIG    1       -5.301   0.000   1.868  0.00  0.00    -0.470 OA
ENDBRANCH  17  18
ENDBRANCH  15  17
ENDBRANCH  14  15
ENDBRANCH   6  14
TORSDOF 6
