REMARK  Name = ZINCqH0000003MkG.0
REMARK                            x       y       z     vdW  Elec       q    Type
REMARK                         _______ _______ _______ _____ _____    ______ ____
ROOT
ATOM      1  N   LIG    1       -2.436   1.323   0.021  0.00  0.00    -0.730 N 
ATOM      2  H   LIG    1       -2.424   0.353   0.015  0.00  0.00    +0.410 HD
ENDROOT
BRANCH   1   7
ATOM      3  C   LIG    1       -0.053   4.129   0.024  0.00  0.00    +0.150 A 
ATOM      4  C   LIG    1        1.155   3.449   0.009  0.00  0.00    -0.100 A 
ATOM      5  C   LIG    1        1.173   2.066   0.002  0.00  0.00    +0.010 A 
ATOM      6  C   LIG    1       -0.016   1.357   0.009  0.00  0.00    +0.030 A 
ATOM      7  C   LIG    1       -1.232   2.037   0.019  0.00  0.00    +0.240 A 
ATOM      8  C   LIG    1       -1.247   3.424   0.032  0.00  0.00    -0.060 A 
BRANCH   3   9
ATOM      9  O   LIG    1       -0.067   5.489   0.030  0.00  0.00    -0.320 OA
BRANCH   9  11
ATOM     10  C   LIG    1        0.984   7.665   0.031  0.00  0.00    +0.070 C 
ATOM     11  C   LIG    1        1.200   6.151   0.021  0.00  0.00    +0.180 C 
ENDBRANCH   9  11
ENDBRANCH   3   9
BRANCH   6  12
ATOM     12  O   LIG    1        0.002  -0.004   0.002  0.00  0.00    -0.320 OA
BRANCH  12  13
ATOM     13  C   LIG    1        1.284  -0.635  -0.014  0.00  0.00    +0.180 C 
ATOM     14  C   LIG    1        1.104  -2.155  -0.020  0.00  0.00    +0.060 C 
ENDBRANCH  12  13
ENDBRANCH   6  12
ENDBRANCH   1   7
BRANCH   1  15
ATOM     15  C   LIG    1       -3.713   2.040   0.031  0.00  0.00    +0.360 C 
BRANCH  15  16
ATOM     16  C   LIG    1       -4.846   1.047   0.030  0.00  0.00    +0.200 A 
ATOM     17  C   LIG    1       -5.694   0.967   1.119  0.00  0.00    -0.130 A 
ATOM     18  C   LIG    1       -6.739   0.037   1.095  0.00  0.00    +0.510 A 
ATOM     19  N   LIG    1       -6.888  -0.753   0.010  0.00  0.00    -0.420 N 
ATOM     20  C   LIG    1       -7.900  -1.663  -0.028  0.00  0.00    +0.300 A 
ATOM     21  C   LIG    1       -8.069  -2.466  -1.104  0.00  0.00    -0.090 A 
ATOM     22  C   LIG    1       -7.197  -2.368  -2.199  0.00  0.00    +0.140 A 
ATOM     23  C   LIG    1       -6.182  -1.460  -2.170  0.00  0.00    +0.060 A 
ATOM     24 CL   LIG    1       -9.366  -3.619  -1.130  0.00  0.00    -0.020 Cl
ATOM     25  C   LIG    1       -6.023  -0.635  -1.042  0.00  0.00    +0.390 A 
ATOM     26  O   LIG    1       -7.506  -0.059   2.041  0.00  0.00    -0.520 OA
ATOM     27  N   LIG    1       -5.033   0.256  -1.014  0.00  0.00    -0.520 NA
ENDBRANCH  15  16
ENDBRANCH   1  15
TORSDOF 7
