REMARK  Name = ZINCvU0000000Ho4.0
REMARK                            x       y       z     vdW  Elec       q    Type
REMARK                         _______ _______ _______ _____ _____    ______ ____
ROOT
ATOM      1  C   LIG    1        3.351   3.833  -0.940  0.00  0.00    +0.150 A 
ATOM      2  N   LIG    1        4.276   4.695  -0.581  0.00  0.00    -0.290 NA
ATOM      3  N   LIG    1        3.953   5.252   0.531  0.00  0.00    -0.260 NA
ATOM      4  C   LIG    1        2.799   4.786   0.949  0.00  0.00    +0.240 A 
ATOM      5  N   LIG    1        2.379   3.858   0.022  0.00  0.00    -0.410 N 
ENDROOT
BRANCH   5   6
ATOM      6  C   LIG    1        1.199   3.101   0.056  0.00  0.00    +0.090 A 
ATOM      7  C   LIG    1        1.260   1.726   0.243  0.00  0.00    +0.070 A 
ATOM      8  C   LIG    1        0.097   0.983   0.276  0.00  0.00    +0.010 A 
ATOM      9  C   LIG    1       -1.130   1.606   0.117  0.00  0.00    +0.120 A 
ATOM     10  C   LIG    1       -1.193   2.977  -0.065  0.00  0.00    +0.010 A 
ATOM     11  F   LIG    1       -2.266   0.876   0.143  0.00  0.00    -0.130 F 
ATOM     12  C   LIG    1       -0.032   3.724  -0.099  0.00  0.00    +0.080 A 
ENDBRANCH   5   6
BRANCH   4  13
ATOM     13  C   LIG    1        2.087   5.181   2.183  0.00  0.00    -0.030 A 
ATOM     14  C   LIG    1        2.423   6.367   2.837  0.00  0.00    +0.070 A 
ATOM     15  C   LIG    1        1.751   6.732   3.985  0.00  0.00    +0.010 A 
ATOM     16  C   LIG    1        0.753   5.920   4.495  0.00  0.00    +0.030 A 
ATOM     17  C   LIG    1        0.419   4.740   3.854  0.00  0.00    +0.010 A 
ATOM     18  C   LIG    1        1.080   4.366   2.702  0.00  0.00    +0.020 A 
ENDBRANCH   4  13
BRANCH   1  19
ATOM     19  S   LIG    1        3.360   2.834  -2.391  0.00  0.00    +0.100 S 
BRANCH  19  20
ATOM     20  C   LIG    1        4.927   3.361  -3.126  0.00  0.00    +0.110 C 
BRANCH  20  23
ATOM     21  N   LIG    1        6.264   2.848  -5.143  0.00  0.00    -0.720 N 
ATOM     22  H   LIG    1        6.919   3.494  -4.835  0.00  0.00    +0.400 HD
ATOM     23  C   LIG    1        5.153   2.616  -4.417  0.00  0.00    +0.540 C 
ATOM     24  O   LIG    1        4.334   1.808  -4.802  0.00  0.00    -0.520 OA
BRANCH  21  26
ATOM     25  C   LIG    1        7.137   0.772  -6.099  0.00  0.00    +0.040 C 
ATOM     26  C   LIG    1        6.483   2.123  -6.398  0.00  0.00    +0.290 C 
BRANCH  26  27
ATOM     27  C   LIG    1        7.387   2.932  -7.293  0.00  0.00    -0.100 A 
ATOM     28  C   LIG    1        8.461   3.615  -6.755  0.00  0.00    +0.000 A 
ATOM     29  C   LIG    1        9.293   4.353  -7.577  0.00  0.00    +0.020 A 
ATOM     30  C   LIG    1        9.044   4.415  -8.935  0.00  0.00    +0.000 A 
ATOM     31  C   LIG    1        7.967   3.735  -9.473  0.00  0.00    +0.020 A 
ATOM     32  C   LIG    1        7.138   2.994  -8.651  0.00  0.00    +0.020 A 
ENDBRANCH  26  27
ENDBRANCH  21  26
ENDBRANCH  20  23
ENDBRANCH  19  20
ENDBRANCH   1  19
TORSDOF 7
