REMARK  Name = ZINCqH0000051wZ2.0
REMARK                            x       y       z     vdW  Elec       q    Type
REMARK                         _______ _______ _______ _____ _____    ______ ____
ROOT
ATOM      1  C   LIG    1       -0.729   1.579   1.267  0.00  0.00    +0.230 C 
ENDROOT
BRANCH   1   2
ATOM      2  O   LIG    1       -0.027   1.098   2.443  0.00  0.00    -0.350 OA
BRANCH   2   4
ATOM      3  O   LIG    1       -1.532   2.134   3.704  0.00  0.00    -0.500 OA
ATOM      4  C   LIG    1       -0.532   1.447   3.642  0.00  0.00    +0.510 C 
BRANCH   4   5
ATOM      5  C   LIG    1        0.130   0.994   4.882  0.00  0.00    -0.130 A 
ATOM      6  C   LIG    1       -0.391   1.360   6.113  0.00  0.00    +0.120 A 
ATOM      7  C   LIG    1        0.239   0.921   7.287  0.00  0.00    -0.070 A 
ATOM      8  C   LIG    1       -0.262   1.268   8.554  0.00  0.00    +0.040 A 
ATOM      9  C   LIG    1        0.377   0.831   9.674  0.00  0.00    +0.010 A 
ATOM     10  C   LIG    1        1.523   0.044   9.584  0.00  0.00    +0.030 A 
ATOM     11  C   LIG    1        2.037  -0.311   8.374  0.00  0.00    +0.020 A 
ATOM     12  C   LIG    1        1.406   0.120   7.195  0.00  0.00    -0.030 A 
ATOM     13  C   LIG    1        1.914  -0.230   5.930  0.00  0.00    +0.030 A 
ATOM     14  C   LIG    1        1.288   0.198   4.805  0.00  0.00    +0.070 A 
ENDBRANCH   4   5
ENDBRANCH   2   4
ENDBRANCH   1   2
BRANCH   1  15
ATOM     15  C   LIG    1       -0.013   1.086   0.008  0.00  0.00    +0.020 C 
BRANCH  15  16
ATOM     16  C   LIG    1       -0.753   1.593  -1.232  0.00  0.00    +0.340 C 
BRANCH  16  17
ATOM     17  N   LIG    1       -0.067   1.120  -2.437  0.00  0.00    -0.540 N 
ATOM     18  C   LIG    1       -0.317  -0.034  -3.084  0.00  0.00    +0.680 A 
ATOM     19  N   LIG    1        0.501  -0.142  -4.149  0.00  0.00    -0.640 N 
ATOM     20  H   LIG    1        0.520  -0.881  -4.777  0.00  0.00    +0.440 HD
ATOM     21  C   LIG    1        1.315   0.987  -4.194  0.00  0.00    +0.090 A 
ATOM     22  C   LIG    1        2.320   1.401  -5.054  0.00  0.00    +0.030 A 
ATOM     23  C   LIG    1        2.950   2.612  -4.843  0.00  0.00    +0.020 A 
ATOM     24  C   LIG    1        2.592   3.407  -3.768  0.00  0.00    +0.020 A 
ATOM     25  C   LIG    1        1.595   3.000  -2.902  0.00  0.00    +0.030 A 
ATOM     26  O   LIG    1       -1.154  -0.854  -2.757  0.00  0.00    -0.550 OA
ATOM     27  C   LIG    1        0.950   1.791  -3.112  0.00  0.00    +0.090 A 
ENDBRANCH  16  17
ENDBRANCH  15  16
ENDBRANCH   1  15
TORSDOF 6
