REMARK  Name = ZINCkj000005h9XZ.0
REMARK                            x       y       z     vdW  Elec       q    Type
REMARK                         _______ _______ _______ _____ _____    ______ ____
ROOT
ATOM      1  C   LIG    1        0.976   1.814  -2.935  0.00  0.00    +0.520 C 
ATOM      2  N   LIG    1       -0.067   1.120  -2.437  0.00  0.00    -0.740 N 
ATOM      3  H   LIG    1       -0.363   0.308  -2.877  0.00  0.00    +0.400 HD
ATOM      4  O   LIG    1        1.347   2.829  -2.385  0.00  0.00    -0.530 OA
ENDROOT
BRANCH   2   5
ATOM      5  C   LIG    1       -0.753   1.593  -1.232  0.00  0.00    +0.250 C 
ATOM      6  C   LIG    1       -0.013   1.086   0.008  0.00  0.00    +0.020 C 
ATOM      7  C   LIG    1       -0.729   1.579   1.267  0.00  0.00    +0.060 C 
ATOM      8  C   LIG    1       -2.164   1.050   1.278  0.00  0.00    +0.040 C 
ATOM      9  C   LIG    1       -2.904   1.556   0.038  0.00  0.00    +0.170 C 
ATOM     10  C   LIG    1       -2.188   1.063  -1.221  0.00  0.00    +0.040 C 
BRANCH   9  11
ATOM     11  N   LIG    1       -4.282   1.048   0.049  0.00  0.00    -0.380 N 
ATOM     12  C   LIG    1       -4.993   1.535  -1.141  0.00  0.00    +0.320 C 
ATOM     13  C   LIG    1       -4.970   1.522   1.257  0.00  0.00    +0.330 C 
ATOM     14  H   LIG    1       -4.269   0.039   0.043  0.00  0.00    +0.420 HD
ENDBRANCH   9  11
ENDBRANCH   2   5
BRANCH   1  15
ATOM     15  C   LIG    1        1.681   1.328  -4.175  0.00  0.00    +0.060 C 
BRANCH  15  16
ATOM     16  C   LIG    1        2.819   2.289  -4.524  0.00  0.00    +0.140 C 
BRANCH  16  20
ATOM     17  C   LIG    1        6.010  -0.066  -7.589  0.00  0.00    +0.360 C 
ATOM     18  N   LIG    1        4.917   0.775  -7.093  0.00  0.00    -0.370 N 
ATOM     19  C   LIG    1        4.586   0.965  -5.799  0.00  0.00    +0.230 A 
ATOM     20  C   LIG    1        3.524   1.803  -5.764  0.00  0.00    -0.250 A 
ATOM     21  C   LIG    1        3.201   2.144  -7.081  0.00  0.00    +0.230 A 
ATOM     22  N   LIG    1        4.035   1.528  -7.879  0.00  0.00    -0.290 NA
ENDBRANCH  16  20
ENDBRANCH  15  16
ENDBRANCH   1  15
TORSDOF 5
