REMARK  Name = ZINCrH000004uxbh.0
REMARK                            x       y       z     vdW  Elec       q    Type
REMARK                         _______ _______ _______ _____ _____    ______ ____
ROOT
ATOM      1  O   LIG    1        0.669   5.287  -0.080  0.00  0.00    -0.520 OA
ATOM      2  C   LIG    1       -0.023   5.067  -1.051  0.00  0.00    +0.530 C 
ATOM      3  N   LIG    1        0.108   3.906  -1.724  0.00  0.00    -0.720 N 
ATOM      4  H   LIG    1       -0.446   3.730  -2.500  0.00  0.00    +0.410 HD
ENDROOT
BRANCH   2   5
ATOM      5  C   LIG    1       -1.031   6.091  -1.506  0.00  0.00    +0.090 C 
BRANCH   5   6
ATOM      6  C   LIG    1       -0.979   7.288  -0.591  0.00  0.00    -0.070 A 
ATOM      7  C   LIG    1       -1.110   7.120   0.775  0.00  0.00    +0.040 A 
ATOM      8  C   LIG    1       -1.058   8.217   1.614  0.00  0.00    +0.000 A 
ATOM      9  C   LIG    1       -0.884   9.483   1.086  0.00  0.00    +0.000 A 
ATOM     10  C   LIG    1       -0.758   9.651  -0.280  0.00  0.00    +0.000 A 
ATOM     11  C   LIG    1       -0.806   8.553  -1.119  0.00  0.00    +0.010 A 
ENDBRANCH   5   6
BRANCH   5  12
ATOM     12  C   LIG    1       -2.412   5.488  -1.466  0.00  0.00    -0.080 A 
ATOM     13  C   LIG    1       -2.857   4.853  -0.322  0.00  0.00    +0.010 A 
ATOM     14  C   LIG    1       -4.125   4.305  -0.284  0.00  0.00    +0.010 A 
ATOM     15  C   LIG    1       -4.945   4.383  -1.394  0.00  0.00    +0.010 A 
ATOM     16  C   LIG    1       -4.499   5.013  -2.540  0.00  0.00    +0.000 A 
ATOM     17  C   LIG    1       -3.232   5.566  -2.576  0.00  0.00    +0.010 A 
ENDBRANCH   5  12
ENDBRANCH   2   5
BRANCH   3  18
ATOM     18  C   LIG    1        1.088   2.911  -1.282  0.00  0.00    +0.310 C 
BRANCH  18  19
ATOM     19  C   LIG    1        1.035   1.696  -2.210  0.00  0.00    +0.130 C 
ATOM     20  C   LIG    1        2.039   0.637  -1.734  0.00  0.00    +0.240 C 
ATOM     21  O   LIG    1        1.954  -0.488  -2.615  0.00  0.00    -0.300 OA
ATOM     22  C   LIG    1        0.704  -0.931  -2.924  0.00  0.00    +0.050 A 
ATOM     23  C   LIG    1        0.545  -2.199  -3.462  0.00  0.00    +0.030 A 
ATOM     24  C   LIG    1       -0.718  -2.660  -3.784  0.00  0.00    +0.020 A 
ATOM     25  C   LIG    1       -1.824  -1.860  -3.571  0.00  0.00    +0.020 A 
ATOM     26  C   LIG    1       -1.672  -0.596  -3.033  0.00  0.00    +0.020 A 
ATOM     27  C   LIG    1       -0.409  -0.127  -2.707  0.00  0.00    +0.050 A 
ATOM     28  O   LIG    1       -0.275   1.119  -2.176  0.00  0.00    -0.300 OA
ENDBRANCH  18  19
ENDBRANCH   3  18
TORSDOF 5
