REMARK  Name = ZINCtV00000nDN8r.0
REMARK                            x       y       z     vdW  Elec       q    Type
REMARK                         _______ _______ _______ _____ _____    ______ ____
ROOT
ATOM      1  O   LIG    1        0.063  -0.184   2.106  0.00  0.00    -0.540 OA
ATOM      2  C   LIG    1       -0.155   0.984   2.364  0.00  0.00    +0.700 C 
ATOM      3  N   LIG    1       -0.195   1.898   1.374  0.00  0.00    -0.620 N 
ATOM      4  C   LIG    1       -0.339   3.328   1.680  0.00  0.00    +0.270 C 
ATOM      5  C   LIG    1       -1.527   3.887   0.890  0.00  0.00    +0.010 C 
ATOM      6  C   LIG    1       -1.336   3.578  -0.597  0.00  0.00    +0.020 C 
ATOM      7  C   LIG    1       -1.289   2.062  -0.802  0.00  0.00    +0.020 C 
ATOM      8  C   LIG    1       -0.099   1.483  -0.032  0.00  0.00    +0.290 C 
ATOM      9  N   LIG    1       -0.358   1.365   3.641  0.00  0.00    -0.680 N 
ATOM     10  H   LIG    1       -0.608   2.281   3.841  0.00  0.00    +0.410 HD
ENDROOT
BRANCH   8  11
ATOM     11  C   LIG    1       -0.126  -0.022  -0.117  0.00  0.00    -0.070 A 
ATOM     12  C   LIG    1       -1.200  -0.724   0.396  0.00  0.00    +0.100 A 
ATOM     13  C   LIG    1       -1.226  -2.104   0.314  0.00  0.00    +0.000 A 
ATOM     14  C   LIG    1       -0.175  -2.782  -0.273  0.00  0.00    +0.070 A 
ATOM     15  C   LIG    1        0.902  -2.079  -0.783  0.00  0.00    -0.190 A 
ATOM     16  C   LIG    1        0.926  -0.700  -0.704  0.00  0.00    +0.070 A 
BRANCH  15  17
ATOM     17  C   LIG    1        2.049  -2.818  -1.423  0.00  0.00    +0.510 C 
ATOM     18  F   LIG    1        2.627  -2.015  -2.412  0.00  0.00    -0.180 F 
ATOM     19  F   LIG    1        1.576  -4.002  -2.001  0.00  0.00    -0.180 F 
ATOM     20  F   LIG    1        3.007  -3.124  -0.451  0.00  0.00    -0.180 F 
ENDBRANCH  15  17
ENDBRANCH   8  11
BRANCH   9  21
ATOM     21  C   LIG    1       -0.209   0.439   4.680  0.00  0.00    +0.170 A 
ATOM     22  C   LIG    1       -0.907   0.607   5.868  0.00  0.00    +0.010 A 
ATOM     23  C   LIG    1       -0.762  -0.312   6.889  0.00  0.00    +0.040 A 
ATOM     24  C   LIG    1        0.087  -1.392   6.733  0.00  0.00    +0.050 A 
ATOM     25  C   LIG    1        0.788  -1.560   5.553  0.00  0.00    -0.160 A 
ATOM     26  C   LIG    1        0.643  -0.648   4.526  0.00  0.00    +0.080 A 
BRANCH  25  27
ATOM     27  C   LIG    1        1.712  -2.739   5.387  0.00  0.00    +0.510 C 
ATOM     28  F   LIG    1        1.764  -3.104   4.037  0.00  0.00    -0.170 F 
ATOM     29  F   LIG    1        1.234  -3.815   6.143  0.00  0.00    -0.180 F 
ATOM     30  F   LIG    1        2.994  -2.392   5.827  0.00  0.00    -0.180 F 
ENDBRANCH  25  27
ENDBRANCH   9  21
TORSDOF 4
