REMARK  Name = ZINCpe00000MJJLl.0
REMARK                            x       y       z     vdW  Elec       q    Type
REMARK                         _______ _______ _______ _____ _____    ______ ____
ROOT
ATOM      1  C   LIG    1        0.101  -3.001   0.152  0.00  0.00    +0.370 C 
ATOM      2  C   LIG    1        1.080  -3.205  -0.992  0.00  0.00    -0.400 C 
ATOM      3  C   LIG    1        1.441  -4.490  -1.282  0.00  0.00    +0.300 C 
ATOM      4  N   LIG    1        0.963  -5.523  -0.603  0.00  0.00    -0.590 NA
ATOM      5  C   LIG    1        0.110  -5.436   0.402  0.00  0.00    +0.590 A 
ATOM      6  N   LIG    1       -0.461  -6.373   1.182  0.00  0.00    -0.510 NA
ATOM      7  C   LIG    1       -1.251  -5.813   2.061  0.00  0.00    +0.390 A 
ATOM      8  N   LIG    1       -1.230  -4.471   1.893  0.00  0.00    -0.460 N 
ATOM      9  H   LIG    1       -1.722  -3.813   2.409  0.00  0.00    +0.450 HD
ATOM     10  C   LIG    1        2.410  -4.740  -2.408  0.00  0.00    +0.150 C 
ATOM     11  N   LIG    1       -0.359  -4.217   0.830  0.00  0.00    -0.430 N 
ENDROOT
BRANCH   1  17
ATOM     12  C   LIG    1       -0.027  -1.354   2.038  0.00  0.00    +0.130 A 
ATOM     13  C   LIG    1        0.578  -0.531   2.977  0.00  0.00    -0.080 A 
ATOM     14  C   LIG    1        1.956  -0.475   3.059  0.00  0.00    +0.060 A 
ATOM     15  C   LIG    1        2.732  -1.229   2.199  0.00  0.00    -0.020 A 
ATOM     16  C   LIG    1        2.132  -2.046   1.258  0.00  0.00    +0.100 A 
ATOM     17  C   LIG    1        0.755  -2.110   1.176  0.00  0.00    -0.160 A 
BRANCH  12  19
ATOM     18  C   LIG    1       -2.123  -0.695   2.947  0.00  0.00    +0.240 C 
ATOM     19  O   LIG    1       -1.382  -1.415   1.960  0.00  0.00    -0.330 OA
ENDBRANCH  12  19
ENDBRANCH   1  17
BRANCH   2  20
ATOM     20  C   LIG    1        1.593  -2.116  -1.721  0.00  0.00    +0.600 C 
ATOM     21  O   LIG    1        2.333  -2.312  -2.669  0.00  0.00    -0.560 OA
ATOM     22  N   LIG    1        1.267  -0.856  -1.370  0.00  0.00    -0.870 N 
ATOM     23  H   LIG    1        1.674  -0.104  -1.829  0.00  0.00    +0.400 HD
ATOM     24  H   LIG    1        0.626  -0.702  -0.659  0.00  0.00    +0.390 HD
ENDBRANCH   2  20
BRANCH   7  25
ATOM     25  C   LIG    1       -2.058  -6.548   3.099  0.00  0.00    +0.170 C 
BRANCH  25  26
ATOM     26  C   LIG    1       -1.812  -8.053   2.966  0.00  0.00    +0.070 C 
BRANCH  26  27
ATOM     27  C   LIG    1       -2.632  -8.799   4.020  0.00  0.00    +0.180 C 
BRANCH  27  28
ATOM     28  O   LIG    1       -2.401 -10.204   3.896  0.00  0.00    -0.570 OA
ATOM     29  H   LIG    1       -2.890 -10.741   4.535  0.00  0.00    +0.380 HD
ENDBRANCH  27  28
ENDBRANCH  26  27
ENDBRANCH  25  26
ENDBRANCH   7  25
TORSDOF 7
