REMARK  Name = ZINCtV000002K10c.0
REMARK                            x       y       z     vdW  Elec       q    Type
REMARK                         _______ _______ _______ _____ _____    ______ ____
ROOT
ATOM      1  C   LIG    1       -2.708  -0.133  -0.510  0.00  0.00    +0.170 C 
ATOM      2  C   LIG    1       -2.513   1.346  -0.296  0.00  0.00    +0.170 A 
ATOM      3  C   LIG    1       -1.290   1.914  -0.143  0.00  0.00    -0.310 A 
ATOM      4  S   LIG    1       -1.527   3.645   0.085  0.00  0.00    +0.200 S 
ATOM      5  C   LIG    1       -3.219   3.441  -0.054  0.00  0.00    +0.060 A 
ATOM      6  N   LIG    1       -3.509   2.194  -0.242  0.00  0.00    -0.450 NA
ENDROOT
BRANCH   3   7
ATOM      7  C   LIG    1       -0.003   1.212  -0.158  0.00  0.00    +0.610 C 
ATOM      8  N   LIG    1        1.143   1.903   0.001  0.00  0.00    -0.670 N 
ATOM      9  H   LIG    1        1.123   2.871   0.053  0.00  0.00    +0.410 HD
ATOM     10  O   LIG    1        0.031   0.006  -0.320  0.00  0.00    -0.490 OA
BRANCH   8  11
ATOM     11  C   LIG    1        2.363   1.223   0.092  0.00  0.00    +0.150 A 
ATOM     12  C   LIG    1        2.420  -0.026   0.696  0.00  0.00    +0.080 A 
ATOM     13  C   LIG    1        3.625  -0.697   0.779  0.00  0.00    +0.060 A 
ATOM     14  C   LIG    1        4.776  -0.121   0.271  0.00  0.00    -0.010 A 
ATOM     15  C   LIG    1        4.722   1.126  -0.327  0.00  0.00    -0.160 A 
ATOM     16 CL   LIG    1        6.289  -0.964   0.383  0.00  0.00    -0.040 Cl
ATOM     17  C   LIG    1        3.520   1.799  -0.417  0.00  0.00    +0.060 A 
BRANCH  15  18
ATOM     18  C   LIG    1        5.978   1.751  -0.879  0.00  0.00    +0.510 C 
ATOM     19  F   LIG    1        6.513   0.922  -1.871  0.00  0.00    -0.170 F 
ATOM     20  F   LIG    1        6.912   1.909   0.150  0.00  0.00    -0.170 F 
ATOM     21  F   LIG    1        5.674   3.001  -1.429  0.00  0.00    -0.170 F 
ENDBRANCH  15  18
ENDBRANCH   8  11
ENDBRANCH   3   7
BRANCH   5  22
ATOM     22  C   LIG    1       -4.229   4.556   0.035  0.00  0.00    +0.320 C 
BRANCH  22  23
ATOM     23  O   LIG    1       -4.631   4.726   1.396  0.00  0.00    -0.300 OA
BRANCH  23  24
ATOM     24  C   LIG    1       -5.545   5.699   1.653  0.00  0.00    +0.120 A 
ATOM     25  C   LIG    1       -6.041   6.476   0.616  0.00  0.00    -0.040 A 
ATOM     26  C   LIG    1       -6.974   7.461   0.878  0.00  0.00    +0.030 A 
ATOM     27  C   LIG    1       -7.406   7.679   2.175  0.00  0.00    +0.070 A 
ATOM     28  C   LIG    1       -6.908   6.907   3.211  0.00  0.00    +0.040 A 
ATOM     29  F   LIG    1       -8.315   8.646   2.430  0.00  0.00    -0.140 F 
ATOM     30  C   LIG    1       -5.979   5.918   2.952  0.00  0.00    +0.020 A 
ENDBRANCH  23  24
ENDBRANCH  22  23
ENDBRANCH   5  22
TORSDOF 6
