REMARK  Name = ZINCrH000004tLof.0
REMARK                            x       y       z     vdW  Elec       q    Type
REMARK                         _______ _______ _______ _____ _____    ______ ____
ROOT
ATOM      1  O   LIG    1       -2.341   1.654   0.512  0.00  0.00    -0.500 OA
ATOM      2  C   LIG    1       -1.287   2.202   0.270  0.00  0.00    +0.500 C 
ATOM      3  N   LIG    1       -0.136   1.501   0.321  0.00  0.00    -0.710 N 
ATOM      4  H   LIG    1        0.713   1.953   0.196  0.00  0.00    +0.410 HD
ENDROOT
BRANCH   3   5
ATOM      5  C   LIG    1       -0.169   0.056   0.558  0.00  0.00    +0.190 C 
ATOM      6  C   LIG    1        1.147  -0.656   0.204  0.00  0.00    +0.050 C 
ATOM      7  C   LIG    1        0.580  -0.823  -1.219  0.00  0.00    +0.020 C 
ATOM      8  C   LIG    1       -0.819  -0.742  -0.585  0.00  0.00    +0.040 C 
BRANCH   5   9
ATOM      9  C   LIG    1       -0.701  -0.302   1.922  0.00  0.00    -0.060 A 
ATOM     10  C   LIG    1       -0.794   0.667   2.903  0.00  0.00    +0.040 A 
ATOM     11  C   LIG    1       -1.283   0.340   4.154  0.00  0.00    +0.020 A 
ATOM     12  C   LIG    1       -1.678  -0.956   4.425  0.00  0.00    +0.040 A 
ATOM     13  C   LIG    1       -1.584  -1.927   3.443  0.00  0.00    -0.090 A 
ATOM     14 BR   LIG    1       -2.125  -3.701   3.812  0.00  0.00    -0.050 Br
ATOM     15  C   LIG    1       -1.101  -1.597   2.189  0.00  0.00    +0.050 A 
ENDBRANCH   5   9
ENDBRANCH   3   5
BRANCH   2  16
ATOM     16  C   LIG    1       -1.262   3.666  -0.086  0.00  0.00    +0.330 C 
BRANCH  16  17
ATOM     17  N   LIG    1       -2.635   4.169  -0.178  0.00  0.00    -0.540 N 
ATOM     18  C   LIG    1       -3.288   4.580   0.932  0.00  0.00    +0.540 C 
ATOM     19  C   LIG    1       -4.725   5.021   0.833  0.00  0.00    +0.040 C 
ATOM     20  C   LIG    1       -4.808   6.399   0.180  0.00  0.00    +0.260 C 
ATOM     21  O   LIG    1       -3.942   6.468  -0.949  0.00  0.00    -0.330 OA
ATOM     22  C   LIG    1       -3.936   5.403  -1.793  0.00  0.00    +0.080 A 
ATOM     23  C   LIG    1       -4.572   5.476  -3.020  0.00  0.00    +0.030 A 
ATOM     24  C   LIG    1       -4.564   4.382  -3.867  0.00  0.00    +0.020 A 
ATOM     25  C   LIG    1       -3.923   3.216  -3.494  0.00  0.00    +0.030 A 
ATOM     26  C   LIG    1       -3.282   3.136  -2.271  0.00  0.00    +0.020 A 
ATOM     27  O   LIG    1       -2.718   4.596   2.003  0.00  0.00    -0.520 OA
ATOM     28  C   LIG    1       -3.282   4.234  -1.420  0.00  0.00    +0.110 A 
ENDBRANCH  16  17
ENDBRANCH   2  16
TORSDOF 4
