REMARK  Name = ZINCpe000000WBi7.0
REMARK                            x       y       z     vdW  Elec       q    Type
REMARK                         _______ _______ _______ _____ _____    ______ ____
ROOT
ATOM      1  N   LIG    1       -2.618   1.060  -4.049  0.00  0.00    -0.460 N 
ATOM      2  C   LIG    1       -2.806   0.149  -2.911  0.00  0.00    +0.230 C 
ATOM      3  C   LIG    1       -3.234   0.957  -1.681  0.00  0.00    +0.310 C 
ATOM      4  N   LIG    1       -2.253   2.031  -1.463  0.00  0.00    -1.000 NA
ATOM      5  C   LIG    1       -1.914   2.904  -2.596  0.00  0.00    +0.320 C 
ATOM      6  C   LIG    1       -1.534   2.017  -3.792  0.00  0.00    +0.220 C 
ENDROOT
BRANCH   1  11
ATOM      7  C   LIG    1       -1.978   0.369  -7.484  0.00  0.00    +0.390 A 
ATOM      8  C   LIG    1       -1.950  -1.025  -7.474  0.00  0.00    -0.120 A 
ATOM      9  C   LIG    1       -2.154  -1.681  -6.274  0.00  0.00    +0.380 A 
ATOM     10  N   LIG    1       -2.369  -0.971  -5.177  0.00  0.00    -0.570 NA
ATOM     11  C   LIG    1       -2.390   0.353  -5.217  0.00  0.00    +0.530 A 
ATOM     12  N   LIG    1       -2.204   1.017  -6.348  0.00  0.00    -0.590 NA
BRANCH   7  14
ATOM     13  C   LIG    1       -1.827   2.478  -8.563  0.00  0.00    +0.260 C 
ATOM     14  O   LIG    1       -1.782   1.052  -8.638  0.00  0.00    -0.300 OA
ENDBRANCH   7  14
ENDBRANCH   1  11
BRANCH   4  15
ATOM     15  S   LIG    1       -1.553   2.255   0.022  0.00  0.00    +2.680 S 
ATOM     16  O   LIG    1       -0.974   3.552   0.001  0.00  0.00    -0.940 OA
ATOM     17  O   LIG    1       -2.517   1.849   0.984  0.00  0.00    -0.940 OA
BRANCH  15  18
ATOM     18  C   LIG    1       -0.216   1.114   0.146  0.00  0.00    -0.640 A 
ATOM     19  C   LIG    1       -0.276   0.074   1.050  0.00  0.00    +0.140 A 
ATOM     20  C   LIG    1        0.775  -0.820   1.152  0.00  0.00    +0.040 A 
ATOM     21  C   LIG    1        1.893  -0.677   0.350  0.00  0.00    +0.090 A 
ATOM     22  C   LIG    1        1.967   0.359  -0.558  0.00  0.00    +0.050 A 
ATOM     23  C   LIG    1        0.909   1.264  -0.667  0.00  0.00    +0.070 A 
BRANCH  23  24
ATOM     24  C   LIG    1        0.979   2.341  -1.608  0.00  0.00    +0.210 C 
ATOM     25  N   LIG    1        1.034   3.196  -2.354  0.00  0.00    -0.360 NA
ENDBRANCH  23  24
ENDBRANCH  15  18
ENDBRANCH   4  15
TORSDOF 5
