REMARK  Name = ZINCrH00000No4Ud.0
REMARK                            x       y       z     vdW  Elec       q    Type
REMARK                         _______ _______ _______ _____ _____    ______ ____
ROOT
ATOM      1  C   LIG    1        1.186   1.792   0.000  0.00  0.00    -0.110 A 
ATOM      2  C   LIG    1       -0.013   1.076   0.008  0.00  0.00    +0.070 A 
ATOM      3  C   LIG    1       -1.216   1.751   0.017  0.00  0.00    +0.120 A 
ATOM      4  C   LIG    1       -1.236   3.134   0.030  0.00  0.00    -0.650 A 
ATOM      5  C   LIG    1       -0.052   3.850   0.022  0.00  0.00    +0.120 A 
ATOM      6  C   LIG    1        1.158   3.187   0.008  0.00  0.00    +0.040 A 
ENDROOT
BRANCH   4   7
ATOM      7  S   LIG    1       -2.777   3.989   0.049  0.00  0.00    +2.680 S 
ATOM      8  O   LIG    1       -2.517   5.274   0.597  0.00  0.00    -0.950 OA
ATOM      9  O   LIG    1       -3.729   3.088   0.598  0.00  0.00    -0.950 OA
BRANCH   7  10
ATOM     10  N   LIG    1       -3.221   4.234  -1.528  0.00  0.00    -0.990 NA
ATOM     11  C   LIG    1       -2.796   5.449  -2.186  0.00  0.00    +0.280 C 
ATOM     12  C   LIG    1       -3.843   6.561  -1.963  0.00  0.00    +0.010 C 
ATOM     13  C   LIG    1       -5.061   6.277  -2.737  0.00  0.00    +0.000 C 
ATOM     14  C   LIG    1       -5.779   4.993  -2.332  0.00  0.00    +0.010 C 
ATOM     15  C   LIG    1       -5.159   3.824  -3.056  0.00  0.00    +0.020 C 
ATOM     16  C   LIG    1       -4.038   3.205  -2.200  0.00  0.00    +0.280 C 
ENDBRANCH   7  10
ENDBRANCH   4   7
BRANCH   1  17
ATOM     17  C   LIG    1        2.480   1.074  -0.016  0.00  0.00    +0.420 C 
ATOM     18  O   LIG    1        2.501  -0.143  -0.022  0.00  0.00    -0.450 OA
BRANCH  17  20
ATOM     19  C   LIG    1        4.877   1.147  -0.038  0.00  0.00    +0.190 C 
ATOM     20  C   LIG    1        3.693   1.803  -0.024  0.00  0.00    -0.100 C 
BRANCH  19  27
ATOM     21  C   LIG    1        7.495   0.739   1.936  0.00  0.00    +0.170 C 
ATOM     22  C   LIG    1        7.313   1.738   0.823  0.00  0.00    +0.050 A 
ATOM     23  N   LIG    1        8.162   2.638   0.425  0.00  0.00    -0.360 NA
ATOM     24  O   LIG    1        7.743   3.300  -0.491  0.00  0.00    +0.100 OA
ATOM     25  C   LIG    1        6.514   2.946  -0.878  0.00  0.00    +0.000 A 
ATOM     26  C   LIG    1        5.703   3.558  -1.991  0.00  0.00    +0.210 C 
ATOM     27  C   LIG    1        6.135   1.903  -0.046  0.00  0.00    -0.210 A 
ENDBRANCH  19  27
ENDBRANCH  17  20
ENDBRANCH   1  17
TORSDOF 5
