REMARK  Name = ZINCpe000000Y1DI.0
REMARK                            x       y       z     vdW  Elec       q    Type
REMARK                         _______ _______ _______ _____ _____    ______ ____
ROOT
ATOM      1  C   LIG    1        2.898   4.512   1.436  0.00  0.00    +0.060 C 
ENDROOT
BRANCH   1   2
ATOM      2  C   LIG    1        4.171   5.318   1.429  0.00  0.00    +0.520 C 
ATOM      3  N   LIG    1        4.806   5.586   2.587  0.00  0.00    -0.730 N 
ATOM      4  H   LIG    1        4.442   5.261   3.426  0.00  0.00    +0.400 HD
ATOM      5  O   LIG    1        4.625   5.725   0.380  0.00  0.00    -0.530 OA
BRANCH   3   6
ATOM      6  C   LIG    1        6.043   6.370   2.580  0.00  0.00    +0.270 C 
BRANCH   6   7
ATOM      7  C   LIG    1        6.555   6.529   4.013  0.00  0.00    +0.250 C 
BRANCH   7   8
ATOM      8  N   LIG    1        7.793   7.312   4.006  0.00  0.00    -0.710 N 
ATOM      9  H   LIG    1        8.156   7.638   3.168  0.00  0.00    +0.410 HD
BRANCH   8  10
ATOM     10  C   LIG    1        8.447   7.589   5.201  0.00  0.00    +0.360 A 
ATOM     11  C   LIG    1        7.927   7.123   6.406  0.00  0.00    +0.150 A 
ATOM     12  N   LIG    1        8.551   7.388   7.538  0.00  0.00    -0.400 NA
ATOM     13  C   LIG    1        9.669   8.095   7.529  0.00  0.00    +0.150 A 
ATOM     14  C   LIG    1       10.188   8.559   6.335  0.00  0.00    +0.280 A 
ATOM     15  N   LIG    1        9.571   8.294   5.196  0.00  0.00    -0.500 NA
ENDBRANCH   8  10
ENDBRANCH   7   8
ENDBRANCH   6   7
ENDBRANCH   3   6
ENDBRANCH   1   2
BRANCH   1  16
ATOM     16  C   LIG    1        2.387   4.353   0.003  0.00  0.00    +0.130 C 
BRANCH  16  19
ATOM     17  C   LIG    1       -0.131   5.685   0.032  0.00  0.00    +0.150 C 
ATOM     18  C   LIG    1       -0.087   4.178   0.024  0.00  0.00    +0.210 A 
ATOM     19  C   LIG    1        1.113   3.547   0.010  0.00  0.00    -0.210 A 
ATOM     20  C   LIG    1        1.172   2.153   0.002  0.00  0.00    +0.100 A 
ATOM     21  C   LIG    1       -0.017   1.428   0.010  0.00  0.00    -0.180 A 
ATOM     22  C   LIG    1       -1.249   2.133   0.019  0.00  0.00    +0.540 A 
ATOM     23  O   LIG    1       -2.304   1.522   0.021  0.00  0.00    -0.530 OA
ATOM     24  C   LIG    1        2.501   1.442  -0.013  0.00  0.00    +0.120 C 
ATOM     25  N   LIG    1       -1.248   3.480   0.032  0.00  0.00    -0.600 N 
ATOM     26  H   LIG    1       -2.093   3.957   0.042  0.00  0.00    +0.420 HD
BRANCH  21  27
ATOM     27  C   LIG    1        0.002  -0.004   0.002  0.00  0.00    +0.280 C 
ATOM     28  N   LIG    1        0.018  -1.140  -0.004  0.00  0.00    -0.420 NA
ENDBRANCH  21  27
ENDBRANCH  16  19
ENDBRANCH   1  16
TORSDOF 8
