REMARK  Name = ZINCpk00000KfKJF.0
REMARK                            x       y       z     vdW  Elec       q    Type
REMARK                         _______ _______ _______ _____ _____    ______ ____
ROOT
ATOM      1  N   LIG    1       -0.014   1.344   0.023  0.00  0.00    -0.730 N 
ATOM      2  H   LIG    1        0.819   1.840   0.031  0.00  0.00    +0.400 HD
ATOM      3  C   LIG    1        0.004  -0.004   0.001  0.00  0.00    +0.700 C 
ATOM      4  N   LIG    1        1.180  -0.662  -0.010  0.00  0.00    -0.680 N 
ATOM      5  H   LIG    1        2.011  -0.168  -0.084  0.00  0.00    +0.420 HD
ATOM      6  O   LIG    1       -1.041  -0.625  -0.010  0.00  0.00    -0.570 OA
ENDROOT
BRANCH   1  10
ATOM      7  N   LIG    1       -3.004   4.203  -0.662  0.00  0.00    -1.000 NA
ATOM      8  C   LIG    1       -2.447   4.171   0.697  0.00  0.00    +0.300 C 
ATOM      9  C   LIG    1       -1.102   3.439   0.661  0.00  0.00    +0.010 C 
ATOM     10  C   LIG    1       -1.292   2.059   0.028  0.00  0.00    +0.260 C 
ATOM     11  C   LIG    1       -1.793   2.221  -1.409  0.00  0.00    +0.000 C 
ATOM     12  C   LIG    1       -3.146   2.939  -1.397  0.00  0.00    +0.300 C 
BRANCH   7  13
ATOM     13  S   LIG    1       -3.463   5.636  -1.353  0.00  0.00    +2.610 S 
ATOM     14  O   LIG    1       -3.775   6.474  -0.248  0.00  0.00    -0.950 OA
ATOM     15  O   LIG    1       -4.459   5.268  -2.297  0.00  0.00    -0.950 OA
BRANCH  13  17
ATOM     16  C   LIG    1       -2.271   7.563  -2.885  0.00  0.00    +0.070 C 
ATOM     17  C   LIG    1       -1.972   6.229  -2.200  0.00  0.00    -0.370 C 
ENDBRANCH  13  17
ENDBRANCH   7  13
ENDBRANCH   1  10
BRANCH   4  18
ATOM     18  C   LIG    1        1.201  -2.051   0.086  0.00  0.00    +0.240 A 
ATOM     19  C   LIG    1        0.153  -2.724   0.698  0.00  0.00    +0.010 A 
ATOM     20  C   LIG    1        0.176  -4.101   0.792  0.00  0.00    +0.080 A 
ATOM     21  C   LIG    1        1.242  -4.821   0.279  0.00  0.00    -0.030 A 
ATOM     22  C   LIG    1        2.292  -4.171  -0.332  0.00  0.00    +0.100 A 
ATOM     23  C   LIG    1        2.280  -2.778  -0.440  0.00  0.00    -0.180 A 
BRANCH  23  24
ATOM     24  C   LIG    1        3.397  -2.076  -1.098  0.00  0.00    +0.520 C 
ATOM     25  O   LIG    1        3.429  -0.861  -1.107  0.00  0.00    -0.520 OA
BRANCH  24  26
ATOM     26  O   LIG    1        4.381  -2.781  -1.689  0.00  0.00    -0.350 OA
ATOM     27  C   LIG    1        5.449  -2.023  -2.317  0.00  0.00    +0.290 C 
ENDBRANCH  24  26
ENDBRANCH  23  24
ENDBRANCH   4  18
TORSDOF 6
