REMARK  Name = ZINCpk00000kEUoO.0
REMARK                            x       y       z     vdW  Elec       q    Type
REMARK                         _______ _______ _______ _____ _____    ______ ____
ROOT
ATOM      1  C   LIG    1       -1.242   2.212   0.780  0.00  0.00    +0.570 C 
ATOM      2  N   LIG    1       -1.300   3.540   0.560  0.00  0.00    -0.600 N 
ATOM      3  C   LIG    1       -0.088   4.372   0.626  0.00  0.00    +0.250 C 
ATOM      4  C   LIG    1       -0.367   5.568   1.537  0.00  0.00    +0.210 C 
ATOM      5  O   LIG    1       -1.563   6.221   1.106  0.00  0.00    -0.370 OA
ATOM      6  C   LIG    1       -2.736   5.407   1.185  0.00  0.00    +0.220 C 
ATOM      7  C   LIG    1       -2.577   4.202   0.251  0.00  0.00    +0.220 C 
ATOM      8  O   LIG    1       -2.244   1.534   0.670  0.00  0.00    -0.520 OA
ENDROOT
BRANCH   1  12
ATOM      9  C   LIG    1        3.697   1.815   0.225  0.00  0.00    +0.140 C 
ATOM     10  C   LIG    1        2.415   1.384   0.891  0.00  0.00    +0.170 A 
ATOM     11  C   LIG    1        1.250   1.975   0.540  0.00  0.00    -0.070 A 
ATOM     12  C   LIG    1        0.046   1.578   1.159  0.00  0.00    -0.020 A 
ATOM     13  C   LIG    1        0.084   0.584   2.120  0.00  0.00    -0.020 A 
ATOM     14  C   LIG    1        1.323  -0.001   2.450  0.00  0.00    +0.520 A 
ATOM     15  O   LIG    1        1.377  -0.878   3.296  0.00  0.00    -0.540 OA
ATOM     16  N   LIG    1        2.448   0.409   1.835  0.00  0.00    -0.490 N 
ATOM     17  C   LIG    1        3.728  -0.208   2.189  0.00  0.00    +0.320 C 
ENDBRANCH   1  12
BRANCH   7  18
ATOM     18  C   LIG    1       -3.731   3.223   0.471  0.00  0.00    +0.060 C 
BRANCH  18  19
ATOM     19  C   LIG    1       -3.818   2.277  -0.699  0.00  0.00    +0.470 C 
ATOM     20  O   LIG    1       -3.033   2.377  -1.620  0.00  0.00    -0.460 OA
BRANCH  19  21
ATOM     21  C   LIG    1       -4.814   1.274  -0.724  0.00  0.00    -0.100 A 
ATOM     22  C   LIG    1       -5.011   0.349  -1.730  0.00  0.00    +0.040 A 
ATOM     23  C   LIG    1       -6.098  -0.443  -1.335  0.00  0.00    -0.070 A 
ATOM     24  C   LIG    1       -6.518   0.022  -0.136  0.00  0.00    +0.210 A 
ATOM     25  O   LIG    1       -5.745   1.053   0.228  0.00  0.00    -0.150 OA
ENDBRANCH  19  21
ENDBRANCH  18  19
ENDBRANCH   7  18
TORSDOF 4
