REMARK  Name = ZINCpk00000y6up1.1
REMARK                            x       y       z     vdW  Elec       q    Type
REMARK                         _______ _______ _______ _____ _____    ______ ____
ROOT
ATOM      1  C   LIG    1        5.096   3.499  -1.447  0.00  0.00    +0.160 C 
ATOM      2  C   LIG    1        5.755   3.360  -2.822  0.00  0.00    +0.040 C 
ATOM      3  C   LIG    1        4.704   3.220  -3.909  0.00  0.00    +0.020 C 
ATOM      4  C   LIG    1        3.861   4.465  -4.110  0.00  0.00    +0.020 C 
ATOM      5  C   LIG    1        2.980   4.732  -2.888  0.00  0.00    +0.300 C 
ATOM      6  N   LIG    1        3.753   5.519  -1.913  0.00  0.00    -0.590 N 
ATOM      7  C   LIG    1        4.747   4.955  -1.226  0.00  0.00    +0.530 C 
ATOM      8  O   LIG    1        5.374   5.612  -0.421  0.00  0.00    -0.530 OA
ENDROOT
BRANCH   1   9
ATOM      9  N   LIG    1        3.874   2.686  -1.400  0.00  0.00    -0.660 NA
ATOM     10  H   LIG    1        3.960   1.870  -1.988  0.00  0.00    +0.350 HD
BRANCH   9  11
ATOM     11  C   LIG    1        3.545   2.308  -0.019  0.00  0.00    +0.250 C 
BRANCH  11  16
ATOM     12  C   LIG    1       -0.017   1.385   0.010  0.00  0.00    +0.320 A 
ATOM     13  C   LIG    1        0.002  -0.004   0.002  0.00  0.00    -0.050 A 
ATOM     14  C   LIG    1        1.220  -0.661  -0.013  0.00  0.00    +0.100 A 
ATOM     15  C   LIG    1        2.382   0.099  -0.020  0.00  0.00    -0.060 A 
ATOM     16  C   LIG    1        2.288   1.476  -0.012  0.00  0.00    +0.170 A 
ATOM     17  N   LIG    1        1.112   2.074   0.003  0.00  0.00    -0.520 NA
BRANCH  12  19
ATOM     18  C   LIG    1       -1.157   3.469   0.026  0.00  0.00    +0.260 C 
ATOM     19  O   LIG    1       -1.204   2.040   0.019  0.00  0.00    -0.310 OA
ENDBRANCH  12  19
ENDBRANCH  11  16
ENDBRANCH   9  11
ENDBRANCH   1   9
BRANCH   6  20
ATOM     20  C   LIG    1        3.427   6.931  -1.696  0.00  0.00    +0.450 C 
BRANCH  20  21
ATOM     21  C   LIG    1        2.401   7.047  -0.600  0.00  0.00    +0.160 A 
ATOM     22  N   LIG    1        2.639   7.176   0.683  0.00  0.00    -0.460 NA
ATOM     23  C   LIG    1        1.432   7.241   1.272  0.00  0.00    +0.170 A 
ATOM     24  N   LIG    1        0.537   7.151   0.334  0.00  0.00    -0.380 NA
ATOM     25  C   LIG    1        1.166   7.391   2.748  0.00  0.00    +0.210 C 
ATOM     26  O   LIG    1        1.072   7.045  -0.749  0.00  0.00    +0.080 OA
ENDBRANCH  20  21
ENDBRANCH   6  20
TORSDOF 6
