REMARK  Name = ZINCrH000004tUX3.0
REMARK                            x       y       z     vdW  Elec       q    Type
REMARK                         _______ _______ _______ _____ _____    ______ ____
ROOT
ATOM      1  O   LIG    1       -3.705   0.175   2.875  0.00  0.00    -0.520 OA
ATOM      2  C   LIG    1       -3.114  -0.458   2.026  0.00  0.00    +0.510 C 
ATOM      3  N   LIG    1       -2.323   0.178   1.140  0.00  0.00    -0.730 N 
ATOM      4  H   LIG    1       -1.850  -0.328   0.461  0.00  0.00    +0.400 HD
ENDROOT
BRANCH   3   5
ATOM      5  C   LIG    1       -2.177   1.635   1.202  0.00  0.00    +0.280 C 
BRANCH   5   6
ATOM      6  C   LIG    1       -1.321   2.112   0.027  0.00  0.00    -0.030 C 
ATOM      7  C   LIG    1       -2.021   1.764  -1.290  0.00  0.00    +0.010 C 
ATOM      8  C   LIG    1       -3.351   2.519  -1.367  0.00  0.00    +0.210 C 
ATOM      9  O   LIG    1       -3.111   3.923  -1.252  0.00  0.00    -0.380 OA
ATOM     10  C   LIG    1       -2.502   4.311  -0.019  0.00  0.00    +0.220 C 
ATOM     11  C   LIG    1       -1.136   3.630   0.111  0.00  0.00    +0.020 C 
BRANCH   6  12
ATOM     12  C   LIG    1        0.025   1.437   0.076  0.00  0.00    -0.090 A 
ATOM     13  C   LIG    1        0.886   1.689   1.127  0.00  0.00    +0.050 A 
ATOM     14  C   LIG    1        2.123   1.075   1.171  0.00  0.00    -0.010 A 
ATOM     15  C   LIG    1        2.500   0.206   0.161  0.00  0.00    +0.100 A 
ATOM     16  C   LIG    1        1.636  -0.047  -0.892  0.00  0.00    -0.010 A 
ATOM     17  F   LIG    1        3.709  -0.396   0.202  0.00  0.00    -0.140 F 
ATOM     18  C   LIG    1        0.400   0.569  -0.933  0.00  0.00    +0.050 A 
ENDBRANCH   6  12
ENDBRANCH   5   6
ENDBRANCH   3   5
BRANCH   2  19
ATOM     19  C   LIG    1       -3.265  -1.956   1.962  0.00  0.00    +0.140 C 
BRANCH  19  20
ATOM     20  C   LIG    1       -4.196  -2.415   3.055  0.00  0.00    -0.160 A 
ATOM     21  C   LIG    1       -3.843  -2.858   4.271  0.00  0.00    +0.240 A 
ATOM     22  N   LIG    1       -4.960  -3.184   4.992  0.00  0.00    -0.590 N 
ATOM     23  H   LIG    1       -4.957  -3.528   5.899  0.00  0.00    +0.420 HD
ATOM     24  C   LIG    1       -6.088  -2.952   4.237  0.00  0.00    +0.100 A 
ATOM     25  C   LIG    1       -7.449  -3.107   4.476  0.00  0.00    -0.010 A 
ATOM     26  C   LIG    1       -8.359  -2.778   3.495  0.00  0.00    +0.020 A 
ATOM     27  C   LIG    1       -7.931  -2.293   2.267  0.00  0.00    -0.030 A 
ATOM     28  C   LIG    1       -6.598  -2.133   2.010  0.00  0.00    +0.050 A 
ATOM     29  C   LIG    1       -5.659  -2.454   2.992  0.00  0.00    -0.090 A 
ENDBRANCH  19  20
ENDBRANCH   2  19
TORSDOF 5
