REMARK  Name = ZINCrg000000tglL.0
REMARK                            x       y       z     vdW  Elec       q    Type
REMARK                         _______ _______ _______ _____ _____    ______ ____
ROOT
ATOM      1  C   LIG    1        2.479  -5.561  -0.053  0.00  0.00    +0.370 C 
ENDROOT
BRANCH   1   2
ATOM      2  N   LIG    1        1.735  -4.299  -0.038  0.00  0.00    -0.560 N 
ATOM      3  C   LIG    1        0.393  -4.208  -0.025  0.00  0.00    +0.580 C 
ATOM      4  C   LIG    1        0.018  -2.778  -0.013  0.00  0.00    -0.090 A 
ATOM      5  C   LIG    1       -1.186  -2.093   0.003  0.00  0.00    +0.130 A 
ATOM      6  C   LIG    1       -1.188  -0.707   0.015  0.00  0.00    +0.160 A 
ATOM      7  C   LIG    1        0.002  -0.004   0.002  0.00  0.00    -0.020 A 
ATOM      8  C   LIG    1        1.215  -0.676  -0.013  0.00  0.00    +0.190 A 
ATOM      9  C   LIG    1        1.232  -2.061  -0.021  0.00  0.00    -0.130 A 
ATOM     10  O   LIG    1       -0.382  -5.143  -0.022  0.00  0.00    -0.440 OA
ATOM     11  C   LIG    1        2.303  -3.080  -0.037  0.00  0.00    +0.590 C 
ATOM     12  O   LIG    1        3.496  -2.854  -0.048  0.00  0.00    -0.440 OA
BRANCH   7  13
ATOM     13  N   LIG    1       -0.018   1.476   0.010  0.00  0.00    +0.020 N 
ATOM     14  O   LIG    1       -1.081   2.071   0.018  0.00  0.00    -0.140 OA
ATOM     15  O   LIG    1        1.028   2.099   0.004  0.00  0.00    -0.140 OA
ENDBRANCH   7  13
ENDBRANCH   1   2
BRANCH   1  20
ATOM     16  O   LIG    1        3.275  -6.866   3.791  0.00  0.00    -0.450 OA
ATOM     17  C   LIG    1        3.666  -7.539   2.861  0.00  0.00    +0.510 C 
ATOM     18  N   LIG    1        3.425  -7.144   1.595  0.00  0.00    -0.690 N 
ATOM     19  H   LIG    1        3.738  -7.683   0.852  0.00  0.00    +0.420 HD
ATOM     20  C   LIG    1        2.749  -6.002   1.363  0.00  0.00    +0.490 C 
ATOM     21  O   LIG    1        2.358  -5.329   2.292  0.00  0.00    -0.450 OA
BRANCH  17  22
ATOM     22  C   LIG    1        4.421  -8.816   3.122  0.00  0.00    +0.120 C 
BRANCH  22  23
ATOM     23  C   LIG    1        4.556  -9.027   4.608  0.00  0.00    -0.080 A 
ATOM     24  C   LIG    1        5.651  -8.519   5.282  0.00  0.00    +0.020 A 
ATOM     25  C   LIG    1        5.771  -8.708   6.646  0.00  0.00    +0.000 A 
ATOM     26  C   LIG    1        4.802  -9.413   7.334  0.00  0.00    +0.010 A 
ATOM     27  C   LIG    1        3.709  -9.925   6.660  0.00  0.00    +0.000 A 
ATOM     28  C   LIG    1        3.586  -9.732   5.296  0.00  0.00    +0.020 A 
ENDBRANCH  22  23
ENDBRANCH  17  22
ENDBRANCH   1  20
TORSDOF 5
