REMARK  Name = ZINCpk00000xI6pD.0
REMARK                            x       y       z     vdW  Elec       q    Type
REMARK                         _______ _______ _______ _____ _____    ______ ____
ROOT
ATOM      1  N   LIG    1        2.670   2.079   4.672  0.00  0.00    -0.430 N 
ATOM      2  N   LIG    1        2.616   2.742   5.909  0.00  0.00    -0.220 NA
ATOM      3  C   LIG    1        1.525   3.079   6.463  0.00  0.00    +0.090 C 
ATOM      4  C   LIG    1        0.165   2.810   5.880  0.00  0.00    +0.270 C 
ATOM      5  N   LIG    1        0.303   2.382   4.490  0.00  0.00    -0.450 N 
ATOM      6  C   LIG    1       -0.652   2.240   3.506  0.00  0.00    -0.150 A 
ATOM      7  C   LIG    1       -2.043   2.441   3.436  0.00  0.00    +0.600 A 
ATOM      8  N   LIG    1       -2.691   2.197   2.279  0.00  0.00    -0.540 N 
ATOM      9  C   LIG    1       -2.028   1.770   1.190  0.00  0.00    +0.710 A 
ATOM     10  N   LIG    1       -0.698   1.558   1.213  0.00  0.00    -0.510 N 
ATOM     11  C   LIG    1       -0.013   1.086   0.008  0.00  0.00    +0.340 C 
ATOM     12  O   LIG    1       -2.644   1.564   0.163  0.00  0.00    -0.530 OA
ATOM     13  O   LIG    1       -2.657   2.833   4.413  0.00  0.00    -0.510 OA
ATOM     14  C   LIG    1        0.023   1.792   2.372  0.00  0.00    +0.350 A 
ATOM     15  N   LIG    1        1.318   1.682   2.686  0.00  0.00    -0.510 NA
ATOM     16  C   LIG    1       -0.527   1.709   6.686  0.00  0.00    +0.070 C 
ATOM     17  C   LIG    1        1.597   3.794   7.788  0.00  0.00    +0.170 C 
ATOM     18  C   LIG    1        1.503   2.030   3.933  0.00  0.00    +0.510 A 
ENDROOT
BRANCH   1  19
ATOM     19  C   LIG    1        3.908   1.465   4.187  0.00  0.00    +0.390 C 
BRANCH  19  21
ATOM     20  C   LIG    1        5.929   2.744   3.697  0.00  0.00    +0.040 C 
ATOM     21  C   LIG    1        4.687   2.473   3.382  0.00  0.00    -0.070 C 
ENDBRANCH  19  21
ENDBRANCH   1  19
BRANCH   8  22
ATOM     22  C   LIG    1       -4.139   2.407   2.205  0.00  0.00    +0.370 C 
BRANCH  22  23
ATOM     23  C   LIG    1       -4.420   3.824   1.775  0.00  0.00    -0.080 C 
ATOM     24  C   LIG    1       -5.175   4.054   0.730  0.00  0.00    -0.010 C 
ATOM     25  C   LIG    1       -5.455   5.471   0.300  0.00  0.00    +0.070 C 
ENDBRANCH  22  23
ENDBRANCH   8  22
TORSDOF 4
