REMARK  Name = ZINCkj000005i77A.0
REMARK                            x       y       z     vdW  Elec       q    Type
REMARK                         _______ _______ _______ _____ _____    ______ ____
ROOT
ATOM      1  C   LIG    1       -0.028   1.604   0.147  0.00  0.00    +0.160 C 
ATOM      2  C   LIG    1        1.409   2.131   0.145  0.00  0.00    -0.000 C 
ATOM      3  C   LIG    1        2.148   1.591   1.374  0.00  0.00    +0.260 C 
ATOM      4  N   LIG    1        2.043   0.126   1.383  0.00  0.00    -0.610 N 
ATOM      5  C   LIG    1        0.710  -0.488   1.296  0.00  0.00    +0.310 C 
ATOM      6  C   LIG    1        3.147  -0.641   1.468  0.00  0.00    +0.500 C 
ATOM      7  O   LIG    1        3.043  -1.845   1.580  0.00  0.00    -0.470 OA
ATOM      8  C   LIG    1       -0.013   0.075   0.068  0.00  0.00    +0.050 C 
ENDROOT
BRANCH   6   9
ATOM      9  C   LIG    1        4.512  -0.004   1.426  0.00  0.00    +0.040 C 
ATOM     10  C   LIG    1        5.586  -1.094   1.470  0.00  0.00    +0.070 C 
ATOM     11  C   LIG    1        5.440  -1.901   2.761  0.00  0.00    +0.060 C 
ATOM     12  C   LIG    1        5.607  -0.972   3.965  0.00  0.00    +0.020 C 
ATOM     13  C   LIG    1        4.534   0.118   3.921  0.00  0.00    +0.040 C 
ATOM     14  C   LIG    1        4.679   0.925   2.630  0.00  0.00    +0.060 C 
BRANCH   9  15
ATOM     15  N   LIG    1        4.652   0.771   0.186  0.00  0.00    -0.640 N 
ATOM     16  H   LIG    1        4.465   0.175  -0.606  0.00  0.00    +0.440 HD
ATOM     17  H   LIG    1        5.592   1.133   0.119  0.00  0.00    +0.440 HD
ATOM     18  H   LIG    1        3.997   1.538   0.193  0.00  0.00    +0.430 HD
ENDBRANCH   9  15
ENDBRANCH   6   9
BRANCH   1  19
ATOM     19  O   LIG    1       -0.730   2.131  -0.981  0.00  0.00    -0.370 OA
BRANCH  19  20
ATOM     20  C   LIG    1       -1.390   3.373  -0.726  0.00  0.00    +0.180 C 
BRANCH  20  21
ATOM     21  C   LIG    1       -2.104   3.841  -1.995  0.00  0.00    +0.190 C 
BRANCH  21  23
ATOM     22  C   LIG    1       -3.880   3.266  -3.499  0.00  0.00    +0.200 C 
ATOM     23  O   LIG    1       -3.146   2.919  -2.323  0.00  0.00    -0.390 OA
ENDBRANCH  21  23
ENDBRANCH  20  21
ENDBRANCH  19  20
ENDBRANCH   1  19
TORSDOF 6
