REMARK  Name = ZINCpk000000nNXW.0
REMARK                            x       y       z     vdW  Elec       q    Type
REMARK                         _______ _______ _______ _____ _____    ______ ____
ROOT
ATOM      1  C   LIG    1        5.280   7.712   2.536  0.00  0.00    +0.250 C 
ATOM      2  C   LIG    1        5.873   7.758   3.918  0.00  0.00    +0.520 C 
ATOM      3  N   LIG    1        5.668   8.769   4.764  0.00  0.00    -0.720 N 
ATOM      4  H   LIG    1        6.139   8.750   5.612  0.00  0.00    +0.400 HD
ATOM      5  C   LIG    1        4.786   9.898   4.504  0.00  0.00    +0.250 C 
ATOM      6  C   LIG    1        4.560  10.076   2.997  0.00  0.00    +0.310 C 
ATOM      7  O   LIG    1        6.570   6.834   4.280  0.00  0.00    -0.540 OA
ATOM      8  N   LIG    1        4.249   8.755   2.426  0.00  0.00    -0.630 N 
ATOM      9  C   LIG    1        3.068   8.512   1.822  0.00  0.00    +0.720 C 
ATOM     10  N   LIG    1        2.774   7.269   1.393  0.00  0.00    -0.730 N 
ATOM     11  H   LIG    1        3.439   6.565   1.452  0.00  0.00    +0.400 HD
ATOM     12  O   LIG    1        2.270   9.415   1.664  0.00  0.00    -0.580 OA
ENDROOT
BRANCH  10  13
ATOM     13  C   LIG    1        1.449   6.980   0.838  0.00  0.00    +0.260 C 
ATOM     14  C   LIG    1        0.444   6.614   1.962  0.00  0.00    +0.010 C 
ATOM     15  C   LIG    1       -0.587   5.729   1.230  0.00  0.00    +0.220 C 
ATOM     16  N   LIG    1        0.075   5.188   0.029  0.00  0.00    -0.460 N 
ATOM     17  C   LIG    1        1.470   5.678   0.000  0.00  0.00    +0.230 C 
BRANCH  16  18
ATOM     18  C   LIG    1        0.035   3.798   0.022  0.00  0.00    +0.320 A 
ATOM     19  N   LIG    1        1.165   3.109   0.005  0.00  0.00    -0.510 NA
ATOM     20  C   LIG    1        1.171   1.789  -0.002  0.00  0.00    +0.300 A 
ATOM     21  C   LIG    1       -0.010   1.075   0.006  0.00  0.00    -0.040 A 
ATOM     22  C   LIG    1       -1.218   1.759   0.018  0.00  0.00    +0.110 A 
ATOM     23  C   LIG    1       -1.194   3.143   0.032  0.00  0.00    -0.100 A 
ATOM     24 CL   LIG    1       -2.674   4.049   0.053  0.00  0.00    -0.040 Cl
ENDBRANCH  16  18
ENDBRANCH  10  13
BRANCH   1  26
ATOM     25  C   LIG    1        7.447   6.878   1.615  0.00  0.00    +0.040 C 
ATOM     26  C   LIG    1        6.375   7.963   1.498  0.00  0.00    -0.020 C 
ATOM     27  C   LIG    1        5.765   7.929   0.095  0.00  0.00    +0.040 C 
ENDBRANCH   1  26
TORSDOF 3
