REMARK  Name = ZINCvU0000000GoW.0
REMARK                            x       y       z     vdW  Elec       q    Type
REMARK                         _______ _______ _______ _____ _____    ______ ____
ROOT
ATOM      1  C   LIG    1       -0.337  -6.567  -3.514  0.00  0.00    +0.210 A 
ATOM      2  C   LIG    1       -0.282  -5.175  -3.582  0.00  0.00    -0.020 A 
ATOM      3  C   LIG    1       -0.449  -4.421  -2.458  0.00  0.00    +0.110 A 
ATOM      4  C   LIG    1       -0.675  -5.048  -1.227  0.00  0.00    -0.170 A 
ATOM      5  C   LIG    1       -0.857  -4.264  -0.004  0.00  0.00    +0.030 A 
ATOM      6  C   LIG    1       -1.068  -4.930   1.161  0.00  0.00    -0.050 A 
ATOM      7  C   LIG    1       -1.119  -6.340   1.163  0.00  0.00    +0.510 A 
ATOM      8  O   LIG    1       -0.951  -7.053   0.039  0.00  0.00    -0.270 OA
ATOM      9  O   LIG    1       -1.314  -6.925   2.213  0.00  0.00    -0.450 OA
ATOM     10  C   LIG    1       -0.732  -6.453  -1.151  0.00  0.00    +0.180 A 
ATOM     11  C   LIG    1       -0.561  -7.204  -2.303  0.00  0.00    +0.020 A 
ENDROOT
BRANCH   1  14
ATOM     12  C   LIG    1       -0.558  -9.362  -6.019  0.00  0.00    +0.110 C 
ATOM     13  C   LIG    1       -0.832  -8.486  -4.824  0.00  0.00    +0.510 C 
ATOM     14  N   LIG    1       -0.165  -7.325  -4.673  0.00  0.00    -0.670 N 
ATOM     15  H   LIG    1        0.435  -7.016  -5.370  0.00  0.00    +0.420 HD
ATOM     16  O   LIG    1       -1.653  -8.825  -3.999  0.00  0.00    -0.510 OA
ENDBRANCH   1  14
BRANCH   5  17
ATOM     17  C   LIG    1       -0.805  -2.758  -0.035  0.00  0.00    +0.170 C 
BRANCH  17  18
ATOM     18  S   LIG    1        0.913  -2.217  -0.209  0.00  0.00    +0.030 S 
BRANCH  18  19
ATOM     19  C   LIG    1        0.684  -0.470  -0.218  0.00  0.00    +0.200 A 
ATOM     20  N   LIG    1       -0.528   0.060  -0.111  0.00  0.00    -0.510 NA
ATOM     21  C   LIG    1       -0.713   1.370  -0.117  0.00  0.00    +0.260 A 
ATOM     22  N   LIG    1        0.272   2.230  -0.227  0.00  0.00    -0.460 NA
ATOM     23  C   LIG    1        1.539   1.803  -0.341  0.00  0.00    +0.170 A 
ATOM     24  C   LIG    1        2.614   2.693  -0.461  0.00  0.00    +0.060 A 
ATOM     25  C   LIG    1        3.882   2.205  -0.574  0.00  0.00    +0.080 A 
ATOM     26  C   LIG    1        4.126   0.835  -0.573  0.00  0.00    +0.040 A 
ATOM     27  C   LIG    1        3.102  -0.059  -0.458  0.00  0.00    +0.060 A 
ATOM     28  C   LIG    1        1.790   0.409  -0.340  0.00  0.00    -0.120 A 
BRANCH  21  29
ATOM     29  C   LIG    1       -2.119   1.899   0.002  0.00  0.00    +0.550 C 
ATOM     30  F   LIG    1       -2.551   2.360  -1.246  0.00  0.00    -0.160 F 
ATOM     31  F   LIG    1       -2.145   2.952   0.923  0.00  0.00    -0.160 F 
ATOM     32  F   LIG    1       -2.967   0.875   0.440  0.00  0.00    -0.150 F 
ENDBRANCH  21  29
ENDBRANCH  18  19
ENDBRANCH  17  18
ENDBRANCH   5  17
TORSDOF 5
