REMARK  Name = ZINCrg00000yUyPj.0
REMARK                            x       y       z     vdW  Elec       q    Type
REMARK                         _______ _______ _______ _____ _____    ______ ____
ROOT
ATOM      1  C   LIG    1        6.730  -0.206   0.999  0.00  0.00    +0.240 C 
ATOM      2  N   LIG    1        7.339  -0.160  -0.333  0.00  0.00    -0.930 NA
ATOM      3  S   LIG    1        8.813  -0.344  -0.487  0.00  0.00    +2.090 S 
ATOM      4  C   LIG    1        9.632   1.160   0.133  0.00  0.00    -0.270 C 
ATOM      5  C   LIG    1        9.247   2.327  -0.784  0.00  0.00    +0.070 C 
ATOM      6  C   LIG    1        9.724   2.047  -2.206  0.00  0.00    +0.020 C 
ATOM      7  C   LIG    1        8.874   0.970  -2.869  0.00  0.00    +0.190 C 
ATOM      8  C   LIG    1        9.164   0.939  -4.383  0.00  0.00    +0.050 C 
ATOM      9  C   LIG    1        8.005   1.785  -4.975  0.00  0.00    +0.040 C 
ATOM     10  C   LIG    1        6.831   1.401  -4.035  0.00  0.00    +0.260 C 
ATOM     11  N   LIG    1        7.447   1.274  -2.701  0.00  0.00    -0.600 N 
ATOM     12  C   LIG    1        6.806   1.408  -1.523  0.00  0.00    +0.380 C 
ATOM     13  O   LIG    1        7.437   1.417  -0.487  0.00  0.00    -0.300 OA
ATOM     14  O   LIG    1        9.173  -1.526   0.215  0.00  0.00    -1.010 OA
ATOM     15  C   LIG    1        9.185  -0.405  -2.268  0.00  0.00    -0.280 C 
ENDROOT
BRANCH  12  16
ATOM     16  C   LIG    1        5.306   1.547  -1.493  0.00  0.00    +0.070 C 
BRANCH  16  17
ATOM     17  C   LIG    1        4.863   1.991  -0.098  0.00  0.00    +0.330 C 
BRANCH  17  18
ATOM     18  N   LIG    1        3.422   2.257  -0.105  0.00  0.00    -0.470 N 
ATOM     19  C   LIG    1        2.826   3.470  -0.286  0.00  0.00    +0.470 A 
ATOM     20  N   LIG    1        1.532   3.342  -0.232  0.00  0.00    -0.460 NA
ATOM     21  C   LIG    1        1.216   2.043  -0.014  0.00  0.00    -0.110 A 
ATOM     22  C   LIG    1        0.015   1.329   0.133  0.00  0.00    +0.510 A 
ATOM     23  N   LIG    1        0.078   0.019   0.344  0.00  0.00    -0.590 NA
ATOM     24  C   LIG    1        1.238  -0.607   0.415  0.00  0.00    +0.560 A 
ATOM     25  N   LIG    1        2.389   0.020   0.284  0.00  0.00    -0.560 NA
ATOM     26  C   LIG    1        2.425   1.331   0.070  0.00  0.00    +0.300 A 
BRANCH  22  27
ATOM     27  N   LIG    1       -1.207   1.976   0.054  0.00  0.00    -0.820 N 
ATOM     28  H   LIG    1       -1.240   2.933  -0.100  0.00  0.00    +0.420 HD
ATOM     29  H   LIG    1       -2.029   1.472   0.153  0.00  0.00    +0.410 HD
ENDBRANCH  22  27
ENDBRANCH  17  18
ENDBRANCH  16  17
ENDBRANCH  12  16
TORSDOF 4
