REMARK  Name = ZINCtV00001bB3uc.0
REMARK                            x       y       z     vdW  Elec       q    Type
REMARK                         _______ _______ _______ _____ _____    ______ ____
ROOT
ATOM      1  O   LIG    1       -2.716   0.422   0.478  0.00  0.00    -0.460 OA
ATOM      2  C   LIG    1       -2.095   1.042   1.315  0.00  0.00    +0.530 C 
ATOM      3  C   LIG    1       -2.683   1.400   2.652  0.00  0.00    +0.170 C 
ATOM      4  S   LIG    1       -1.336   2.307   3.478  0.00  0.00    +0.030 S 
ATOM      5  C   LIG    1       -0.207   2.155   2.117  0.00  0.00    +0.370 C 
ATOM      6  N   LIG    1        1.017   2.599   2.005  0.00  0.00    -0.490 NA
ATOM      7  C   LIG    1        1.814   2.434   0.913  0.00  0.00    +0.140 C 
ATOM      8  C   LIG    1        1.367   1.766  -0.166  0.00  0.00    -0.150 C 
ATOM      9  C   LIG    1       -0.044   1.223  -0.127  0.00  0.00    +0.320 C 
ATOM     10  C   LIG    1        2.211   1.539  -1.387  0.00  0.00    +0.090 C 
ATOM     11  C   LIG    1        3.328   2.575  -1.493  0.00  0.00    +0.040 C 
ATOM     12  C   LIG    1        4.128   2.584  -0.183  0.00  0.00    +0.080 C 
ATOM     13  C   LIG    1        3.179   3.004   0.919  0.00  0.00    -0.060 C 
ATOM     14  C   LIG    1        3.565   3.868   1.873  0.00  0.00    +0.060 C 
ATOM     15  N   LIG    1       -0.837   1.456   1.113  0.00  0.00    -0.580 N 
ENDROOT
BRANCH   9  16
ATOM     16  C   LIG    1       -0.803   1.827  -1.280  0.00  0.00    -0.080 A 
ATOM     17  C   LIG    1       -1.383   3.075  -1.148  0.00  0.00    +0.020 A 
ATOM     18  C   LIG    1       -2.075   3.632  -2.207  0.00  0.00    +0.060 A 
ATOM     19  C   LIG    1       -2.196   2.935  -3.396  0.00  0.00    -0.080 A 
ATOM     20  C   LIG    1       -1.621   1.684  -3.526  0.00  0.00    +0.060 A 
ATOM     21 BR   LIG    1       -3.150   3.692  -4.843  0.00  0.00    -0.040 Br
ATOM     22  C   LIG    1       -0.925   1.130  -2.468  0.00  0.00    +0.040 A 
ENDBRANCH   9  16
BRANCH  14  23
ATOM     23  C   LIG    1        4.974   4.290   1.958  0.00  0.00    -0.040 A 
ATOM     24  C   LIG    1        5.996   3.402   1.610  0.00  0.00    +0.030 A 
ATOM     25  C   LIG    1        7.312   3.805   1.688  0.00  0.00    +0.040 A 
ATOM     26  C   LIG    1        7.623   5.084   2.120  0.00  0.00    -0.090 A 
ATOM     27  C   LIG    1        6.617   5.967   2.471  0.00  0.00    +0.040 A 
ATOM     28 BR   LIG    1        9.432   5.626   2.229  0.00  0.00    -0.050 Br
ATOM     29  C   LIG    1        5.296   5.579   2.393  0.00  0.00    +0.030 A 
ENDBRANCH  14  23
TORSDOF 2
