REMARK  Name = ZINCtV00000L6jnu.0
REMARK                            x       y       z     vdW  Elec       q    Type
REMARK                         _______ _______ _______ _____ _____    ______ ____
ROOT
ATOM      1  P   LIG    1        4.256   0.884   0.641  0.00  0.00    +2.680 P 
ATOM      2  N   LIG    1        5.359  -0.180   0.897  0.00  0.00    -1.190 NA
ENDROOT
BRANCH   1   3
ATOM      3  N   LIG    1        2.765   0.274   1.127  0.00  0.00    -0.920 NA
ATOM      4  C   LIG    1        1.660   0.920   0.384  0.00  0.00    +0.210 C 
ATOM      5  C   LIG    1        1.389   0.268  -0.945  0.00  0.00    -0.010 C 
ATOM      6  C   LIG    1        0.275  -0.783  -0.756  0.00  0.00    +0.020 C 
ATOM      7  C   LIG    1        0.777  -2.017  -0.162  0.00  0.00    +0.000 C 
ATOM      8  C   LIG    1        1.378  -1.786   1.241  0.00  0.00    +0.040 C 
ATOM      9  C   LIG    1        2.756  -1.205   1.081  0.00  0.00    +0.230 C 
ENDBRANCH   1   3
BRANCH   1  10
ATOM     10  C   LIG    1        4.200   1.282  -1.128  0.00  0.00    -0.690 A 
ATOM     11  C   LIG    1        3.989   2.583  -1.556  0.00  0.00    +0.000 A 
ATOM     12  C   LIG    1        3.956   2.849  -2.912  0.00  0.00    +0.260 A 
ATOM     13  N   LIG    1        4.113   1.881  -3.794  0.00  0.00    -0.450 NA
ATOM     14  C   LIG    1        4.311   0.631  -3.423  0.00  0.00    +0.260 A 
ATOM     15  C   LIG    1        4.360   0.290  -2.084  0.00  0.00    +0.050 A 
ENDBRANCH   1  10
BRANCH   2  16
ATOM     16  C   LIG    1        6.413  -0.247   0.097  0.00  0.00    +0.280 A 
ATOM     17  C   LIG    1        6.748   0.847  -0.740  0.00  0.00    -0.170 A 
ATOM     18  C   LIG    1        7.840   0.765  -1.553  0.00  0.00    +0.060 A 
ATOM     19  C   LIG    1        8.615  -0.388  -1.573  0.00  0.00    -0.050 A 
ATOM     20  C   LIG    1        8.297  -1.471  -0.763  0.00  0.00    -0.130 A 
ATOM     21  C   LIG    1        7.215  -1.417   0.065  0.00  0.00    -0.010 A 
BRANCH  20  22
ATOM     22  C   LIG    1        9.151  -2.712  -0.800  0.00  0.00    +0.500 C 
ATOM     23  F   LIG    1        9.122  -3.336   0.452  0.00  0.00    -0.180 F 
ATOM     24  F   LIG    1       10.469  -2.361  -1.116  0.00  0.00    -0.180 F 
ATOM     25  F   LIG    1        8.657  -3.590  -1.771  0.00  0.00    -0.180 F 
ENDBRANCH  20  22
ENDBRANCH   2  16
BRANCH   1  27
ATOM     26  C   LIG    1        4.963   2.015   3.037  0.00  0.00    +0.090 C 
ATOM     27  C   LIG    1        4.635   2.392   1.591  0.00  0.00    -0.670 C 
ATOM     28  C   LIG    1        3.423   3.326   1.570  0.00  0.00    +0.060 C 
ATOM     29  C   LIG    1        5.836   3.103   0.964  0.00  0.00    +0.060 C 
ENDBRANCH   1  27
TORSDOF 5
