REMARK  Name = ZINCtV00000L6jQt.0
REMARK                            x       y       z     vdW  Elec       q    Type
REMARK                         _______ _______ _______ _____ _____    ______ ____
ROOT
ATOM      1  C   LIG    1       -4.905   1.558   0.033  0.00  0.00    -0.060 A 
ATOM      2  C   LIG    1       -3.623   2.086   0.016  0.00  0.00    +0.060 A 
ATOM      3  C   LIG    1       -2.518   1.215   0.007  0.00  0.00    +0.220 A 
ATOM      4  N   LIG    1       -2.656  -0.097   0.008  0.00  0.00    -0.430 NA
ATOM      5  C   LIG    1       -3.853  -0.687   0.029  0.00  0.00    +0.130 A 
ATOM      6  C   LIG    1       -3.969  -2.089   0.036  0.00  0.00    +0.050 A 
ATOM      7  C   LIG    1       -5.203  -2.664   0.052  0.00  0.00    +0.040 A 
ATOM      8  C   LIG    1       -6.358  -1.887   0.062  0.00  0.00    +0.030 A 
ATOM      9  C   LIG    1       -6.284  -0.524   0.056  0.00  0.00    +0.050 A 
ATOM     10  C   LIG    1       -5.032   0.099   0.040  0.00  0.00    -0.060 A 
ENDROOT
BRANCH   3  11
ATOM     11  C   LIG    1       -1.159   1.788  -0.011  0.00  0.00    -0.160 A 
ATOM     12  C   LIG    1       -0.013   1.076  -0.021  0.00  0.00    +0.090 A 
ATOM     13  C   LIG    1        1.137   1.834  -0.043  0.00  0.00    +0.040 A 
ATOM     14  C   LIG    1        0.942   3.159  -0.045  0.00  0.00    -0.140 A 
ATOM     15 CL   LIG    1        2.201   4.354  -0.071  0.00  0.00    -0.000 Cl
ATOM     16  S   LIG    1       -0.782   3.506  -0.019  0.00  0.00    +0.200 S 
ENDBRANCH   3  11
BRANCH   1  17
ATOM     17  C   LIG    1       -6.096   2.433   0.042  0.00  0.00    +0.520 C 
ATOM     18  O   LIG    1       -7.206   1.949  -0.047  0.00  0.00    -0.490 OA
BRANCH  17  19
ATOM     19  O   LIG    1       -5.950   3.768   0.150  0.00  0.00    -0.330 OA
BRANCH  19  20
ATOM     20  C   LIG    1       -7.163   4.566   0.153  0.00  0.00    +0.240 C 
BRANCH  20  22
ATOM     21  O   LIG    1       -5.642   6.358   0.360  0.00  0.00    -0.420 OA
ATOM     22  C   LIG    1       -6.805   6.024   0.280  0.00  0.00    +0.400 C 
BRANCH  22  23
ATOM     23  C   LIG    1       -7.866   7.042   0.306  0.00  0.00    -0.160 A 
ATOM     24  C   LIG    1       -9.209   6.661   0.208  0.00  0.00    +0.080 A 
ATOM     25  C   LIG    1      -10.198   7.620   0.239  0.00  0.00    +0.020 A 
ATOM     26  C   LIG    1       -9.865   8.960   0.356  0.00  0.00    -0.000 A 
ATOM     27  C   LIG    1       -8.538   9.345   0.449  0.00  0.00    +0.020 A 
ATOM     28 CL   LIG    1      -11.118  10.161   0.386  0.00  0.00    -0.050 Cl
ATOM     29  C   LIG    1       -7.538   8.397   0.424  0.00  0.00    +0.110 A 
ENDBRANCH  22  23
ENDBRANCH  20  22
ENDBRANCH  19  20
ENDBRANCH  17  19
ENDBRANCH   1  17
TORSDOF 6
