REMARK  Name = ZINCpk00000ebNHa.0
REMARK                            x       y       z     vdW  Elec       q    Type
REMARK                         _______ _______ _______ _____ _____    ______ ____
ROOT
ATOM      1  O   LIG    1        1.336   2.178   0.001  0.00  0.00    -0.950 OA
ATOM      2  S   LIG    1       -0.022   1.758   0.012  0.00  0.00    +2.700 S 
ATOM      3  O   LIG    1       -0.965   2.152  -0.976  0.00  0.00    -0.950 OA
ENDROOT
BRANCH   2   4
ATOM      4  C   LIG    1        0.002  -0.004   0.002  0.00  0.00    -0.740 A 
ATOM      5  C   LIG    1       -1.091  -0.718  -0.470  0.00  0.00    +0.220 A 
ATOM      6  C   LIG    1       -1.030  -2.101  -0.460  0.00  0.00    -0.050 A 
ATOM      7  C   LIG    1        0.115  -2.724   0.018  0.00  0.00    +0.370 A 
ATOM      8  N   LIG    1        1.137  -2.009   0.460  0.00  0.00    -0.550 NA
ATOM      9  C   LIG    1        1.111  -0.690   0.458  0.00  0.00    +0.430 A 
BRANCH   7  10
ATOM     10  O   LIG    1        0.187  -4.078   0.033  0.00  0.00    -0.290 OA
BRANCH  10  11
ATOM     11  C   LIG    1        1.391  -4.659   0.537  0.00  0.00    +0.270 C 
BRANCH  11  12
ATOM     12  C   LIG    1        1.287  -6.184   0.476  0.00  0.00    +0.460 C 
ATOM     13  F   LIG    1        0.204  -6.609   1.253  0.00  0.00    -0.170 F 
ATOM     14  F   LIG    1        2.466  -6.752   0.970  0.00  0.00    -0.170 F 
ATOM     15  F   LIG    1        1.095  -6.585  -0.850  0.00  0.00    -0.170 F 
ENDBRANCH  11  12
ENDBRANCH  10  11
ENDBRANCH   7  10
ENDBRANCH   2   4
BRANCH   2  16
ATOM     16  N   LIG    1       -0.646   2.232   1.470  0.00  0.00    -1.100 NA
ATOM     17  H   LIG    1       -1.494   2.703   1.505  0.00  0.00    +0.420 HD
BRANCH  16  18
ATOM     18  C   LIG    1        0.081   1.939   2.708  0.00  0.00    +0.360 C 
ATOM     19  C   LIG    1       -0.117   3.086   3.708  0.00  0.00    +0.050 C 
ATOM     20  C   LIG    1        0.394   2.650   5.084  0.00  0.00    +0.050 C 
ATOM     21  C   LIG    1       -0.532   1.570   5.655  0.00  0.00    +0.310 C 
ATOM     22  N   LIG    1       -0.725   0.532   4.642  0.00  0.00    -0.360 N 
ATOM     23  N   LIG    1       -1.205  -0.769   4.815  0.00  0.00    -0.310 NA
ATOM     24  C   LIG    1       -1.202  -1.329   3.631  0.00  0.00    +0.410 A 
ATOM     25  N   LIG    1       -0.749  -0.449   2.735  0.00  0.00    -0.520 NA
ATOM     26  C   LIG    1       -0.459   0.674   3.329  0.00  0.00    +0.250 A 
ENDBRANCH  16  18
ENDBRANCH   2  16
TORSDOF 6
