REMARK  Name = ZINCrD000000AKXc.0
REMARK                            x       y       z     vdW  Elec       q    Type
REMARK                         _______ _______ _______ _____ _____    ______ ____
ROOT
ATOM      1  C   LIG    1       -1.332   2.114   0.020  0.00  0.00    +0.190 C 
ENDROOT
BRANCH   1   2
ATOM      2  N   LIG    1       -1.237   3.274   0.916  0.00  0.00    -0.510 NA
ATOM      3  C   LIG    1       -0.836   2.863   2.269  0.00  0.00    +0.150 C 
ATOM      4  C   LIG    1       -0.692   4.105   3.152  0.00  0.00    +0.230 C 
ATOM      5  O   LIG    1       -1.924   4.832   3.150  0.00  0.00    -0.380 OA
ATOM      6  C   LIG    1       -2.344   5.248   1.847  0.00  0.00    +0.230 C 
ATOM      7  C   LIG    1       -2.505   4.018   0.951  0.00  0.00    +0.180 C 
BRANCH   6   8
ATOM      8  C   LIG    1       -3.662   5.971   1.951  0.00  0.00    -0.130 A 
ATOM      9  C   LIG    1       -4.510   5.713   3.011  0.00  0.00    +0.110 A 
ATOM     10  C   LIG    1       -5.717   6.379   3.110  0.00  0.00    -0.020 A 
ATOM     11  C   LIG    1       -6.082   7.298   2.141  0.00  0.00    +0.130 A 
ATOM     12  C   LIG    1       -5.236   7.554   1.076  0.00  0.00    -0.040 A 
ATOM     13  F   LIG    1       -7.264   7.946   2.236  0.00  0.00    -0.130 F 
ATOM     14  C   LIG    1       -4.025   6.890   0.981  0.00  0.00    +0.150 A 
ATOM     15  F   LIG    1       -3.198   7.139  -0.058  0.00  0.00    -0.120 F 
ENDBRANCH   6   8
ENDBRANCH   1   2
BRANCH   1  16
ATOM     16  C   LIG    1       -0.017   1.378   0.010  0.00  0.00    -0.090 A 
ATOM     17  C   LIG    1        1.171   2.086   0.002  0.00  0.00    +0.040 A 
ATOM     18  C   LIG    1        2.377   1.411  -0.015  0.00  0.00    +0.010 A 
ATOM     19  C   LIG    1        2.396   0.029  -0.021  0.00  0.00    +0.010 A 
ATOM     20  C   LIG    1        1.208  -0.679  -0.013  0.00  0.00    +0.010 A 
ATOM     21  C   LIG    1        0.002  -0.004   0.002  0.00  0.00    +0.010 A 
ENDBRANCH   1  16
BRANCH   1  23
ATOM     22  O   LIG    1       -1.795   3.765  -1.601  0.00  0.00    -0.510 OA
ATOM     23  C   LIG    1       -1.656   2.582  -1.375  0.00  0.00    +0.530 C 
ATOM     24  N   LIG    1       -1.793   1.685  -2.372  0.00  0.00    -0.700 N 
ATOM     25  H   LIG    1       -1.682   0.739  -2.192  0.00  0.00    +0.400 HD
BRANCH  24  26
ATOM     26  C   LIG    1       -2.108   2.140  -3.729  0.00  0.00    +0.220 C 
ATOM     27  C   LIG    1       -3.167   1.358  -4.508  0.00  0.00    +0.010 C 
ATOM     28  C   LIG    1       -1.691   1.238  -4.892  0.00  0.00    +0.020 C 
ENDBRANCH  24  26
ENDBRANCH   1  23
TORSDOF 5
