REMARK  Name = ZINCtV00001bB3u1.0
REMARK                            x       y       z     vdW  Elec       q    Type
REMARK                         _______ _______ _______ _____ _____    ______ ____
ROOT
ATOM      1  O   LIG    1        8.895   7.183  -0.770  0.00  0.00    -0.460 OA
ATOM      2  C   LIG    1        8.670   6.027  -0.485  0.00  0.00    +0.530 C 
ATOM      3  C   LIG    1        9.767   5.046  -0.174  0.00  0.00    +0.170 C 
ATOM      4  S   LIG    1        8.869   3.500   0.173  0.00  0.00    +0.030 S 
ATOM      5  C   LIG    1        7.263   4.206  -0.094  0.00  0.00    +0.370 C 
ATOM      6  N   LIG    1        6.087   3.641  -0.013  0.00  0.00    -0.490 NA
ATOM      7  C   LIG    1        4.899   4.266  -0.236  0.00  0.00    +0.140 C 
ATOM      8  C   LIG    1        4.863   5.571  -0.563  0.00  0.00    -0.150 C 
ATOM      9  C   LIG    1        6.180   6.305  -0.686  0.00  0.00    +0.320 C 
ATOM     10  C   LIG    1        3.580   6.314  -0.799  0.00  0.00    +0.100 C 
ATOM     11  C   LIG    1        2.446   5.363  -1.173  0.00  0.00    +0.030 C 
ATOM     12  C   LIG    1        2.337   4.268  -0.108  0.00  0.00    +0.080 C 
ATOM     13  C   LIG    1        3.640   3.497  -0.116  0.00  0.00    -0.060 C 
ATOM     14  C   LIG    1        3.654   2.158  -0.022  0.00  0.00    +0.060 C 
ATOM     15  N   LIG    1        7.426   5.532  -0.424  0.00  0.00    -0.580 N 
ENDROOT
BRANCH   9  16
ATOM     16  C   LIG    1        6.150   7.470   0.270  0.00  0.00    -0.080 A 
ATOM     17  C   LIG    1        6.554   7.299   1.581  0.00  0.00    +0.020 A 
ATOM     18  C   LIG    1        6.532   8.368   2.456  0.00  0.00    +0.050 A 
ATOM     19  C   LIG    1        6.094   9.607   2.024  0.00  0.00    -0.080 A 
ATOM     20  C   LIG    1        5.683   9.776   0.714  0.00  0.00    +0.060 A 
ATOM     21 BR   LIG    1        6.055  11.068   3.224  0.00  0.00    -0.040 Br
ATOM     22  C   LIG    1        5.711   8.707  -0.163  0.00  0.00    +0.040 A 
ENDBRANCH   9  16
BRANCH  14  23
ATOM     23  C   LIG    1        2.407   1.427   0.268  0.00  0.00    -0.040 A 
ATOM     24  C   LIG    1        1.426   2.006   1.077  0.00  0.00    +0.030 A 
ATOM     25  C   LIG    1        0.262   1.316   1.344  0.00  0.00    +0.040 A 
ATOM     26  C   LIG    1        0.064   0.053   0.812  0.00  0.00    -0.090 A 
ATOM     27  C   LIG    1        1.032  -0.526   0.009  0.00  0.00    +0.040 A 
ATOM     28 BR   LIG    1       -1.535  -0.885   1.183  0.00  0.00    -0.050 Br
ATOM     29  C   LIG    1        2.201   0.152  -0.266  0.00  0.00    +0.030 A 
ENDBRANCH  14  23
TORSDOF 2
