REMARK  Name = ZINCrD00000F5Lyn.0
REMARK                            x       y       z     vdW  Elec       q    Type
REMARK                         _______ _______ _______ _____ _____    ______ ____
ROOT
ATOM      1  C   LIG    1       -0.184  -0.423   2.433  0.00  0.00    +0.570 C 
ATOM      2  N   LIG    1       -0.157   0.923   2.362  0.00  0.00    -0.570 N 
ATOM      3  O   LIG    1       -0.698  -1.068   1.541  0.00  0.00    -0.490 OA
ENDROOT
BRANCH   1   8
ATOM      4  C   LIG    1        1.554  -1.039   5.604  0.00  0.00    +0.280 A 
ATOM      5  N   LIG    1        1.508  -2.358   5.734  0.00  0.00    -0.490 NA
ATOM      6  C   LIG    1        0.923  -3.111   4.820  0.00  0.00    +0.380 A 
ATOM      7  C   LIG    1        0.344  -2.507   3.711  0.00  0.00    -0.110 A 
ATOM      8  C   LIG    1        0.414  -1.117   3.600  0.00  0.00    +0.150 A 
ATOM      9 CL   LIG    1       -0.441  -3.458   2.489  0.00  0.00    +0.010 Cl
ATOM     10  N   LIG    1        1.020  -0.423   4.561  0.00  0.00    -0.460 NA
BRANCH   4  12
ATOM     11  C   LIG    1        2.865  -1.399   7.979  0.00  0.00    +0.160 C 
ATOM     12  S   LIG    1        2.347  -0.081   6.851  0.00  0.00    +0.030 S 
ENDBRANCH   4  12
ENDBRANCH   1   8
BRANCH   2  13
ATOM     13  C   LIG    1       -0.846   1.613   1.269  0.00  0.00    +0.270 C 
ATOM     14  C   LIG    1       -0.233   1.203  -0.082  0.00  0.00    +0.080 C 
ATOM     15  C   LIG    1       -1.179   1.662  -1.210  0.00  0.00    -0.310 C 
ATOM     16  S   LIG    1       -2.846   1.678  -0.457  0.00  0.00    +2.390 S 
ATOM     17  O   LIG    1       -3.632   0.644  -1.033  0.00  0.00    -0.930 OA
ATOM     18  O   LIG    1       -3.338   3.011  -0.431  0.00  0.00    -0.930 OA
ATOM     19  C   LIG    1       -2.333   1.187   1.233  0.00  0.00    -0.310 C 
ENDBRANCH   2  13
BRANCH   2  20
ATOM     20  C   LIG    1        0.562   1.695   3.378  0.00  0.00    +0.350 C 
BRANCH  20  21
ATOM     21  C   LIG    1       -0.408   2.166   4.431  0.00  0.00    -0.090 A 
ATOM     22  C   LIG    1       -1.131   3.328   4.234  0.00  0.00    +0.020 A 
ATOM     23  C   LIG    1       -2.026   3.758   5.196  0.00  0.00    +0.020 A 
ATOM     24  C   LIG    1       -2.190   3.032   6.361  0.00  0.00    +0.020 A 
ATOM     25  C   LIG    1       -1.462   1.873   6.561  0.00  0.00    -0.040 A 
ATOM     26 CL   LIG    1       -1.668   0.960   8.024  0.00  0.00    -0.070 Cl
ATOM     27  C   LIG    1       -0.572   1.440   5.595  0.00  0.00    +0.050 A 
ENDBRANCH  20  21
ENDBRANCH   2  20
TORSDOF 5
