REMARK  Name = ZINCnE000001LfFg.1
REMARK                            x       y       z     vdW  Elec       q    Type
REMARK                         _______ _______ _______ _____ _____    ______ ____
ROOT
ATOM      1  S   LIG    1       -1.515   2.257  -0.400  0.00  0.00    +2.600 S 
ATOM      2  O   LIG    1       -2.352   1.413  -1.178  0.00  0.00    -1.030 OA
ATOM      3  O   LIG    1       -1.165   3.578  -0.791  0.00  0.00    -1.030 OA
ENDROOT
BRANCH   1   4
ATOM      4  C   LIG    1        0.000   1.387  -0.176  0.00  0.00    -0.630 A 
ATOM      5  C   LIG    1        1.193   2.082  -0.107  0.00  0.00    +0.020 A 
ATOM      6  C   LIG    1        2.383   1.398   0.062  0.00  0.00    -0.040 A 
ATOM      7  C   LIG    1        2.379   0.019   0.164  0.00  0.00    -0.050 A 
ATOM      8  C   LIG    1        1.186  -0.676   0.096  0.00  0.00    -0.040 A 
ATOM      9  C   LIG    1        3.675  -0.726   0.351  0.00  0.00    +0.100 C 
ATOM     10  C   LIG    1        1.197   3.584  -0.217  0.00  0.00    +0.110 C 
ATOM     11  C   LIG    1       -0.004   0.008  -0.075  0.00  0.00    +0.030 A 
ATOM     12  C   LIG    1       -1.304  -0.750  -0.149  0.00  0.00    +0.100 C 
ENDBRANCH   1   4
BRANCH   1  13
ATOM     13  N   LIG    1       -2.232   2.385   1.087  0.00  0.00    -1.070 NA
BRANCH  13  17
ATOM     14  C   LIG    1       -5.905   4.330   1.473  0.00  0.00    +0.050 A 
ATOM     15  C   LIG    1       -5.303   4.222   0.229  0.00  0.00    -0.060 A 
ATOM     16  C   LIG    1       -4.084   3.583   0.102  0.00  0.00    -0.100 A 
ATOM     17  C   LIG    1       -3.466   3.038   1.217  0.00  0.00    +0.240 A 
ATOM     18  C   LIG    1       -4.070   3.146   2.468  0.00  0.00    +0.100 A 
ATOM     19  C   LIG    1       -5.288   3.791   2.593  0.00  0.00    -0.080 A 
BRANCH  14  21
ATOM     20  C   LIG    1       -7.680   5.495   0.402  0.00  0.00    +0.220 C 
ATOM     21  O   LIG    1       -7.102   4.964   1.596  0.00  0.00    -0.330 OA
ENDBRANCH  14  21
BRANCH  18  22
ATOM     22  O   LIG    1       -3.463   2.618   3.565  0.00  0.00    -0.290 OA
ATOM     23  C   LIG    1       -4.140   2.765   4.815  0.00  0.00    +0.200 C 
ENDBRANCH  18  22
ENDBRANCH  13  17
ENDBRANCH   1  13
TORSDOF 5
