REMARK  Name = ZINCqH0000002pEh.0
REMARK                            x       y       z     vdW  Elec       q    Type
REMARK                         _______ _______ _______ _____ _____    ______ ____
ROOT
ATOM      1  N   LIG    1       -1.413   1.103  -0.953  0.00  0.00    -0.600 N 
ATOM      2  C   LIG    1       -2.583   1.765  -1.050  0.00  0.00    +0.570 C 
ATOM      3  O   LIG    1       -3.561   1.363  -0.450  0.00  0.00    -0.510 OA
ENDROOT
BRANCH   2   4
ATOM      4  C   LIG    1       -2.676   2.979  -1.885  0.00  0.00    -0.160 A 
ATOM      5  C   LIG    1       -2.128   2.990  -3.165  0.00  0.00    +0.160 A 
ATOM      6  C   LIG    1       -2.224   4.138  -3.948  0.00  0.00    -0.180 A 
ATOM      7  C   LIG    1       -2.860   5.278  -3.444  0.00  0.00    +0.110 A 
ATOM      8  C   LIG    1       -3.398   5.269  -2.177  0.00  0.00    -0.080 A 
ATOM      9  C   LIG    1       -3.312   4.128  -1.389  0.00  0.00    +0.190 A 
BRANCH   6  10
ATOM     10  C   LIG    1       -1.649   4.154  -5.308  0.00  0.00    +0.570 C 
ATOM     11  O   LIG    1       -1.096   3.164  -5.746  0.00  0.00    -0.540 OA
ATOM     12  N   LIG    1       -1.737   5.266  -6.064  0.00  0.00    -0.850 N 
ATOM     13  H   LIG    1       -1.360   5.277  -6.958  0.00  0.00    +0.410 HD
ATOM     14  H   LIG    1       -2.179   6.056  -5.715  0.00  0.00    +0.400 HD
ENDBRANCH   6  10
BRANCH   9  15
ATOM     15  O   LIG    1       -3.842   4.124  -0.142  0.00  0.00    -0.290 OA
ATOM     16  C   LIG    1       -4.474   5.328   0.297  0.00  0.00    +0.250 C 
ENDBRANCH   9  15
ENDBRANCH   2   4
BRANCH   1  17
ATOM     17  C   LIG    1       -0.209   1.645  -1.585  0.00  0.00    +0.270 C 
ATOM     18  C   LIG    1       -0.141   3.154  -1.343  0.00  0.00    +0.020 C 
BRANCH  17  19
ATOM     19  C   LIG    1        1.010   0.986  -0.993  0.00  0.00    -0.100 A 
ATOM     20  C   LIG    1        1.916   1.735  -0.265  0.00  0.00    +0.020 A 
ATOM     21  C   LIG    1        3.032   1.130   0.281  0.00  0.00    +0.000 A 
ATOM     22  C   LIG    1        3.247  -0.223   0.092  0.00  0.00    +0.010 A 
ATOM     23  C   LIG    1        2.344  -0.971  -0.640  0.00  0.00    +0.000 A 
ATOM     24  C   LIG    1        1.226  -0.366  -1.183  0.00  0.00    +0.020 A 
ENDBRANCH  17  19
ENDBRANCH   1  17
BRANCH   1  25
ATOM     25  C   LIG    1       -1.347  -0.161  -0.213  0.00  0.00    +0.270 C 
BRANCH  25  26
ATOM     26  C   LIG    1       -1.785  -1.309  -1.125  0.00  0.00    -0.010 C 
BRANCH  26  28
ATOM     27  C   LIG    1       -2.097  -3.782  -1.283  0.00  0.00    +0.000 C 
ATOM     28  C   LIG    1       -1.659  -2.634  -0.372  0.00  0.00    +0.000 C 
ENDBRANCH  26  28
ENDBRANCH  25  26
ENDBRANCH   1  25
TORSDOF 8
