REMARK  Name = ZINCrH00000No4E5.0
REMARK                            x       y       z     vdW  Elec       q    Type
REMARK                         _______ _______ _______ _____ _____    ______ ____
ROOT
ATOM      1  N   LIG    1       -1.727   5.950   0.317  0.00  0.00    -0.560 N 
ATOM      2  C   LIG    1       -1.899   6.327  -0.980  0.00  0.00    +0.520 C 
ATOM      3  C   LIG    1       -0.491   5.897  -1.337  0.00  0.00    +0.180 C 
ATOM      4  O   LIG    1       -2.818   6.815  -1.603  0.00  0.00    -0.460 OA
ATOM      5  C   LIG    1       -0.340   5.484   0.136  0.00  0.00    +0.320 C 
ENDROOT
BRANCH   1   9
ATOM      6  C   LIG    1       -4.240   6.067   3.642  0.00  0.00    +0.110 A 
ATOM      7  C   LIG    1       -4.691   6.531   2.415  0.00  0.00    +0.020 A 
ATOM      8  C   LIG    1       -3.860   6.493   1.313  0.00  0.00    +0.030 A 
ATOM      9  C   LIG    1       -2.571   5.990   1.434  0.00  0.00    +0.130 A 
ATOM     10  C   LIG    1       -2.122   5.520   2.661  0.00  0.00    +0.020 A 
ATOM     11  C   LIG    1       -2.953   5.564   3.763  0.00  0.00    -0.050 A 
BRANCH   6  13
ATOM     12  C   LIG    1       -4.530   5.609   5.957  0.00  0.00    +0.250 C 
ATOM     13  O   LIG    1       -5.060   6.104   4.726  0.00  0.00    -0.320 OA
ENDBRANCH   6  13
ENDBRANCH   1   9
BRANCH   5  14
ATOM     14  C   LIG    1       -0.169   4.000   0.334  0.00  0.00    -0.170 A 
ATOM     15  C   LIG    1        1.085   3.466   0.585  0.00  0.00    +0.090 A 
ATOM     16  C   LIG    1        1.196   2.094   0.761  0.00  0.00    -0.030 A 
ATOM     17  C   LIG    1        0.059   1.312   0.681  0.00  0.00    +0.270 A 
ATOM     18  N   LIG    1       -1.117   1.854   0.436  0.00  0.00    -0.480 NA
ATOM     19  C   LIG    1       -1.260   3.154   0.269  0.00  0.00    +0.280 A 
ENDBRANCH   5  14
BRANCH   3  20
ATOM     20  O   LIG    1        0.360   6.979  -1.720  0.00  0.00    -0.270 OA
BRANCH  20  21
ATOM     21  C   LIG    1        0.661   7.090  -3.041  0.00  0.00    +0.090 A 
ATOM     22  C   LIG    1        0.056   6.253  -3.965  0.00  0.00    -0.030 A 
ATOM     23  C   LIG    1        0.363   6.367  -5.307  0.00  0.00    +0.050 A 
ATOM     24  C   LIG    1        1.274   7.316  -5.731  0.00  0.00    +0.020 A 
ATOM     25  C   LIG    1        1.882   8.154  -4.813  0.00  0.00    +0.030 A 
ATOM     26  C   LIG    1        1.573   8.048  -3.469  0.00  0.00    +0.080 A 
ATOM     27  F   LIG    1        2.162   8.870  -2.573  0.00  0.00    -0.130 F 
ENDBRANCH  20  21
ENDBRANCH   3  20
TORSDOF 5
