REMARK  Name = ZINCvU0000000A4e.0
REMARK                            x       y       z     vdW  Elec       q    Type
REMARK                         _______ _______ _______ _____ _____    ______ ____
ROOT
ATOM      1  C   LIG    1        1.116  -0.848   0.459  0.00  0.00    +0.370 C 
ATOM      2  C   LIG    1        0.675  -2.318   0.290  0.00  0.00    +0.060 C 
ATOM      3  C   LIG    1       -0.873  -2.219   0.270  0.00  0.00    +0.040 C 
ATOM      4  C   LIG    1       -1.089  -0.876  -0.471  0.00  0.00    +0.280 C 
ATOM      5  N   LIG    1        0.002  -0.004   0.002  0.00  0.00    -0.990 NA
ENDROOT
BRANCH   1   9
ATOM      6  C   LIG    1        4.399  -0.190  -0.953  0.00  0.00    -0.010 A 
ATOM      7  C   LIG    1        3.631  -0.231  -2.068  0.00  0.00    +0.020 A 
ATOM      8  N   LIG    1        2.361  -0.478  -1.675  0.00  0.00    -0.450 NA
ATOM      9  C   LIG    1        2.340  -0.578  -0.378  0.00  0.00    +0.170 A 
ATOM     10  O   LIG    1        3.582  -0.408   0.095  0.00  0.00    -0.180 OA
BRANCH   7  11
ATOM     11  C   LIG    1        4.097  -0.044  -3.465  0.00  0.00    -0.010 A 
ATOM     12  C   LIG    1        5.124   0.856  -3.745  0.00  0.00    +0.020 A 
ATOM     13  C   LIG    1        5.558   1.020  -5.044  0.00  0.00    +0.010 A 
ATOM     14  C   LIG    1        4.968   0.303  -6.069  0.00  0.00    +0.000 A 
ATOM     15  C   LIG    1        3.945  -0.587  -5.798  0.00  0.00    +0.010 A 
ATOM     16  C   LIG    1        3.507  -0.765  -4.501  0.00  0.00    +0.040 A 
ENDBRANCH   7  11
BRANCH   6  18
ATOM     17  C   LIG    1        6.165   1.305  -0.062  0.00  0.00    +0.040 C 
ATOM     18  C   LIG    1        5.885   0.053  -0.896  0.00  0.00    +0.090 C 
ATOM     19  C   LIG    1        6.575  -1.152  -0.254  0.00  0.00    +0.040 C 
ENDBRANCH   6  18
ENDBRANCH   1   9
BRANCH   5  20
ATOM     20  S   LIG    1       -0.020   1.652   0.011  0.00  0.00    +2.710 S 
ATOM     21  O   LIG    1       -0.964   2.046  -0.976  0.00  0.00    -0.940 OA
ATOM     22  O   LIG    1        1.337   2.071   0.000  0.00  0.00    -0.940 OA
BRANCH  20  23
ATOM     23  C   LIG    1       -0.685   2.156   1.563  0.00  0.00    -0.680 A 
ATOM     24  C   LIG    1        0.157   2.366   2.639  0.00  0.00    +0.140 A 
ATOM     25  C   LIG    1       -0.363   2.762   3.858  0.00  0.00    +0.030 A 
ATOM     26  C   LIG    1       -1.723   2.947   3.999  0.00  0.00    -0.070 A 
ATOM     27  C   LIG    1       -2.585   3.366   5.167  0.00  0.00    +0.280 C 
ATOM     28  O   LIG    1       -3.928   2.977   4.827  0.00  0.00    -0.360 OA
ATOM     29  C   LIG    1       -3.975   3.019   3.389  0.00  0.00    +0.270 C 
ATOM     30  C   LIG    1       -2.567   2.737   2.919  0.00  0.00    -0.150 A 
ATOM     31  C   LIG    1       -2.048   2.347   1.702  0.00  0.00    +0.150 A 
ENDBRANCH  20  23
ENDBRANCH   5  20
TORSDOF 5
