REMARK  Name = ZINCrD000000BBda.0
REMARK                            x       y       z     vdW  Elec       q    Type
REMARK                         _______ _______ _______ _____ _____    ______ ____
ROOT
ATOM      1  C   LIG    1       -2.456   0.868   0.018  0.00  0.00    -0.230 A 
ATOM      2  C   LIG    1       -2.447  -0.533   0.011  0.00  0.00    +0.370 A 
ATOM      3  N   LIG    1       -3.563  -1.224   0.013  0.00  0.00    -0.500 NA
ATOM      4  C   LIG    1       -4.753  -0.633   0.021  0.00  0.00    +0.340 A 
ATOM      5  C   LIG    1       -4.846   0.775   0.029  0.00  0.00    -0.240 A 
ATOM      6  C   LIG    1       -6.271   1.095   0.037  0.00  0.00    +0.310 A 
ATOM      7  N   LIG    1       -6.926  -0.030   0.035  0.00  0.00    -0.230 NA
ATOM      8  N   LIG    1       -6.035  -1.107   0.025  0.00  0.00    -0.380 N 
ATOM      9  C   LIG    1       -3.679   1.540   0.034  0.00  0.00    +0.240 A 
ENDROOT
BRANCH   1  11
ATOM     10  O   LIG    1       -1.204   2.839   0.023  0.00  0.00    -0.510 OA
ATOM     11  C   LIG    1       -1.187   1.624   0.017  0.00  0.00    +0.590 C 
ATOM     12  N   LIG    1       -0.011   0.966   0.007  0.00  0.00    -0.600 N 
ATOM     13  H   LIG    1        0.002  -0.004   0.002  0.00  0.00    +0.410 HD
BRANCH  12  14
ATOM     14  O   LIG    1        1.205   1.690  -0.000  0.00  0.00    -0.130 OA
BRANCH  14  15
ATOM     15  C   LIG    1        2.373   0.866  -0.016  0.00  0.00    +0.210 C 
BRANCH  15  16
ATOM     16  C   LIG    1        3.603   1.737  -0.023  0.00  0.00    -0.100 A 
ATOM     17  C   LIG    1        4.158   2.139  -1.223  0.00  0.00    +0.040 A 
ATOM     18  C   LIG    1        5.284   2.942  -1.230  0.00  0.00    +0.010 A 
ATOM     19  C   LIG    1        5.859   3.335  -0.036  0.00  0.00    +0.020 A 
ATOM     20  C   LIG    1        5.306   2.929   1.164  0.00  0.00    +0.010 A 
ATOM     21  C   LIG    1        4.178   2.130   1.171  0.00  0.00    +0.040 A 
ENDBRANCH  15  16
ENDBRANCH  14  15
ENDBRANCH  12  14
ENDBRANCH   1  11
BRANCH   8  22
ATOM     22  C   LIG    1       -6.414  -2.522   0.020  0.00  0.00    +0.400 C 
BRANCH  22  23
ATOM     23  C   LIG    1       -6.538  -3.014   1.439  0.00  0.00    -0.120 A 
ATOM     24  C   LIG    1       -5.440  -3.555   2.081  0.00  0.00    +0.040 A 
ATOM     25  C   LIG    1       -5.553  -4.002   3.385  0.00  0.00    +0.000 A 
ATOM     26  C   LIG    1       -6.766  -3.917   4.042  0.00  0.00    +0.010 A 
ATOM     27  C   LIG    1       -7.865  -3.381   3.398  0.00  0.00    +0.010 A 
ATOM     28  C   LIG    1       -7.751  -2.929   2.096  0.00  0.00    +0.040 A 
ENDBRANCH  22  23
ENDBRANCH   8  22
TORSDOF 6
