REMARK  Name = ZINCrH000004kWFZ.0
REMARK                            x       y       z     vdW  Elec       q    Type
REMARK                         _______ _______ _______ _____ _____    ______ ____
ROOT
ATOM      1  N   LIG    1        2.620  -0.067  -0.617  0.00  0.00    -0.720 N 
ATOM      2  H   LIG    1        1.829  -0.625  -0.553  0.00  0.00    +0.400 HD
ATOM      3  C   LIG    1        2.515   1.270  -0.476  0.00  0.00    +0.570 C 
ATOM      4  O   LIG    1        3.506   1.969  -0.556  0.00  0.00    -0.520 OA
ENDROOT
BRANCH   3   5
ATOM      5  C   LIG    1        1.195   1.884  -0.223  0.00  0.00    -0.200 A 
ATOM      6  C   LIG    1        0.031   1.105  -0.258  0.00  0.00    +0.110 A 
ATOM      7  C   LIG    1       -1.181   1.725  -0.022  0.00  0.00    -0.040 A 
ATOM      8  C   LIG    1       -1.204   3.092   0.253  0.00  0.00    +0.210 A 
ATOM      9  N   LIG    1       -0.081   3.800   0.279  0.00  0.00    -0.480 NA
ATOM     10  C   LIG    1        1.091   3.249   0.054  0.00  0.00    +0.200 A 
ATOM     11  C   LIG    1        2.335   4.098   0.096  0.00  0.00    +0.150 C 
BRANCH   8  12
ATOM     12  C   LIG    1       -2.499   3.764   0.513  0.00  0.00    -0.060 A 
ATOM     13  C   LIG    1       -3.686   3.032   0.483  0.00  0.00    +0.030 A 
ATOM     14  C   LIG    1       -4.888   3.662   0.732  0.00  0.00    +0.000 A 
ATOM     15  C   LIG    1       -4.919   5.019   0.999  0.00  0.00    +0.030 A 
ATOM     16  C   LIG    1       -3.745   5.751   1.025  0.00  0.00    +0.000 A 
ATOM     17  C   LIG    1       -2.536   5.131   0.784  0.00  0.00    +0.070 A 
ENDBRANCH   8  12
ENDBRANCH   3   5
BRANCH   1  18
ATOM     18  C   LIG    1        3.929  -0.676  -0.868  0.00  0.00    +0.330 C 
BRANCH  18  22
ATOM     19  C   LIG    1        3.487  -4.916  -1.203  0.00  0.00    -0.120 A 
ATOM     20  C   LIG    1        3.384  -4.109  -2.337  0.00  0.00    +0.090 A 
ATOM     21  C   LIG    1        3.527  -2.741  -2.222  0.00  0.00    +0.030 A 
ATOM     22  C   LIG    1        3.773  -2.170  -0.986  0.00  0.00    -0.080 A 
ATOM     23  C   LIG    1        3.881  -2.965   0.142  0.00  0.00    +0.030 A 
ATOM     24  C   LIG    1        3.734  -4.333   0.042  0.00  0.00    +0.080 A 
BRANCH  19  25
ATOM     25  C   LIG    1        3.335  -6.381  -1.319  0.00  0.00    +0.510 C 
ATOM     26  O   LIG    1        3.120  -6.886  -2.402  0.00  0.00    -0.500 OA
BRANCH  25  28
ATOM     27  C   LIG    1        3.275  -8.588  -0.411  0.00  0.00    +0.290 C 
ATOM     28  O   LIG    1        3.435  -7.157  -0.222  0.00  0.00    -0.350 OA
ENDBRANCH  25  28
ENDBRANCH  19  25
ENDBRANCH  18  22
ENDBRANCH   1  18
TORSDOF 6
