REMARK  Name = ZINCvU0000000Amg.0
REMARK                            x       y       z     vdW  Elec       q    Type
REMARK                         _______ _______ _______ _____ _____    ______ ____
ROOT
ATOM      1  N   LIG    1       -1.132  -7.802  -3.944  0.00  0.00    -0.590 N 
ATOM      2  C   LIG    1       -0.795  -6.497  -3.907  0.00  0.00    +0.570 C 
ATOM      3  O   LIG    1       -0.638  -5.940  -2.838  0.00  0.00    -0.520 OA
ATOM      4  C   LIG    1       -1.248  -8.492  -5.231  0.00  0.00    +0.300 C 
ENDROOT
BRANCH   2   5
ATOM      5  C   LIG    1       -0.616  -5.744  -5.167  0.00  0.00    -0.110 A 
ATOM      6  C   LIG    1       -1.509  -4.728  -5.508  0.00  0.00    +0.060 A 
ATOM      7  C   LIG    1       -1.337  -4.029  -6.685  0.00  0.00    +0.040 A 
ATOM      8  C   LIG    1       -0.282  -4.334  -7.526  0.00  0.00    -0.080 A 
ATOM      9  C   LIG    1        0.604  -5.344  -7.196  0.00  0.00    +0.040 A 
ATOM     10  C   LIG    1        0.447  -6.047  -6.020  0.00  0.00    +0.040 A 
BRANCH   8  11
ATOM     11  C   LIG    1       -0.100  -3.567  -8.811  0.00  0.00    +0.260 C 
BRANCH  11  12
ATOM     12  O   LIG    1        0.730  -2.428  -8.572  0.00  0.00    -0.300 OA
BRANCH  12  13
ATOM     13  C   LIG    1        0.995  -1.624  -9.636  0.00  0.00    +0.140 A 
ATOM     14  C   LIG    1        0.471  -1.928 -10.884  0.00  0.00    -0.060 A 
ATOM     15  C   LIG    1        0.738  -1.107 -11.962  0.00  0.00    +0.070 A 
ATOM     16  C   LIG    1        1.534   0.013 -11.800  0.00  0.00    -0.070 A 
ATOM     17  C   LIG    1        2.062   0.315 -10.557  0.00  0.00    +0.070 A 
ATOM     18 CL   LIG    1        1.873   1.040 -13.158  0.00  0.00    -0.070 Cl
ATOM     19  C   LIG    1        1.794  -0.501  -9.475  0.00  0.00    +0.000 A 
ENDBRANCH  12  13
ENDBRANCH  11  12
ENDBRANCH   8  11
ENDBRANCH   2   5
BRANCH   1  20
ATOM     20  C   LIG    1       -1.384  -8.529  -2.697  0.00  0.00    +0.330 C 
BRANCH  20  23
ATOM     21  N   LIG    1       -3.309  -9.017  -1.223  0.00  0.00    -0.680 N 
ATOM     22  H   LIG    1       -2.722  -9.576  -0.691  0.00  0.00    +0.410 HD
ATOM     23  C   LIG    1       -2.844  -8.421  -2.339  0.00  0.00    +0.500 C 
ATOM     24  O   LIG    1       -3.599  -7.798  -3.054  0.00  0.00    -0.510 OA
BRANCH  21  32
ATOM     25  C   LIG    1       -4.008  -6.557   0.026  0.00  0.00    +0.090 C 
ATOM     26  C   LIG    1       -5.023  -7.643  -0.219  0.00  0.00    -0.070 A 
ATOM     27  C   LIG    1       -6.338  -7.459   0.161  0.00  0.00    +0.010 A 
ATOM     28  C   LIG    1       -7.270  -8.457  -0.059  0.00  0.00    +0.020 A 
ATOM     29  C   LIG    1       -6.889  -9.640  -0.665  0.00  0.00    +0.010 A 
ATOM     30  C   LIG    1       -5.577  -9.829  -1.052  0.00  0.00    -0.080 A 
ATOM     31  C   LIG    1       -5.163 -11.119  -1.711  0.00  0.00    +0.090 C 
ATOM     32  C   LIG    1       -4.639  -8.829  -0.832  0.00  0.00    +0.130 A 
ENDBRANCH  21  32
ENDBRANCH  20  23
ENDBRANCH   1  20
TORSDOF 7
