REMARK  Name = ZINCpe000000TBV6.0
REMARK                            x       y       z     vdW  Elec       q    Type
REMARK                         _______ _______ _______ _____ _____    ______ ____
ROOT
ATOM      1  C   LIG    1       -6.314   9.567   4.215  0.00  0.00    -0.470 C 
ATOM      2  C   LIG    1       -7.050   8.584   5.163  0.00  0.00    +0.090 C 
ATOM      3  C   LIG    1       -6.609   7.202   4.638  0.00  0.00    +0.260 C 
ATOM      4  N   LIG    1       -5.350   7.396   3.903  0.00  0.00    -0.630 N 
ATOM      5  C   LIG    1       -4.651   6.430   3.274  0.00  0.00    +0.730 C 
ATOM      6  N   LIG    1       -5.097   5.158   3.287  0.00  0.00    -0.660 N 
ATOM      7  H   LIG    1       -5.921   4.938   3.749  0.00  0.00    +0.410 HD
ATOM      8  O   LIG    1       -3.618   6.707   2.695  0.00  0.00    -0.550 OA
ATOM      9  C   LIG    1       -4.977   8.820   3.973  0.00  0.00    +0.340 C 
ENDROOT
BRANCH   6  10
ATOM     10  C   LIG    1       -4.373   4.159   2.636  0.00  0.00    +0.320 A 
ATOM     11  C   LIG    1       -3.208   4.325   1.952  0.00  0.00    -0.080 A 
ATOM     12  C   LIG    1       -2.821   3.077   1.456  0.00  0.00    +0.090 A 
ATOM     13  N   LIG    1       -3.716   2.195   1.820  0.00  0.00    -0.260 NA
ATOM     14  N   LIG    1       -4.703   2.849   2.569  0.00  0.00    -0.390 N 
ATOM     15  C   LIG    1       -5.885   2.225   3.169  0.00  0.00    +0.360 C 
BRANCH  12  16
ATOM     16  C   LIG    1       -1.587   2.797   0.638  0.00  0.00    +0.250 C 
ATOM     17  C   LIG    1       -0.788   1.610   1.241  0.00  0.00    +0.020 C 
ATOM     18  C   LIG    1       -0.013   1.086   0.008  0.00  0.00    +0.000 C 
ATOM     19  C   LIG    1       -0.808   1.621  -1.198  0.00  0.00    +0.200 C 
ATOM     20  O   LIG    1       -1.946   2.329  -0.680  0.00  0.00    -0.370 OA
ENDBRANCH  12  16
ENDBRANCH   6  10
BRANCH   1  21
ATOM     21  S   LIG    1       -6.027  11.163   5.028  0.00  0.00    +2.630 S 
ATOM     22  O   LIG    1       -5.078  11.024   6.077  0.00  0.00    -0.950 OA
ATOM     23  O   LIG    1       -7.256  11.845   5.238  0.00  0.00    -0.940 OA
BRANCH  21  24
ATOM     24  N   LIG    1       -5.244  12.073   3.888  0.00  0.00    -1.120 NA
ATOM     25  H   LIG    1       -4.330  12.359   4.040  0.00  0.00    +0.420 HD
BRANCH  24  27
ATOM     26  C   LIG    1       -5.158  13.567   1.953  0.00  0.00    +0.040 C 
ATOM     27  C   LIG    1       -5.933  12.446   2.650  0.00  0.00    +0.250 C 
ENDBRANCH  24  27
ENDBRANCH  21  24
ENDBRANCH   1  21
TORSDOF 5
