REMARK  Name = ZINCrD0000075AZc.0
REMARK                            x       y       z     vdW  Elec       q    Type
REMARK                         _______ _______ _______ _____ _____    ______ ____
ROOT
ATOM      1  O   LIG    1       -5.129   2.880   3.038  0.00  0.00    -0.510 OA
ATOM      2  C   LIG    1       -5.541   2.133   2.173  0.00  0.00    +0.560 C 
ATOM      3  N   LIG    1       -4.707   1.690   1.211  0.00  0.00    -0.720 N 
ATOM      4  H   LIG    1       -5.037   1.093   0.521  0.00  0.00    +0.400 HD
ENDROOT
BRANCH   2   5
ATOM      5  C   LIG    1       -6.956   1.709   2.176  0.00  0.00    -0.180 A 
ATOM      6  C   LIG    1       -7.435   0.855   1.181  0.00  0.00    +0.120 A 
ATOM      7  C   LIG    1       -8.756   0.459   1.192  0.00  0.00    +0.010 A 
ATOM      8  C   LIG    1       -9.611   0.914   2.181  0.00  0.00    +0.140 A 
ATOM      9  C   LIG    1       -9.148   1.765   3.167  0.00  0.00    -0.230 A 
ATOM     10  C   LIG    1       -7.825   2.166   3.172  0.00  0.00    +0.210 A 
ATOM     11  F   LIG    1       -7.372   2.998   4.137  0.00  0.00    -0.100 F 
BRANCH   9  12
ATOM     12  C   LIG    1      -10.087   2.255   4.239  0.00  0.00    +0.510 C 
ATOM     13  F   LIG    1      -10.156   3.652   4.195  0.00  0.00    -0.170 F 
ATOM     14  F   LIG    1       -9.615   1.851   5.493  0.00  0.00    -0.170 F 
ATOM     15  F   LIG    1      -11.361   1.718   4.025  0.00  0.00    -0.170 F 
ENDBRANCH   9  12
ENDBRANCH   2   5
BRANCH   3  16
ATOM     16  C   LIG    1       -3.304   2.110   1.208  0.00  0.00    +0.270 C 
BRANCH  16  17
ATOM     17  C   LIG    1       -2.583   1.470   0.020  0.00  0.00    +0.150 C 
BRANCH  17  18
ATOM     18  C   LIG    1       -1.139   1.903   0.017  0.00  0.00    +0.010 A 
ATOM     19  N   LIG    1       -0.681   3.134   0.025  0.00  0.00    -0.280 NA
ATOM     20  N   LIG    1        0.604   3.097   0.013  0.00  0.00    -0.100 N 
ATOM     21  N   LIG    1        1.025   1.882   0.002  0.00  0.00    -0.280 NA
ATOM     22  C   LIG    1       -0.013   1.076   0.008  0.00  0.00    +0.200 A 
BRANCH  20  23
ATOM     23  C   LIG    1        1.434   4.227   0.011  0.00  0.00    +0.140 A 
ATOM     24  C   LIG    1        0.877   5.499   0.018  0.00  0.00    +0.040 A 
ATOM     25  C   LIG    1        1.697   6.611   0.021  0.00  0.00    +0.040 A 
ATOM     26  C   LIG    1        3.071   6.458   0.006  0.00  0.00    +0.020 A 
ATOM     27  C   LIG    1        3.629   5.192  -0.006  0.00  0.00    +0.040 A 
ATOM     28  C   LIG    1        2.814   4.077  -0.003  0.00  0.00    +0.040 A 
ENDBRANCH  20  23
ENDBRANCH  17  18
ENDBRANCH  16  17
ENDBRANCH   3  16
TORSDOF 6
