REMARK  Name = ZINCvU00000005UB.0
REMARK                            x       y       z     vdW  Elec       q    Type
REMARK                         _______ _______ _______ _____ _____    ______ ____
ROOT
ATOM      1  C   LIG    1       -2.429   1.248  -7.090  0.00  0.00    +0.100 C 
ENDROOT
BRANCH   1   2
ATOM      2  C   LIG    1       -2.287   1.751  -5.677  0.00  0.00    +0.530 C 
ATOM      3  N   LIG    1       -1.560   1.052  -4.782  0.00  0.00    -0.630 N 
ATOM      4  H   LIG    1       -1.129   0.225  -5.048  0.00  0.00    +0.420 HD
ATOM      5  O   LIG    1       -2.826   2.785  -5.344  0.00  0.00    -0.480 OA
BRANCH   3   6
ATOM      6  C   LIG    1       -1.430   1.515  -3.480  0.00  0.00    +0.050 A 
ATOM      7  C   LIG    1       -0.719   0.886  -2.501  0.00  0.00    -0.110 A 
ATOM      8  C   LIG    1       -0.742   1.586  -1.227  0.00  0.00    -0.040 A 
ATOM      9  C   LIG    1       -1.470   2.707  -1.277  0.00  0.00    -0.240 A 
ATOM     10  C   LIG    1       -1.702   3.648  -0.113  0.00  0.00    +0.110 C 
ATOM     11  C   LIG    1       -0.377   3.954   0.584  0.00  0.00    +0.020 C 
ATOM     12  C   LIG    1       -0.141   2.926   1.687  0.00  0.00    +0.000 C 
ATOM     13  C   LIG    1       -0.721   1.575   1.267  0.00  0.00    +0.030 C 
ATOM     14  C   LIG    1       -0.013   1.086   0.008  0.00  0.00    +0.090 C 
ATOM     15  S   LIG    1       -2.134   2.947  -2.888  0.00  0.00    +0.320 S 
BRANCH   7  16
ATOM     16  C   LIG    1       -0.018  -0.346  -2.707  0.00  0.00    +0.270 C 
ATOM     17  N   LIG    1        0.538  -1.323  -2.871  0.00  0.00    -0.420 NA
ENDBRANCH   7  16
ENDBRANCH   3   6
ENDBRANCH   1   2
BRANCH   1  18
ATOM     18  S   LIG    1       -3.455   2.398  -8.040  0.00  0.00    +0.080 S 
BRANCH  18  30
ATOM     19  C   LIG    1       -7.194   6.967 -11.443  0.00  0.00    +0.030 C 
ATOM     20  C   LIG    1       -6.154   5.861 -11.253  0.00  0.00    -0.010 C 
ATOM     21  C   LIG    1       -6.335   5.215  -9.876  0.00  0.00    +0.040 C 
ATOM     22  C   LIG    1       -5.144   4.297  -9.594  0.00  0.00    +0.120 C 
ATOM     23  C   LIG    1       -4.947   3.367 -10.783  0.00  0.00    -0.070 A 
ATOM     24  C   LIG    1       -5.477   3.591 -11.987  0.00  0.00    -0.160 A 
ATOM     25  S   LIG    1       -5.048   2.321 -13.121  0.00  0.00    +0.180 S 
ATOM     26  C   LIG    1       -4.115   1.454 -11.915  0.00  0.00    +0.100 A 
ATOM     27  N   LIG    1       -3.421   0.309 -11.989  0.00  0.00    -0.490 NA
ATOM     28  C   LIG    1       -2.786  -0.166 -10.943  0.00  0.00    +0.540 A 
ATOM     29  N   LIG    1       -2.791   0.453  -9.776  0.00  0.00    -0.530 NA
ATOM     30  C   LIG    1       -3.453   1.588  -9.605  0.00  0.00    +0.190 A 
ATOM     31  C   LIG    1       -4.157   2.144 -10.706  0.00  0.00    -0.150 A 
ATOM     32  C   LIG    1       -6.341   4.792 -12.332  0.00  0.00    +0.130 C 
ENDBRANCH  18  30
ENDBRANCH   1  18
TORSDOF 5
