REMARK  Name = ZINCvU0000000EeO.0
REMARK                            x       y       z     vdW  Elec       q    Type
REMARK                         _______ _______ _______ _____ _____    ______ ____
ROOT
ATOM      1  C   LIG    1        1.402   3.560   0.042  0.00  0.00    +0.080 A 
ATOM      2  C   LIG    1        1.276   4.300  -1.064  0.00  0.00    -0.060 A 
ATOM      3  S   LIG    1        1.302   5.999  -0.596  0.00  0.00    +0.110 S 
ATOM      4  C   LIG    1        1.486   5.526   1.091  0.00  0.00    +0.100 A 
ATOM      5  N   LIG    1        1.506   4.227   1.169  0.00  0.00    -0.450 NA
ENDROOT
BRANCH   1  10
ATOM      6  C   LIG    1        0.293  -1.335  -2.032  0.00  0.00    +0.650 C 
ATOM      7  N   LIG    1        0.803  -0.460  -1.143  0.00  0.00    -0.600 N 
ATOM      8  C   LIG    1        0.002  -0.004   0.002  0.00  0.00    +0.310 C 
ATOM      9  C   LIG    1       -0.019   1.528   0.010  0.00  0.00    +0.030 C 
ATOM     10  C   LIG    1        1.419   2.053  -0.001  0.00  0.00    +0.090 C 
ATOM     11  C   LIG    1        2.124   1.587  -1.276  0.00  0.00    +0.020 C 
ATOM     12  C   LIG    1        2.170   0.056  -1.299  0.00  0.00    +0.280 C 
ATOM     13  O   LIG    1       -0.839  -1.754  -1.892  0.00  0.00    -0.570 OA
BRANCH   6  14
ATOM     14  O   LIG    1        1.038  -1.744  -3.076  0.00  0.00    -0.360 OA
BRANCH  14  16
ATOM     15  C   LIG    1       -0.831  -2.061  -4.605  0.00  0.00    +0.040 C 
ATOM     16  C   LIG    1        0.424  -2.687  -3.994  0.00  0.00    +0.140 C 
ATOM     17  C   LIG    1        0.043  -3.961  -3.237  0.00  0.00    +0.040 C 
ATOM     18  C   LIG    1        1.415  -3.033  -5.108  0.00  0.00    +0.080 C 
ENDBRANCH  14  16
ENDBRANCH   6  14
ENDBRANCH   1  10
BRANCH   4  19
ATOM     19  C   LIG    1        1.595   6.456   2.236  0.00  0.00    -0.040 A 
ATOM     20  C   LIG    1        1.738   5.958   3.531  0.00  0.00    +0.150 A 
ATOM     21  C   LIG    1        1.839   6.831   4.595  0.00  0.00    +0.020 A 
ATOM     22  C   LIG    1        1.799   8.197   4.379  0.00  0.00    +0.160 A 
ATOM     23  C   LIG    1        1.657   8.697   3.097  0.00  0.00    -0.660 A 
ATOM     24  C   LIG    1        1.560   7.835   2.024  0.00  0.00    +0.160 A 
BRANCH  23  25
ATOM     25  S   LIG    1        1.608  10.438   2.833  0.00  0.00    +2.490 S 
ATOM     26  O   LIG    1        1.123  10.965   4.060  0.00  0.00    -0.850 OA
ATOM     27  O   LIG    1        0.870  10.589   1.628  0.00  0.00    -0.850 OA
BRANCH  25  28
ATOM     28  C   LIG    1        3.342  10.907   2.580  0.00  0.00    -0.020 C 
ATOM     29  F   LIG    1        4.086  10.572   3.717  0.00  0.00    -0.160 F 
ATOM     30  F   LIG    1        3.425  12.286   2.358  0.00  0.00    -0.160 F 
ATOM     31  F   LIG    1        3.853  10.225   1.471  0.00  0.00    -0.160 F 
ENDBRANCH  25  28
ENDBRANCH  23  25
ENDBRANCH   4  19
TORSDOF 6
