REMARK  Name = ZINCqH00000055Nt.1
REMARK                            x       y       z     vdW  Elec       q    Type
REMARK                         _______ _______ _______ _____ _____    ______ ____
ROOT
ATOM      1  N   LIG    1       -2.444   3.582   1.750  0.00  0.00    -0.720 N 
ATOM      2  H   LIG    1       -2.986   3.875   1.001  0.00  0.00    +0.410 HD
ATOM      3  C   LIG    1       -2.652   4.100   2.977  0.00  0.00    +0.560 C 
ATOM      4  O   LIG    1       -1.972   3.733   3.915  0.00  0.00    -0.520 OA
ENDROOT
BRANCH   3   5
ATOM      5  C   LIG    1       -3.705   5.114   3.180  0.00  0.00    -0.160 A 
ATOM      6  C   LIG    1       -4.473   5.533   2.106  0.00  0.00    +0.100 A 
ATOM      7  C   LIG    1       -5.476   6.493   2.307  0.00  0.00    -0.070 A 
ATOM      8  C   LIG    1       -6.278   6.938   1.241  0.00  0.00    +0.040 A 
ATOM      9  C   LIG    1       -7.240   7.874   1.466  0.00  0.00    +0.010 A 
ATOM     10  C   LIG    1       -7.443   8.402   2.740  0.00  0.00    +0.030 A 
ATOM     11  C   LIG    1       -6.687   7.995   3.796  0.00  0.00    +0.020 A 
ATOM     12  C   LIG    1       -5.684   7.029   3.604  0.00  0.00    -0.020 A 
ATOM     13  C   LIG    1       -4.887   6.591   4.675  0.00  0.00    -0.010 A 
ATOM     14  C   LIG    1       -3.920   5.654   4.466  0.00  0.00    +0.160 A 
BRANCH  14  15
ATOM     15  O   LIG    1       -3.154   5.235   5.506  0.00  0.00    -0.480 OA
ATOM     16  H   LIG    1       -2.349   5.754   5.636  0.00  0.00    +0.390 HD
ENDBRANCH  14  15
ENDBRANCH   3   5
BRANCH   1  17
ATOM     17  C   LIG    1       -1.398   2.575   1.548  0.00  0.00    +0.280 C 
BRANCH  17  18
ATOM     18  C   LIG    1       -1.371   2.156   0.077  0.00  0.00    +0.210 C 
BRANCH  18  19
ATOM     19  C   LIG    1       -0.218   1.214  -0.156  0.00  0.00    -0.090 A 
ATOM     20  C   LIG    1        1.051   1.557   0.272  0.00  0.00    +0.010 A 
ATOM     21  C   LIG    1        2.109   0.691   0.064  0.00  0.00    +0.050 A 
ATOM     22  C   LIG    1        1.899  -0.517  -0.572  0.00  0.00    -0.010 A 
ATOM     23  C   LIG    1        0.628  -0.861  -1.001  0.00  0.00    +0.100 A 
ATOM     24  F   LIG    1        0.421  -2.043  -1.623  0.00  0.00    -0.140 F 
ATOM     25  C   LIG    1       -0.431   0.006  -0.792  0.00  0.00    +0.000 A 
ENDBRANCH  18  19
BRANCH  18  27
ATOM     26  C   LIG    1        0.036   4.056  -0.446  0.00  0.00    +0.180 C 
ATOM     27  N   LIG    1       -1.210   3.347  -0.768  0.00  0.00    -0.530 NA
ATOM     28  C   LIG    1       -1.260   2.992  -2.193  0.00  0.00    +0.190 C 
ENDBRANCH  18  27
ENDBRANCH  17  18
ENDBRANCH   1  17
TORSDOF 6
