REMARK  Name = ZINCqH00000519l2.0
REMARK                            x       y       z     vdW  Elec       q    Type
REMARK                         _______ _______ _______ _____ _____    ______ ____
ROOT
ATOM      1  O   LIG    1       -5.672   3.808   0.051  0.00  0.00    -0.500 OA
ATOM      2  C   LIG    1       -5.881   2.614   0.046  0.00  0.00    +0.520 C 
ATOM      3  N   LIG    1       -4.848   1.748   0.036  0.00  0.00    -0.620 N 
ATOM      4  H   LIG    1       -5.016   0.793   0.032  0.00  0.00    +0.430 HD
ENDROOT
BRANCH   3   5
ATOM      5  C   LIG    1       -3.543   2.224   0.032  0.00  0.00    +0.270 A 
ATOM      6  N   LIG    1       -2.476   1.487   0.022  0.00  0.00    -0.500 NA
ATOM      7  C   LIG    1       -1.310   2.116   0.020  0.00  0.00    +0.130 A 
ATOM      8  C   LIG    1       -1.379   3.460   0.033  0.00  0.00    -0.110 A 
ATOM      9  S   LIG    1       -3.079   3.923   0.039  0.00  0.00    +0.210 S 
BRANCH   7  10
ATOM     10  C   LIG    1       -0.017   1.390   0.010  0.00  0.00    -0.020 A 
ATOM     11  C   LIG    1        1.184   2.098   0.002  0.00  0.00    +0.020 A 
ATOM     12  C   LIG    1        2.384   1.416  -0.014  0.00  0.00    +0.010 A 
ATOM     13  C   LIG    1        2.396   0.033  -0.021  0.00  0.00    +0.010 A 
ATOM     14  C   LIG    1        1.208  -0.675  -0.013  0.00  0.00    +0.010 A 
ATOM     15  C   LIG    1        0.002  -0.004   0.002  0.00  0.00    +0.040 A 
ENDBRANCH   7  10
ENDBRANCH   3   5
BRANCH   2  16
ATOM     16  C   LIG    1       -7.297   2.097   0.051  0.00  0.00    +0.070 C 
BRANCH  16  17
ATOM     17  C   LIG    1       -8.271   3.277   0.062  0.00  0.00    +0.370 C 
BRANCH  17  18
ATOM     18  N   LIG    1       -9.647   2.775   0.067  0.00  0.00    -0.550 N 
ATOM     19  C   LIG    1      -10.390   2.497   1.157  0.00  0.00    +0.640 A 
ATOM     20  O   LIG    1      -11.599   2.059   0.773  0.00  0.00    -0.230 OA
ATOM     21  C   LIG    1      -11.659   2.046  -0.581  0.00  0.00    +0.040 A 
ATOM     22  C   LIG    1      -12.652   1.691  -1.480  0.00  0.00    +0.060 A 
ATOM     23  C   LIG    1      -12.419   1.786  -2.838  0.00  0.00    +0.030 A 
ATOM     24  C   LIG    1      -11.197   2.234  -3.307  0.00  0.00    +0.040 A 
ATOM     25  C   LIG    1      -10.200   2.591  -2.418  0.00  0.00    +0.040 A 
ATOM     26  O   LIG    1      -10.022   2.624   2.309  0.00  0.00    -0.480 OA
ATOM     27  C   LIG    1      -10.429   2.504  -1.055  0.00  0.00    +0.070 A 
ENDBRANCH  17  18
ENDBRANCH  16  17
ENDBRANCH   2  16
TORSDOF 5
