REMARK  Name = ZINCrD00000711ht.0
REMARK                            x       y       z     vdW  Elec       q    Type
REMARK                         _______ _______ _______ _____ _____    ______ ____
ROOT
ATOM      1  C   LIG    1        2.041   0.793  -0.078  0.00  0.00    +0.150 A 
ATOM      2  N   LIG    1        1.198   1.683   0.396  0.00  0.00    -0.290 NA
ATOM      3  N   LIG    1       -0.004   1.233   0.330  0.00  0.00    -0.260 NA
ATOM      4  C   LIG    1       -0.002   0.027  -0.190  0.00  0.00    +0.230 A 
ATOM      5  N   LIG    1        1.307  -0.291  -0.467  0.00  0.00    -0.450 N 
ENDROOT
BRANCH   4   6
ATOM      6  C   LIG    1       -1.184  -0.827  -0.432  0.00  0.00    -0.070 A 
ATOM      7  C   LIG    1       -1.095  -2.218  -0.305  0.00  0.00    +0.070 A 
ATOM      8  C   LIG    1       -2.231  -2.972  -0.542  0.00  0.00    -0.020 A 
ATOM      9  C   LIG    1       -3.407  -2.333  -0.893  0.00  0.00    +0.270 A 
ATOM     10  N   LIG    1       -3.461  -1.020  -1.005  0.00  0.00    -0.480 NA
ATOM     11  C   LIG    1       -2.409  -0.259  -0.785  0.00  0.00    +0.320 A 
ENDBRANCH   4   6
BRANCH   1  12
ATOM     12  S   LIG    1        3.791   0.965  -0.189  0.00  0.00    +0.080 S 
BRANCH  12  13
ATOM     13  C   LIG    1        3.988   2.625   0.505  0.00  0.00    +0.110 C 
BRANCH  13  16
ATOM     14  N   LIG    1        5.836   4.197   0.986  0.00  0.00    -0.720 N 
ATOM     15  H   LIG    1        5.175   4.821   1.325  0.00  0.00    +0.400 HD
ATOM     16  C   LIG    1        5.448   2.997   0.511  0.00  0.00    +0.540 C 
ATOM     17  O   LIG    1        6.274   2.217   0.087  0.00  0.00    -0.520 OA
BRANCH  14  19
ATOM     18  C   LIG    1        7.793   4.538  -0.441  0.00  0.00    +0.040 C 
ATOM     19  C   LIG    1        7.256   4.559   0.992  0.00  0.00    +0.170 C 
ATOM     20  C   LIG    1        8.035   3.555   1.843  0.00  0.00    +0.040 C 
ATOM     21  C   LIG    1        7.422   5.962   1.579  0.00  0.00    +0.040 C 
ENDBRANCH  14  19
ENDBRANCH  13  16
ENDBRANCH  12  13
ENDBRANCH   1  12
BRANCH   5  22
ATOM     22  C   LIG    1        1.810  -1.535  -1.057  0.00  0.00    +0.360 C 
BRANCH  22  23
ATOM     23  C   LIG    1        1.732  -1.446  -2.559  0.00  0.00    -0.130 A 
ATOM     24  C   LIG    1        0.594  -1.871  -3.218  0.00  0.00    +0.020 A 
ATOM     25  C   LIG    1        0.520  -1.784  -4.596  0.00  0.00    +0.010 A 
ATOM     26  C   LIG    1        1.589  -1.283  -5.315  0.00  0.00    +0.030 A 
ATOM     27  C   LIG    1        2.729  -0.862  -4.656  0.00  0.00    +0.010 A 
ATOM     28  C   LIG    1        2.800  -0.944  -3.278  0.00  0.00    +0.040 A 
ENDBRANCH  22  23
ENDBRANCH   5  22
TORSDOF 7
