REMARK  Name = ZINCpe00000MJM4q.0
REMARK                            x       y       z     vdW  Elec       q    Type
REMARK                         _______ _______ _______ _____ _____    ______ ____
ROOT
ATOM      1  C   LIG    1       -5.975   0.696   1.563  0.00  0.00    +0.150 C 
ATOM      2  C   LIG    1       -5.439  -0.515   2.361  0.00  0.00    +0.040 C 
ATOM      3  C   LIG    1       -4.173  -0.000   3.071  0.00  0.00    +0.180 C 
ATOM      4  N   LIG    1       -4.026   1.428   2.715  0.00  0.00    -0.500 NA
ATOM      5  C   LIG    1       -4.721   1.594   1.412  0.00  0.00    +0.190 C 
ENDROOT
BRANCH   1   6
ATOM      6  N   LIG    1       -6.475   0.272   0.248  0.00  0.00    -0.530 NA
ATOM      7  C   LIG    1       -7.576  -0.691   0.390  0.00  0.00    +0.210 C 
BRANCH   6   8
ATOM      8  C   LIG    1       -6.888   1.429  -0.557  0.00  0.00    +0.350 C 
BRANCH   8  13
ATOM      9  C   LIG    1       -6.361   0.268  -5.428  0.00  0.00    +0.240 C 
ATOM     10  C   LIG    1       -6.935   0.490  -4.052  0.00  0.00    +0.160 A 
ATOM     11  N   LIG    1       -8.168   0.279  -3.688  0.00  0.00    -0.290 NA
ATOM     12  N   LIG    1       -8.302   0.571  -2.442  0.00  0.00    -0.280 NA
ATOM     13  C   LIG    1       -7.160   0.986  -1.971  0.00  0.00    +0.170 A 
ATOM     14  O   LIG    1       -6.270   0.941  -2.976  0.00  0.00    -0.220 OA
ENDBRANCH   8  13
ENDBRANCH   6   8
ENDBRANCH   1   6
BRANCH   4  15
ATOM     15  C   LIG    1       -2.609   1.800   2.606  0.00  0.00    +0.210 C 
BRANCH  15  16
ATOM     16  C   LIG    1       -2.500   3.236   2.163  0.00  0.00    +0.510 C 
ATOM     17  N   LIG    1       -1.292   3.764   1.881  0.00  0.00    -0.720 N 
ATOM     18  H   LIG    1       -0.494   3.220   1.962  0.00  0.00    +0.410 HD
ATOM     19  O   LIG    1       -3.498   3.917   2.061  0.00  0.00    -0.500 OA
BRANCH  17  20
ATOM     20  C   LIG    1       -1.186   5.161   1.450  0.00  0.00    +0.280 C 
ATOM     21  C   LIG    1       -1.695   6.099   2.564  0.00  0.00    +0.050 C 
ATOM     22  C   LIG    1       -0.412   6.519   3.322  0.00  0.00    +0.030 C 
ATOM     23  C   LIG    1        0.624   6.674   2.182  0.00  0.00    +0.030 C 
ATOM     24  C   LIG    1        0.289   5.527   1.207  0.00  0.00    +0.050 C 
BRANCH  20  25
ATOM     25  C   LIG    1       -1.967   5.369   0.219  0.00  0.00    +0.200 C 
ATOM     26  N   LIG    1       -2.569   5.530  -0.731  0.00  0.00    -0.410 NA
ENDBRANCH  20  25
ENDBRANCH  17  20
ENDBRANCH  15  16
ENDBRANCH   4  15
TORSDOF 7
