REMARK  Name = ZINCpk00001AZjdw.0
REMARK                            x       y       z     vdW  Elec       q    Type
REMARK                         _______ _______ _______ _____ _____    ______ ____
ROOT
ATOM      1  N   LIG    1       -3.038   1.472  -2.170  0.00  0.00    -0.600 N 
ATOM      2  C   LIG    1       -2.150   0.999  -1.273  0.00  0.00    +0.520 C 
ATOM      3  O   LIG    1       -2.507   0.208  -0.426  0.00  0.00    -0.540 OA
ATOM      4  C   LIG    1       -2.583   2.325  -3.271  0.00  0.00    +0.300 C 
ENDROOT
BRANCH   2   5
ATOM      5  C   LIG    1       -0.714   1.452  -1.323  0.00  0.00    +0.010 C 
ATOM      6  C   LIG    1       -0.638   2.947  -1.000  0.00  0.00    +0.070 C 
ATOM      7  C   LIG    1       -1.135   3.177   0.430  0.00  0.00    +0.060 C 
ATOM      8  C   LIG    1       -0.301   2.332   1.396  0.00  0.00    +0.070 C 
ATOM      9  N   LIG    1       -0.437   0.912   1.051  0.00  0.00    -0.360 N 
ATOM     10  C   LIG    1        0.301   0.100   2.027  0.00  0.00    +0.310 C 
ATOM     11  H   LIG    1       -1.412   0.653   1.070  0.00  0.00    +0.430 HD
ATOM     12  C   LIG    1        0.105   0.672  -0.292  0.00  0.00    +0.270 C 
BRANCH   8  13
ATOM     13  C   LIG    1       -0.787   2.554   2.805  0.00  0.00    +0.490 C 
ATOM     14  O   LIG    1       -0.302   3.442   3.484  0.00  0.00    -0.640 OA
ATOM     15  O   LIG    1       -1.666   1.845   3.265  0.00  0.00    -0.660 OA
ENDBRANCH   8  13
ENDBRANCH   2   5
BRANCH   1  16
ATOM     16  C   LIG    1       -4.457   1.134  -2.044  0.00  0.00    +0.280 C 
BRANCH  16  17
ATOM     17  C   LIG    1       -5.157   2.185  -1.180  0.00  0.00    +0.010 C 
BRANCH  17  18
ATOM     18  C   LIG    1       -6.640   1.832  -1.048  0.00  0.00    +0.150 C 
BRANCH  18  23
ATOM     19  N   LIG    1       -7.910   3.999  -0.650  0.00  0.00    -0.460 N 
ATOM     20  C   LIG    1       -8.418   4.657   0.438  0.00  0.00    +0.110 A 
ATOM     21  C   LIG    1       -8.130   3.904   1.517  0.00  0.00    +0.150 A 
ATOM     22  N   LIG    1       -7.469   2.815   1.099  0.00  0.00    -0.480 NA
ATOM     23  C   LIG    1       -7.330   2.867  -0.197  0.00  0.00    +0.200 A 
BRANCH  19  24
ATOM     24  C   LIG    1       -7.982   4.440  -2.045  0.00  0.00    +0.280 C 
BRANCH  24  26
ATOM     25  C   LIG    1       -9.265   4.251  -4.181  0.00  0.00    +0.030 C 
ATOM     26  C   LIG    1       -9.190   3.790  -2.724  0.00  0.00    +0.000 C 
ENDBRANCH  24  26
ENDBRANCH  19  24
ENDBRANCH  18  23
ENDBRANCH  17  18
ENDBRANCH  16  17
ENDBRANCH   1  16
TORSDOF 8
