REMARK  Name = ZINCpk00001AZjdw.1
REMARK                            x       y       z     vdW  Elec       q    Type
REMARK                         _______ _______ _______ _____ _____    ______ ____
ROOT
ATOM      1  N   LIG    1       -0.476   1.389   1.588  0.00  0.00    -0.620 N 
ATOM      2  C   LIG    1       -0.096   1.524   2.874  0.00  0.00    +0.510 C 
ATOM      3  O   LIG    1        0.845   0.889   3.298  0.00  0.00    -0.510 OA
ATOM      4  C   LIG    1       -1.613   2.157   1.075  0.00  0.00    +0.280 C 
ENDROOT
BRANCH   2   5
ATOM      5  C   LIG    1       -0.842   2.465   3.785  0.00  0.00    +0.000 C 
ATOM      6  C   LIG    1       -0.398   2.235   5.232  0.00  0.00    +0.060 C 
ATOM      7  C   LIG    1        1.091   2.569   5.358  0.00  0.00    +0.080 C 
ATOM      8  C   LIG    1        1.325   4.011   4.902  0.00  0.00    +0.070 C 
ATOM      9  N   LIG    1        0.905   4.160   3.503  0.00  0.00    -0.350 N 
ATOM     10  C   LIG    1        1.634   3.196   2.669  0.00  0.00    +0.310 C 
ATOM     11  H   LIG    1        1.109   5.097   3.190  0.00  0.00    +0.420 HD
ATOM     12  C   LIG    1       -0.537   3.911   3.387  0.00  0.00    +0.250 C 
BRANCH   8  13
ATOM     13  C   LIG    1        2.789   4.345   5.024  0.00  0.00    +0.500 C 
ATOM     14  O   LIG    1        3.328   4.333   6.118  0.00  0.00    -0.640 OA
ATOM     15  O   LIG    1        3.435   4.628   4.029  0.00  0.00    -0.670 OA
ENDBRANCH   8  13
ENDBRANCH   2   5
BRANCH   1  16
ATOM     16  C   LIG    1        0.249   0.475   0.702  0.00  0.00    +0.280 C 
BRANCH  16  17
ATOM     17  C   LIG    1       -0.390  -0.913   0.769  0.00  0.00    +0.010 C 
BRANCH  17  18
ATOM     18  C   LIG    1        0.367  -1.869  -0.156  0.00  0.00    +0.150 C 
BRANCH  18  23
ATOM     19  N   LIG    1       -1.261  -3.682  -0.882  0.00  0.00    -0.460 N 
ATOM     20  C   LIG    1       -1.538  -4.967  -0.499  0.00  0.00    +0.110 A 
ATOM     21  C   LIG    1       -0.700  -5.262   0.512  0.00  0.00    +0.140 A 
ATOM     22  N   LIG    1        0.072  -4.188   0.738  0.00  0.00    -0.490 NA
ATOM     23  C   LIG    1       -0.262  -3.236  -0.090  0.00  0.00    +0.210 A 
BRANCH  19  24
ATOM     24  C   LIG    1       -1.925  -2.930  -1.950  0.00  0.00    +0.280 C 
BRANCH  24  26
ATOM     25  C   LIG    1       -1.809  -2.274  -4.358  0.00  0.00    +0.030 C 
ATOM     26  C   LIG    1       -1.116  -3.059  -3.242  0.00  0.00    +0.000 C 
ENDBRANCH  24  26
ENDBRANCH  19  24
ENDBRANCH  18  23
ENDBRANCH  17  18
ENDBRANCH  16  17
ENDBRANCH   1  16
TORSDOF 8
