REMARK  Name = ZINCah0000002xMV.0
REMARK                            x       y       z     vdW  Elec       q    Type
REMARK                         _______ _______ _______ _____ _____    ______ ____
ROOT
ATOM      1  C   LIG    1        2.382   1.372  -0.013  0.00  0.00    +0.240 A 
ATOM      2  C   LIG    1        1.184   2.061   0.002  0.00  0.00    -0.190 A 
ATOM      3  C   LIG    1       -0.016   1.342   0.009  0.00  0.00    +0.540 A 
ATOM      4  N   LIG    1        0.002  -0.004   0.002  0.00  0.00    -0.610 N 
ATOM      5  H   LIG    1       -0.836  -0.493   0.007  0.00  0.00    +0.420 HD
ATOM      6  C   LIG    1        1.176  -0.690  -0.013  0.00  0.00    +0.390 A 
ATOM      7  O   LIG    1       -1.083   1.937   0.018  0.00  0.00    -0.540 OA
ATOM      8  C   LIG    1        2.359  -0.038  -0.020  0.00  0.00    -0.220 A 
ATOM      9 BR   LIG    1        3.979  -1.013  -0.040  0.00  0.00    -0.000 Br
ENDROOT
BRANCH   1  11
ATOM     10  C   LIG    1        3.497   3.467  -0.013  0.00  0.00    +0.270 C 
ATOM     11  O   LIG    1        3.561   2.040  -0.021  0.00  0.00    -0.290 OA
ENDBRANCH   1  11
TORSDOF 1
