REMARK  Name = ZINCvU00000009Dr.0
REMARK                            x       y       z     vdW  Elec       q    Type
REMARK                         _______ _______ _______ _____ _____    ______ ____
ROOT
ATOM      1  C   LIG    1       -7.610   3.825  -0.174  0.00  0.00    +0.150 A 
ATOM      2  N   LIG    1       -7.617   5.139  -0.205  0.00  0.00    -0.290 NA
ATOM      3  N   LIG    1       -8.807   5.569  -0.430  0.00  0.00    -0.230 NA
ATOM      4  C   LIG    1       -9.633   4.556  -0.558  0.00  0.00    +0.210 A 
ATOM      5  N   LIG    1       -8.890   3.408  -0.403  0.00  0.00    -0.450 N 
ENDROOT
BRANCH   4   6
ATOM      6  C   LIG    1      -11.085   4.635  -0.823  0.00  0.00    +0.010 A 
ATOM      7  C   LIG    1      -11.854   3.471  -0.861  0.00  0.00    +0.020 A 
ATOM      8  C   LIG    1      -13.210   3.552  -1.103  0.00  0.00    +0.040 A 
ATOM      9  C   LIG    1      -13.806   4.782  -1.320  0.00  0.00    +0.040 A 
ATOM     10  C   LIG    1      -13.048   5.939  -1.290  0.00  0.00    +0.050 A 
ATOM     11  C   LIG    1      -11.692   5.874  -1.043  0.00  0.00    -0.060 A 
ATOM     12 BR   LIG    1      -10.658   7.456  -1.002  0.00  0.00    -0.000 Br
ENDBRANCH   4   6
BRANCH   1  13
ATOM     13  S   LIG    1       -6.209   2.793   0.102  0.00  0.00    +0.090 S 
BRANCH  13  14
ATOM     14  C   LIG    1       -4.926   4.054   0.307  0.00  0.00    +0.110 C 
BRANCH  14  17
ATOM     15  N   LIG    1       -2.493   4.130   0.747  0.00  0.00    -0.660 N 
ATOM     16  H   LIG    1       -2.562   5.096   0.796  0.00  0.00    +0.420 HD
ATOM     17  C   LIG    1       -3.600   3.384   0.562  0.00  0.00    +0.530 C 
ATOM     18  O   LIG    1       -3.530   2.174   0.601  0.00  0.00    -0.500 OA
BRANCH  15  24
ATOM     19  C   LIG    1        0.444   0.306  -0.212  0.00  0.00    +0.090 C 
ATOM     20  C   LIG    1        0.207   1.657   0.411  0.00  0.00    -0.070 A 
ATOM     21  C   LIG    1        1.226   2.287   1.102  0.00  0.00    -0.020 A 
ATOM     22  C   LIG    1        1.013   3.527   1.675  0.00  0.00    +0.040 A 
ATOM     23  C   LIG    1       -0.220   4.138   1.564  0.00  0.00    -0.020 A 
ATOM     24  C   LIG    1       -1.244   3.511   0.866  0.00  0.00    +0.150 A 
ATOM     25  C   LIG    1       -1.027   2.266   0.292  0.00  0.00    +0.010 A 
ENDBRANCH  15  24
ENDBRANCH  14  17
ENDBRANCH  13  14
ENDBRANCH   1  13
BRANCH   5  26
ATOM     26  C   LIG    1       -9.373   2.027  -0.468  0.00  0.00    +0.360 C 
BRANCH  26  27
ATOM     27  C   LIG    1       -9.404   1.572  -1.905  0.00  0.00    -0.130 A 
ATOM     28  C   LIG    1      -10.510   1.838  -2.690  0.00  0.00    +0.020 A 
ATOM     29  C   LIG    1      -10.537   1.425  -4.009  0.00  0.00    +0.010 A 
ATOM     30  C   LIG    1       -9.461   0.738  -4.540  0.00  0.00    +0.030 A 
ATOM     31  C   LIG    1       -8.357   0.468  -3.753  0.00  0.00    +0.010 A 
ATOM     32  C   LIG    1       -8.329   0.885  -2.435  0.00  0.00    +0.040 A 
ENDBRANCH  26  27
ENDBRANCH   5  26
TORSDOF 7
