REMARK  Name = ZINCwJ0000000anN.1
REMARK                            x       y       z     vdW  Elec       q    Type
REMARK                         _______ _______ _______ _____ _____    ______ ____
ROOT
ATOM      1  C   LIG    1       -0.014   1.209   0.009  0.00  0.00    +0.500 C 
ATOM      2  N   LIG    1        1.143   1.898   0.001  0.00  0.00    -0.690 N 
ATOM      3  H   LIG    1        1.130   2.868   0.007  0.00  0.00    +0.410 HD
ATOM      4  O   LIG    1        0.002  -0.004   0.002  0.00  0.00    -0.530 OA
ENDROOT
BRANCH   1   5
ATOM      5  C   LIG    1       -1.330   1.944   0.019  0.00  0.00    +0.290 C 
BRANCH   5   6
ATOM      6  N   LIG    1       -2.433   0.975   0.019  0.00  0.00    -0.370 N 
ATOM      7  C   LIG    1       -2.409   0.205   1.270  0.00  0.00    +0.320 C 
ATOM      8  H   LIG    1       -2.329   0.347  -0.764  0.00  0.00    +0.430 HD
BRANCH   6   9
ATOM      9  C   LIG    1       -3.712   1.688  -0.092  0.00  0.00    +0.270 C 
BRANCH   9  10
ATOM     10  C   LIG    1       -4.852   0.676  -0.217  0.00  0.00    +0.030 C 
BRANCH  10  11
ATOM     11  C   LIG    1       -6.184   1.419  -0.333  0.00  0.00    +0.370 C 
BRANCH  11  18
ATOM     12  C   LIG    1       -7.612   0.012   2.029  0.00  0.00    +0.240 C 
ATOM     13  C   LIG    1       -7.910  -0.173   0.564  0.00  0.00    +0.320 C 
ATOM     14  N   LIG    1       -8.825  -0.960   0.067  0.00  0.00    -0.470 N 
ATOM     15  C   LIG    1       -8.802  -0.875  -1.272  0.00  0.00    +0.250 C 
ATOM     16  C   LIG    1       -7.840   0.001  -1.617  0.00  0.00    +0.250 C 
ATOM     17  H   LIG    1       -9.425  -1.520   0.584  0.00  0.00    +0.470 HD
ATOM     18  N   LIG    1       -7.276   0.450  -0.453  0.00  0.00    -0.420 N 
ENDBRANCH  11  18
ENDBRANCH  10  11
ENDBRANCH   9  10
ENDBRANCH   6   9
ENDBRANCH   5   6
ENDBRANCH   1   5
BRANCH   2  19
ATOM     19  C   LIG    1        2.422   1.183  -0.015  0.00  0.00    +0.300 C 
BRANCH  19  20
ATOM     20  C   LIG    1        3.571   2.193  -0.020  0.00  0.00    +0.110 C 
BRANCH  20  21
ATOM     21  C   LIG    1        4.884   1.461   0.087  0.00  0.00    -0.180 A 
ATOM     22  C   LIG    1        5.361   0.547  -0.772  0.00  0.00    +0.240 A 
ATOM     23  N   LIG    1        6.583   0.100  -0.348  0.00  0.00    -0.590 N 
ATOM     24  H   LIG    1        7.123  -0.563  -0.805  0.00  0.00    +0.420 HD
ATOM     25  C   LIG    1        6.931   0.732   0.825  0.00  0.00    +0.100 A 
ATOM     26  C   LIG    1        8.039   0.654   1.662  0.00  0.00    +0.000 A 
ATOM     27  C   LIG    1        8.096   1.437   2.795  0.00  0.00    +0.040 A 
ATOM     28  C   LIG    1        7.059   2.304   3.110  0.00  0.00    -0.010 A 
ATOM     29  C   LIG    1        5.961   2.396   2.301  0.00  0.00    +0.040 A 
ATOM     30  C   LIG    1        5.885   1.617   1.146  0.00  0.00    -0.100 A 
ENDBRANCH  20  21
BRANCH  20  31
ATOM     31  C   LIG    1        3.540   2.983  -1.304  0.00  0.00    -0.080 A 
ATOM     32  C   LIG    1        3.666   2.334  -2.518  0.00  0.00    +0.000 A 
ATOM     33  C   LIG    1        3.633   3.058  -3.695  0.00  0.00    +0.010 A 
ATOM     34  C   LIG    1        3.483   4.431  -3.658  0.00  0.00    +0.000 A 
ATOM     35  C   LIG    1        3.362   5.081  -2.443  0.00  0.00    +0.020 A 
ATOM     36  C   LIG    1        3.391   4.356  -1.266  0.00  0.00    +0.000 A 
ENDBRANCH  20  31
ENDBRANCH  19  20
ENDBRANCH   2  19
TORSDOF 10
