REMARK  Name = ZINCnE000001NRXl.0
REMARK                            x       y       z     vdW  Elec       q    Type
REMARK                         _______ _______ _______ _____ _____    ______ ____
ROOT
ATOM      1  C   LIG    1       -4.016   1.851   1.192  0.00  0.00    +0.070 C 
ATOM      2  C   LIG    1       -3.992   2.668  -0.101  0.00  0.00    +0.040 C 
ENDROOT
BRANCH   2   3
ATOM      3  C   LIG    1       -5.376   3.189  -0.392  0.00  0.00    +0.480 C 
ATOM      4  N   LIG    1       -6.294   2.381  -0.958  0.00  0.00    -0.670 NA
ATOM      5  O   LIG    1       -5.663   4.334  -0.116  0.00  0.00    -0.560 OA
BRANCH   4   6
ATOM      6  C   LIG    1       -7.571   2.862  -1.227  0.00  0.00    +0.290 A 
ATOM      7  N   LIG    1       -7.996   4.064  -0.978  0.00  0.00    -0.360 NA
ATOM      8  N   LIG    1       -9.189   4.340  -1.285  0.00  0.00    -0.230 NA
ATOM      9  C   LIG    1       -9.883   3.389  -1.824  0.00  0.00    -0.050 A 
ATOM     10  S   LIG    1       -8.844   1.968  -1.946  0.00  0.00    +0.010 S 
BRANCH   9  11
ATOM     11  C   LIG    1      -11.319   3.480  -2.272  0.00  0.00    +0.060 C 
ATOM     12  C   LIG    1      -11.974   4.863  -2.268  0.00  0.00    +0.030 C 
ATOM     13  C   LIG    1      -12.368   3.826  -1.213  0.00  0.00    +0.020 C 
ENDBRANCH   9  11
ENDBRANCH   4   6
ENDBRANCH   2   3
BRANCH   2  14
ATOM     14  S   LIG    1       -2.848   4.063   0.086  0.00  0.00    -0.080 S 
BRANCH  14  15
ATOM     15  C   LIG    1       -1.276   3.275   0.198  0.00  0.00    -0.070 A 
ATOM     16  C   LIG    1       -0.591   2.919  -0.958  0.00  0.00    +0.080 A 
ATOM     17  C   LIG    1        0.638   2.296  -0.866  0.00  0.00    +0.100 A 
ATOM     18  C   LIG    1        1.193   2.037   0.374  0.00  0.00    -0.030 A 
ATOM     19  C   LIG    1        0.516   2.394   1.526  0.00  0.00    +0.100 A 
ATOM     20  C   LIG    1       -0.716   3.012   1.442  0.00  0.00    +0.090 A 
BRANCH  18  21
ATOM     21  N   LIG    1        2.513   1.375   0.468  0.00  0.00    +0.030 N 
ATOM     22  O   LIG    1        3.003   1.146   1.559  0.00  0.00    -0.160 OA
ATOM     23  O   LIG    1        3.110   1.060  -0.546  0.00  0.00    -0.160 OA
ENDBRANCH  18  21
ENDBRANCH  14  15
ENDBRANCH   2  14
TORSDOF 6
