REMARK  Name = ZINCvU00000006tj.0
REMARK                            x       y       z     vdW  Elec       q    Type
REMARK                         _______ _______ _______ _____ _____    ______ ____
ROOT
ATOM      1  C   LIG    1       -8.978   0.924  -0.163  0.00  0.00    +0.570 C 
ATOM      2  N   LIG    1       -9.348  -0.366  -0.043  0.00  0.00    -0.610 N 
ATOM      3  C   LIG    1       -8.339  -1.432   0.023  0.00  0.00    +0.270 C 
ATOM      4  C   LIG    1       -8.601  -2.276   1.280  0.00  0.00    +0.030 C 
ATOM      5  C   LIG    1      -10.046  -2.780   1.257  0.00  0.00    +0.030 C 
ATOM      6  C   LIG    1      -11.004  -1.587   1.270  0.00  0.00    +0.080 C 
ATOM      7  C   LIG    1      -10.769  -0.735   0.019  0.00  0.00    +0.300 C 
ATOM      8  O   LIG    1       -9.822   1.788  -0.299  0.00  0.00    -0.530 OA
ENDROOT
BRANCH   6   9
ATOM      9  C   LIG    1      -12.427  -2.084   1.280  0.00  0.00    +0.100 A 
ATOM     10  N   LIG    1      -13.273  -1.824   2.203  0.00  0.00    -0.460 NA
ATOM     11  C   LIG    1      -14.513  -2.336   2.082  0.00  0.00    +0.080 A 
ATOM     12  C   LIG    1      -15.626  -2.211   2.938  0.00  0.00    +0.080 A 
ATOM     13  C   LIG    1      -16.806  -2.817   2.627  0.00  0.00    +0.030 A 
ATOM     14  C   LIG    1      -16.936  -3.567   1.467  0.00  0.00    +0.040 A 
ATOM     15  C   LIG    1      -15.865  -3.706   0.613  0.00  0.00    +0.060 A 
ATOM     16  C   LIG    1      -14.650  -3.094   0.914  0.00  0.00    -0.180 A 
ATOM     17  S   LIG    1      -13.111  -3.059   0.059  0.00  0.00    +0.110 S 
ENDBRANCH   6   9
BRANCH   1  21
ATOM     18  C   LIG    1       -4.863   1.969  -0.068  0.00  0.00    +0.170 A 
ATOM     19  C   LIG    1       -5.781   2.696   0.684  0.00  0.00    +0.000 A 
ATOM     20  C   LIG    1       -7.117   2.363   0.651  0.00  0.00    +0.090 A 
ATOM     21  C   LIG    1       -7.548   1.287  -0.130  0.00  0.00    -0.140 A 
ATOM     22  C   LIG    1       -6.622   0.556  -0.879  0.00  0.00    +0.070 A 
ATOM     23  C   LIG    1       -5.289   0.898  -0.847  0.00  0.00    +0.020 A 
BRANCH  18  26
ATOM     24  O   LIG    1       -3.236   1.694  -2.153  0.00  0.00    -0.500 OA
ATOM     25  C   LIG    1       -2.759   2.186  -1.147  0.00  0.00    +0.610 C 
ATOM     26  N   LIG    1       -3.513   2.312  -0.036  0.00  0.00    -0.660 N 
ATOM     27  H   LIG    1       -3.115   2.642   0.785  0.00  0.00    +0.420 HD
BRANCH  25  28
ATOM     28  C   LIG    1       -1.366   2.642  -1.143  0.00  0.00    -0.090 A 
ATOM     29  C   LIG    1       -0.496   2.573  -2.194  0.00  0.00    +0.050 A 
ATOM     30  C   LIG    1        0.716   3.125  -1.751  0.00  0.00    -0.070 A 
ATOM     31  C   LIG    1        0.538   3.495  -0.464  0.00  0.00    +0.220 A 
ATOM     32  O   LIG    1       -0.717   3.199  -0.100  0.00  0.00    -0.170 OA
ENDBRANCH  25  28
ENDBRANCH  18  26
ENDBRANCH   1  21
TORSDOF 4
