REMARK  Name = ZINCqH0000000B9N.0
REMARK                            x       y       z     vdW  Elec       q    Type
REMARK                         _______ _______ _______ _____ _____    ______ ____
ROOT
ATOM      1  C   LIG    1       -5.259  -4.226   1.279  0.00  0.00    +0.270 C 
ATOM      2  C   LIG    1       -6.640  -4.513   1.878  0.00  0.00    +0.040 C 
ATOM      3  C   LIG    1       -6.777  -6.022   2.081  0.00  0.00    +0.130 C 
ATOM      4  C   LIG    1       -6.425  -6.756   0.816  0.00  0.00    +0.180 A 
ATOM      5  N   LIG    1       -6.814  -8.019   0.689  0.00  0.00    -0.510 NA
ATOM      6  C   LIG    1       -6.523  -8.717  -0.399  0.00  0.00    +0.360 A 
ATOM      7  N   LIG    1       -5.835  -8.184  -1.399  0.00  0.00    -0.510 NA
ATOM      8  C   LIG    1       -5.421  -6.931  -1.337  0.00  0.00    +0.330 A 
ATOM      9  C   LIG    1       -5.712  -6.171  -0.209  0.00  0.00    -0.180 A 
ATOM     10  C   LIG    1       -5.236  -4.745  -0.158  0.00  0.00    +0.090 C 
ENDROOT
BRANCH   1  14
ATOM     11  N   LIG    1       -3.518  -0.987   1.280  0.00  0.00    -0.750 N 
ATOM     12  H   LIG    1       -4.264  -0.367   1.290  0.00  0.00    +0.400 HD
ATOM     13  C   LIG    1       -3.746  -2.316   1.275  0.00  0.00    +0.700 C 
ATOM     14  N   LIG    1       -5.011  -2.782   1.284  0.00  0.00    -0.740 N 
ATOM     15  H   LIG    1       -5.756  -2.162   1.295  0.00  0.00    +0.400 HD
ATOM     16  O   LIG    1       -2.811  -3.093   1.262  0.00  0.00    -0.590 OA
BRANCH  11  17
ATOM     17  C   LIG    1       -2.143  -0.480   1.269  0.00  0.00    +0.270 C 
BRANCH  17  18
ATOM     18  C   LIG    1       -2.164   1.050   1.278  0.00  0.00    +0.020 C 
BRANCH  18  20
ATOM     19  C   LIG    1       -0.013   1.086   0.008  0.00  0.00    +0.030 C 
ATOM     20  C   LIG    1       -0.729   1.579   1.267  0.00  0.00    -0.060 C 
ATOM     21  C   LIG    1       -0.750   3.109   1.275  0.00  0.00    +0.040 C 
ATOM     22  C   LIG    1        0.011   1.072   2.506  0.00  0.00    +0.030 C 
ENDBRANCH  18  20
ENDBRANCH  17  18
ENDBRANCH  11  17
ENDBRANCH   1  14
BRANCH   6  23
ATOM     23  C   LIG    1       -6.977 -10.125  -0.500  0.00  0.00    -0.050 A 
ATOM     24  C   LIG    1       -7.696 -10.705   0.544  0.00  0.00    +0.070 A 
ATOM     25  C   LIG    1       -8.120 -12.014   0.442  0.00  0.00    +0.000 A 
ATOM     26  C   LIG    1       -7.823 -12.754  -0.688  0.00  0.00    +0.030 A 
ATOM     27  C   LIG    1       -7.105 -12.186  -1.725  0.00  0.00    +0.000 A 
ATOM     28  C   LIG    1       -6.681 -10.876  -1.636  0.00  0.00    +0.070 A 
ENDBRANCH   6  23
TORSDOF 5
