REMARK  Name = ZINCrD000000C6Q2.0
REMARK                            x       y       z     vdW  Elec       q    Type
REMARK                         _______ _______ _______ _____ _____    ______ ____
ROOT
ATOM      1  C   LIG    1       -3.451   2.101   0.533  0.00  0.00    -0.100 A 
ATOM      2  C   LIG    1       -2.344   1.287   0.397  0.00  0.00    +0.000 A 
ATOM      3  C   LIG    1       -1.089   1.850   0.203  0.00  0.00    +0.170 A 
ATOM      4  C   LIG    1       -0.952   3.231   0.152  0.00  0.00    +0.040 A 
ATOM      5  C   LIG    1       -2.064   4.040   0.283  0.00  0.00    +0.030 A 
ATOM      6  C   LIG    1       -3.312   3.476   0.475  0.00  0.00    -0.010 A 
ENDROOT
BRANCH   3   7
ATOM      7  N   LIG    1        0.035   1.028   0.066  0.00  0.00    -0.680 N 
ATOM      8  H   LIG    1       -0.070   0.108  -0.224  0.00  0.00    +0.410 HD
ATOM      9  C   LIG    1        1.263   1.516   0.330  0.00  0.00    +0.710 C 
ATOM     10  N   LIG    1        2.323   0.684   0.374  0.00  0.00    -0.620 N 
ATOM     11  C   LIG    1        2.190  -0.722  -0.029  0.00  0.00    +0.270 C 
ATOM     12  C   LIG    1        3.248  -1.031  -1.093  0.00  0.00    +0.020 C 
ATOM     13  C   LIG    1        4.633  -0.663  -0.553  0.00  0.00    -0.010 C 
ATOM     14  C   LIG    1        5.689  -1.001  -1.607  0.00  0.00    +0.010 C 
ATOM     15  C   LIG    1        7.077  -0.631  -1.079  0.00  0.00    +0.000 C 
ATOM     16  C   LIG    1        7.122   0.868  -0.777  0.00  0.00    +0.000 C 
ATOM     17  C   LIG    1        6.069   1.206   0.280  0.00  0.00    +0.020 C 
ATOM     18  C   LIG    1        4.680   0.836  -0.245  0.00  0.00    -0.020 C 
ATOM     19  C   LIG    1        3.636   1.168   0.820  0.00  0.00    +0.300 C 
ATOM     20  O   LIG    1        1.415   2.705   0.529  0.00  0.00    -0.570 OA
ENDBRANCH   3   7
BRANCH   1  21
ATOM     21  C   LIG    1       -4.813   1.491   0.743  0.00  0.00    +0.360 C 
BRANCH  21  28
ATOM     22  O   LIG    1       -4.181  -0.706   2.154  0.00  0.00    -0.530 OA
ATOM     23  C   LIG    1       -4.706   0.188   2.797  0.00  0.00    +0.630 A 
ATOM     24  N   LIG    1       -4.917   0.022   4.105  0.00  0.00    -0.550 NA
ATOM     25  C   LIG    1       -5.486   0.969   4.822  0.00  0.00    +0.430 A 
ATOM     26  C   LIG    1       -5.872   2.166   4.213  0.00  0.00    -0.140 A 
ATOM     27  C   LIG    1       -5.650   2.332   2.881  0.00  0.00    +0.360 A 
ATOM     28  N   LIG    1       -5.060   1.330   2.178  0.00  0.00    -0.510 N 
ENDBRANCH  21  28
ENDBRANCH   1  21
TORSDOF 3
