REMARK  Name = ZINC650000003Wvi.0
REMARK                            x       y       z     vdW  Elec       q    Type
REMARK                         _______ _______ _______ _____ _____    ______ ____
ROOT
ATOM      1  O   LIG    1        0.002  -0.004   0.002  0.00  0.00    -0.590 OA
ATOM      2  C   LIG    1       -0.014   1.212   0.009  0.00  0.00    +0.700 C 
ATOM      3  N   LIG    1       -1.147   1.927   0.018  0.00  0.00    -0.740 N 
ATOM      4  H   LIG    1       -2.044   1.558   0.020  0.00  0.00    +0.430 HD
ATOM      5  C   LIG    1       -0.814   3.359   0.028  0.00  0.00    +0.250 C 
ATOM      6  C   LIG    1        0.727   3.380   0.013  0.00  0.00    +0.250 C 
ATOM      7  N   LIG    1        1.098   1.957   0.002  0.00  0.00    -0.740 N 
ATOM      8  H   LIG    1        2.005   1.613  -0.008  0.00  0.00    +0.430 HD
ENDROOT
TORSDOF 0
