REMARK  Name = ZINCtV00000L6jhx.0
REMARK                            x       y       z     vdW  Elec       q    Type
REMARK                         _______ _______ _______ _____ _____    ______ ____
ROOT
ATOM      1  C   LIG    1        1.343  -0.657   0.133  0.00  0.00    +0.040 A 
ATOM      2  C   LIG    1        0.083  -0.147  -0.011  0.00  0.00    -0.210 A 
ATOM      3  C   LIG    1        0.062   1.294  -0.191  0.00  0.00    -0.050 A 
ATOM      4  C   LIG    1        1.289   1.827  -0.177  0.00  0.00    -0.240 A 
ATOM      5  C   LIG    1        1.580   3.306  -0.341  0.00  0.00    +0.120 C 
ATOM      6  C   LIG    1        0.341   3.990  -0.924  0.00  0.00    +0.020 C 
ATOM      7  C   LIG    1       -0.887   3.583  -0.104  0.00  0.00    +0.020 C 
ATOM      8  C   LIG    1       -1.206   2.111  -0.379  0.00  0.00    +0.090 C 
ATOM      9  S   LIG    1        2.507   0.583   0.054  0.00  0.00    +0.310 S 
ENDROOT
BRANCH   1  12
ATOM     10  O   LIG    1        3.814  -1.583   0.406  0.00  0.00    -0.490 OA
ATOM     11  C   LIG    1        2.914  -2.400   0.448  0.00  0.00    +0.560 C 
ATOM     12  N   LIG    1        1.634  -1.999   0.316  0.00  0.00    -0.630 N 
ATOM     13  H   LIG    1        0.916  -2.650   0.350  0.00  0.00    +0.420 HD
BRANCH  11  14
ATOM     14  C   LIG    1        3.224  -3.831   0.644  0.00  0.00    -0.130 A 
ATOM     15  C   LIG    1        2.192  -4.770   0.699  0.00  0.00    +0.050 A 
ATOM     16  C   LIG    1        2.488  -6.106   0.875  0.00  0.00    +0.030 A 
ATOM     17  C   LIG    1        3.803  -6.515   1.011  0.00  0.00    +0.060 A 
ATOM     18  C   LIG    1        4.831  -5.588   0.964  0.00  0.00    -0.040 A 
ATOM     19 CL   LIG    1        6.477  -6.112   1.135  0.00  0.00    -0.050 Cl
ATOM     20  C   LIG    1        4.548  -4.250   0.781  0.00  0.00    +0.110 A 
ENDBRANCH  11  14
ENDBRANCH   1  12
BRANCH   2  21
ATOM     21  C   LIG    1       -1.127  -0.973   0.012  0.00  0.00    +0.590 C 
ATOM     22  N   LIG    1       -1.759  -1.210   1.179  0.00  0.00    -0.670 N 
ATOM     23  H   LIG    1       -1.371  -0.899   2.012  0.00  0.00    +0.420 HD
ATOM     24  O   LIG    1       -1.562  -1.445  -1.022  0.00  0.00    -0.500 OA
BRANCH  22  25
ATOM     25  C   LIG    1       -2.973  -1.905   1.189  0.00  0.00    +0.150 A 
ATOM     26  C   LIG    1       -3.287  -2.741   2.252  0.00  0.00    +0.000 A 
ATOM     27  C   LIG    1       -4.490  -3.421   2.262  0.00  0.00    +0.050 A 
ATOM     28  C   LIG    1       -5.375  -3.279   1.210  0.00  0.00    +0.030 A 
ATOM     29  C   LIG    1       -5.062  -2.451   0.145  0.00  0.00    -0.070 A 
ATOM     30 BR   LIG    1       -6.276  -2.260  -1.292  0.00  0.00    -0.040 Br
ATOM     31  C   LIG    1       -3.864  -1.764   0.133  0.00  0.00    +0.060 A 
ENDBRANCH  22  25
ENDBRANCH   2  21
TORSDOF 4
