REMARK  Name = ZINCkj000005j0Al.0
REMARK                            x       y       z     vdW  Elec       q    Type
REMARK                         _______ _______ _______ _____ _____    ______ ____
ROOT
ATOM      1  C   LIG    1        0.196   3.985  -2.080  0.00  0.00    +0.510 C 
ATOM      2  N   LIG    1       -1.068   4.172  -1.650  0.00  0.00    -0.720 N 
ATOM      3  H   LIG    1       -1.728   4.566  -2.241  0.00  0.00    +0.410 HD
ATOM      4  O   LIG    1        1.022   3.496  -1.340  0.00  0.00    -0.500 OA
ENDROOT
BRANCH   1   6
ATOM      5  C   LIG    1       -0.265   3.611  -4.488  0.00  0.00    +0.090 C 
ATOM      6  C   LIG    1        0.582   4.389  -3.480  0.00  0.00    +0.290 C 
BRANCH   6   7
ATOM      7  N   LIG    1        2.000   4.091  -3.700  0.00  0.00    -0.380 N 
ATOM      8  C   LIG    1        2.525   2.916  -4.088  0.00  0.00    +0.490 A 
ATOM      9  N   LIG    1        3.823   3.059  -4.171  0.00  0.00    -0.540 NA
ATOM     10  C   LIG    1        4.162   4.306  -3.844  0.00  0.00    +0.430 A 
ATOM     11  N   LIG    1        3.079   4.978  -3.553  0.00  0.00    -0.310 NA
ENDBRANCH   6   7
ENDBRANCH   1   6
BRANCH   2  12
ATOM     12  C   LIG    1       -1.444   3.779  -0.290  0.00  0.00    +0.290 C 
BRANCH  12  13
ATOM     13  C   LIG    1       -2.885   4.213  -0.013  0.00  0.00    +0.270 C 
BRANCH  13  14
ATOM     14  C   LIG    1       -2.967   5.718  -0.025  0.00  0.00    -0.280 A 
ATOM     15  C   LIG    1       -3.397   6.456  -1.050  0.00  0.00    +0.090 A 
ATOM     16  C   LIG    1       -3.386   7.823  -0.829  0.00  0.00    +0.020 A 
ATOM     17  C   LIG    1       -2.938   8.194   0.372  0.00  0.00    +0.020 A 
ATOM     18  S   LIG    1       -2.502   6.769   1.306  0.00  0.00    +0.120 S 
ENDBRANCH  13  14
BRANCH  13  19
ATOM     19  N   LIG    1       -3.304   3.711   1.302  0.00  0.00    -0.380 N 
ATOM     20  C   LIG    1       -3.284   2.242   1.294  0.00  0.00    +0.340 C 
ATOM     21  C   LIG    1       -4.665   4.180   1.595  0.00  0.00    +0.330 C 
ATOM     22  H   LIG    1       -2.671   4.052   2.010  0.00  0.00    +0.430 HD
ENDBRANCH  13  19
ENDBRANCH  12  13
ENDBRANCH   2  12
TORSDOF 6
