REMARK  Name = ZINCqH0000032bOX.0
REMARK                            x       y       z     vdW  Elec       q    Type
REMARK                         _______ _______ _______ _____ _____    ______ ____
ROOT
ATOM      1  N   LIG    1        3.057   4.185  -1.330  0.00  0.00    -0.530 NA
ATOM      2  C   LIG    1        3.929   5.371  -1.335  0.00  0.00    +0.180 C 
ATOM      3  C   LIG    1        4.666   5.432  -2.674  0.00  0.00    +0.290 C 
ATOM      4  N   LIG    1        3.716   5.295  -3.775  0.00  0.00    -0.570 N 
ATOM      5  C   LIG    1        2.486   4.798  -3.615  0.00  0.00    +0.530 C 
ATOM      6  O   LIG    1        1.771   4.691  -4.589  0.00  0.00    -0.530 OA
ATOM      7  C   LIG    1        1.950   4.366  -2.279  0.00  0.00    +0.240 C 
ENDROOT
BRANCH   4   8
ATOM      8  C   LIG    1        4.112   5.704  -5.053  0.00  0.00    +0.160 A 
ATOM      9  C   LIG    1        3.876   7.007  -5.471  0.00  0.00    +0.010 A 
ATOM     10  C   LIG    1        4.272   7.410  -6.732  0.00  0.00    +0.060 A 
ATOM     11  C   LIG    1        4.893   6.514  -7.582  0.00  0.00    -0.010 A 
ATOM     12  C   LIG    1        5.125   5.212  -7.171  0.00  0.00    +0.110 A 
ATOM     13  F   LIG    1        5.732   4.339  -8.005  0.00  0.00    -0.140 F 
ATOM     14  C   LIG    1        4.736   4.805  -5.908  0.00  0.00    +0.000 A 
ENDBRANCH   4   8
BRANCH   1  15
ATOM     15  C   LIG    1        2.551   3.909   0.022  0.00  0.00    +0.240 C 
BRANCH  15  20
ATOM     16  C   LIG    1       -0.152   1.280  -0.228  0.00  0.00    +0.130 A 
ATOM     17  C   LIG    1        0.563   0.124   0.049  0.00  0.00    -0.080 A 
ATOM     18  C   LIG    1        1.915   0.199   0.324  0.00  0.00    +0.050 A 
ATOM     19  C   LIG    1        2.558   1.423   0.313  0.00  0.00    +0.000 A 
ATOM     20  C   LIG    1        1.848   2.576   0.033  0.00  0.00    -0.050 A 
ATOM     21  C   LIG    1        0.495   2.508  -0.238  0.00  0.00    -0.020 A 
BRANCH  16  22
ATOM     22  O   LIG    1       -1.483   1.210  -0.494  0.00  0.00    -0.310 OA
BRANCH  22  23
ATOM     23  C   LIG    1       -2.082  -0.086  -0.466  0.00  0.00    +0.180 C 
BRANCH  23  25
ATOM     24  C   LIG    1       -4.190  -1.363  -0.880  0.00  0.00    +0.040 C 
ATOM     25  C   LIG    1       -3.573   0.034  -0.787  0.00  0.00    -0.020 C 
ATOM     26  C   LIG    1       -4.271   0.827   0.320  0.00  0.00    +0.020 C 
ENDBRANCH  23  25
ENDBRANCH  22  23
ENDBRANCH  16  22
ENDBRANCH  15  20
ENDBRANCH   1  15
TORSDOF 6
