REMARK  Name = ZINCtV00000L6kcI.0
REMARK                            x       y       z     vdW  Elec       q    Type
REMARK                         _______ _______ _______ _____ _____    ______ ____
ROOT
ATOM      1  C   LIG    1        0.002  -0.004   0.002  0.00  0.00    +0.190 A 
ATOM      2  C   LIG    1       -1.209  -0.740   0.015  0.00  0.00    -0.160 A 
ATOM      3  C   LIG    1       -2.592  -0.281   0.038  0.00  0.00    -0.030 A 
ATOM      4  C   LIG    1       -3.497  -1.258   0.046  0.00  0.00    -0.010 A 
ATOM      5  S   LIG    1       -2.731  -2.835   0.014  0.00  0.00    +0.190 S 
ATOM      6  C   LIG    1       -1.120  -2.133   0.002  0.00  0.00    +0.100 A 
ATOM      7  N   LIG    1        0.091  -2.707  -0.013  0.00  0.00    -0.490 NA
ATOM      8  C   LIG    1        1.185  -1.982  -0.020  0.00  0.00    +0.540 A 
ATOM      9  N   LIG    1        1.153  -0.662  -0.013  0.00  0.00    -0.530 NA
ENDROOT
BRANCH   3  10
ATOM     10  C   LIG    1       -2.961   1.155   0.051  0.00  0.00    -0.040 A 
ATOM     11  C   LIG    1       -2.375   2.019   0.975  0.00  0.00    +0.030 A 
ATOM     12  C   LIG    1       -2.718   3.356   0.978  0.00  0.00    +0.030 A 
ATOM     13  C   LIG    1       -3.650   3.836   0.076  0.00  0.00    +0.020 A 
ATOM     14  C   LIG    1       -4.239   2.982  -0.839  0.00  0.00    +0.020 A 
ATOM     15  C   LIG    1       -3.900   1.644  -0.856  0.00  0.00    +0.030 A 
ENDBRANCH   3  10
BRANCH   1  16
ATOM     16  S   LIG    1       -0.022   1.758   0.012  0.00  0.00    +0.100 S 
BRANCH  16  17
ATOM     17  C   LIG    1        1.756   2.096  -0.004  0.00  0.00    +0.110 C 
BRANCH  17  19
ATOM     18  O   LIG    1        1.041   4.341   0.015  0.00  0.00    -0.490 OA
ATOM     19  C   LIG    1        1.984   3.586   0.002  0.00  0.00    +0.480 C 
BRANCH  19  20
ATOM     20  O   LIG    1        3.235   4.074  -0.007  0.00  0.00    -0.340 OA
BRANCH  20  21
ATOM     21  C   LIG    1        3.378   5.519  -0.001  0.00  0.00    +0.280 C 
BRANCH  21  22
ATOM     22  C   LIG    1        4.842   5.878  -0.013  0.00  0.00    -0.090 A 
ATOM     23  C   LIG    1        5.524   6.041   1.180  0.00  0.00    -0.000 A 
ATOM     24  C   LIG    1        6.869   6.365   1.168  0.00  0.00    +0.040 A 
ATOM     25  C   LIG    1        7.529   6.536  -0.035  0.00  0.00    +0.070 A 
ATOM     26  C   LIG    1        6.846   6.378  -1.226  0.00  0.00    +0.040 A 
ATOM     27 CL   LIG    1        4.694   5.834   2.690  0.00  0.00    -0.050 Cl
ATOM     28  C   LIG    1        5.503   6.049  -1.216  0.00  0.00    -0.000 A 
ATOM     29 CL   LIG    1        4.646   5.850  -2.713  0.00  0.00    -0.050 Cl
ENDBRANCH  21  22
ENDBRANCH  20  21
ENDBRANCH  19  20
ENDBRANCH  17  19
ENDBRANCH  16  17
ENDBRANCH   1  16
TORSDOF 7
