REMARK  Name = ZINCpe000000U9Mx.0
REMARK                            x       y       z     vdW  Elec       q    Type
REMARK                         _______ _______ _______ _____ _____    ______ ____
ROOT
ATOM      1  N   LIG    1        5.187  -2.581   1.391  0.00  0.00    -0.530 NA
ATOM      2  C   LIG    1        4.243  -2.372   2.497  0.00  0.00    +0.170 C 
ATOM      3  C   LIG    1        2.822  -2.689   2.018  0.00  0.00    +0.300 C 
ATOM      4  N   LIG    1        2.549  -1.898   0.809  0.00  0.00    -0.610 N 
ATOM      5  C   LIG    1        3.520  -1.954  -0.294  0.00  0.00    +0.290 C 
ATOM      6  C   LIG    1        1.435  -1.145   0.713  0.00  0.00    +0.510 C 
ATOM      7  O   LIG    1        0.642  -1.115   1.630  0.00  0.00    -0.520 OA
ATOM      8  C   LIG    1        4.916  -1.661   0.278  0.00  0.00    +0.170 C 
ENDROOT
BRANCH   6   9
ATOM      9  C   LIG    1        1.174  -0.342  -0.536  0.00  0.00    +0.230 C 
ATOM     10  C   LIG    1        1.938   0.991  -0.481  0.00  0.00    +0.120 C 
ATOM     11  C   LIG    1        0.859   2.050  -0.536  0.00  0.00    -0.140 A 
ATOM     12  C   LIG    1        0.942   3.429  -0.520  0.00  0.00    +0.050 A 
ATOM     13  C   LIG    1       -0.208   4.194  -0.581  0.00  0.00    -0.010 A 
ATOM     14  C   LIG    1       -1.442   3.576  -0.658  0.00  0.00    +0.040 A 
ATOM     15  C   LIG    1       -1.530   2.200  -0.668  0.00  0.00    +0.010 A 
ATOM     16  C   LIG    1       -0.373   1.421  -0.612  0.00  0.00    +0.150 A 
ATOM     17  N   LIG    1       -0.241   0.029  -0.615  0.00  0.00    -0.540 N 
ATOM     18  C   LIG    1       -1.266  -0.845  -0.681  0.00  0.00    +0.530 C 
ATOM     19  O   LIG    1       -2.410  -0.441  -0.648  0.00  0.00    -0.510 OA
ATOM     20  C   LIG    1       -0.992  -2.322  -0.794  0.00  0.00    +0.100 C 
ENDBRANCH   6   9
BRANCH   1  21
ATOM     21  C   LIG    1        6.576  -2.454   1.852  0.00  0.00    +0.150 C 
BRANCH  21  22
ATOM     22  C   LIG    1        6.970  -3.709   2.633  0.00  0.00    +0.210 C 
BRANCH  22  24
ATOM     23  C   LIG    1        8.715  -4.726   4.105  0.00  0.00    +0.010 C 
ATOM     24  C   LIG    1        8.370  -3.525   3.222  0.00  0.00    -0.020 C 
ENDBRANCH  22  24
BRANCH  22  25
ATOM     25  O   LIG    1        6.967  -4.837   1.756  0.00  0.00    -0.550 OA
ATOM     26  H   LIG    1        7.581  -4.759   1.012  0.00  0.00    +0.370 HD
ENDBRANCH  22  25
ENDBRANCH  21  22
ENDBRANCH   1  21
TORSDOF 5
