REMARK  Name = ZINCrD0000073Hwf.0
REMARK                            x       y       z     vdW  Elec       q    Type
REMARK                         _______ _______ _______ _____ _____    ______ ____
ROOT
ATOM      1  C   LIG    1        0.494   3.489   2.133  0.00  0.00    +0.570 C 
ATOM      2  N   LIG    1       -0.563   3.029   1.435  0.00  0.00    -0.610 N 
ATOM      3  C   LIG    1       -1.508   4.003   0.854  0.00  0.00    +0.270 C 
ATOM      4  C   LIG    1       -1.930   3.593  -0.567  0.00  0.00    +0.040 C 
ATOM      5  C   LIG    1       -0.734   3.047  -1.315  0.00  0.00    +0.210 C 
ATOM      6  N   LIG    1       -0.684   1.596  -1.144  0.00  0.00    -0.530 N 
ATOM      7  C   LIG    1       -0.004   1.122   0.002  0.00  0.00    +0.190 C 
ATOM      8  C   LIG    1       -0.731   1.598   1.282  0.00  0.00    +0.290 C 
ATOM      9  O   LIG    1        0.713   4.683   2.189  0.00  0.00    -0.520 OA
ENDROOT
BRANCH   6  10
ATOM     10  C   LIG    1       -0.216   0.976  -2.293  0.00  0.00    +0.160 A 
ATOM     11  C   LIG    1        1.097   1.165  -2.703  0.00  0.00    -0.030 A 
ATOM     12  C   LIG    1        1.564   0.544  -3.844  0.00  0.00    +0.070 A 
ATOM     13  C   LIG    1        0.729  -0.265  -4.597  0.00  0.00    -0.010 A 
ATOM     14  C   LIG    1       -0.582  -0.464  -4.213  0.00  0.00    +0.130 A 
ATOM     15  F   LIG    1       -1.392  -1.253  -4.952  0.00  0.00    -0.130 F 
ATOM     16  C   LIG    1       -1.071   0.156  -3.053  0.00  0.00    -0.170 A 
BRANCH  16  17
ATOM     17  C   LIG    1       -2.461  -0.049  -2.637  0.00  0.00    +0.420 C 
ATOM     18  O   LIG    1       -3.342   0.643  -3.104  0.00  0.00    -0.440 OA
ATOM     19  C   LIG    1       -2.796  -1.118  -1.629  0.00  0.00    +0.080 C 
ENDBRANCH  16  17
ENDBRANCH   6  10
BRANCH   1  25
ATOM     20  C   LIG    1        2.764   2.555   2.578  0.00  0.00    +0.170 A 
ATOM     21  C   LIG    1        3.592   1.661   3.239  0.00  0.00    -0.080 A 
ATOM     22  C   LIG    1        3.060   0.763   4.143  0.00  0.00    +0.070 A 
ATOM     23  C   LIG    1        1.698   0.747   4.396  0.00  0.00    -0.030 A 
ATOM     24  C   LIG    1        0.861   1.632   3.751  0.00  0.00    +0.090 A 
ATOM     25  C   LIG    1        1.385   2.542   2.831  0.00  0.00    -0.160 A 
BRANCH  20  27
ATOM     26  C   LIG    1        4.698   3.393   1.483  0.00  0.00    +0.240 C 
ATOM     27  O   LIG    1        3.285   3.438   1.690  0.00  0.00    -0.300 OA
ENDBRANCH  20  27
ENDBRANCH   1  25
TORSDOF 4
