REMARK  Name = ZINCpe000000XTzu.0
REMARK                            x       y       z     vdW  Elec       q    Type
REMARK                         _______ _______ _______ _____ _____    ______ ____
ROOT
ATOM      1  C   LIG    1       -1.312   1.969   0.289  0.00  0.00    +0.050 C 
ENDROOT
BRANCH   1   2
ATOM      2  C   LIG    1        0.004   1.235   0.279  0.00  0.00    +0.520 C 
ATOM      3  N   LIG    1        1.143   1.898   0.001  0.00  0.00    -0.720 N 
ATOM      4  H   LIG    1        1.117   2.849  -0.188  0.00  0.00    +0.410 HD
ATOM      5  O   LIG    1        0.036   0.046   0.516  0.00  0.00    -0.520 OA
BRANCH   3   6
ATOM      6  C   LIG    1        2.422   1.183  -0.015  0.00  0.00    +0.250 C 
ATOM      7  C   LIG    1        3.473   2.026  -0.741  0.00  0.00    +0.050 C 
ATOM      8  C   LIG    1        3.253   3.504  -0.479  0.00  0.00    +0.010 C 
ATOM      9  C   LIG    1        3.492   3.913   0.963  0.00  0.00    +0.010 C 
ATOM     10  C   LIG    1        2.442   3.294   1.887  0.00  0.00    +0.260 C 
ATOM     11  N   LIG    1        2.898   1.952   2.285  0.00  0.00    -0.720 N 
ATOM     12  H   LIG    1        3.204   1.796   3.192  0.00  0.00    +0.400 HD
ATOM     13  C   LIG    1        2.892   0.949   1.406  0.00  0.00    +0.510 C 
ATOM     14  O   LIG    1        3.264  -0.154   1.745  0.00  0.00    -0.530 OA
ENDBRANCH   3   6
ENDBRANCH   1   2
BRANCH   1  15
ATOM     15  C   LIG    1       -2.440   0.991   0.624  0.00  0.00    +0.330 C 
BRANCH  15  24
ATOM     16  C   LIG    1       -7.741   4.364   2.218  0.00  0.00    +0.110 C 
ATOM     17  C   LIG    1       -7.311   3.771   0.901  0.00  0.00    -0.070 A 
ATOM     18  C   LIG    1       -8.107   3.913  -0.213  0.00  0.00    +0.060 A 
ATOM     19  C   LIG    1       -7.725   3.372  -1.434  0.00  0.00    +0.000 A 
ATOM     20  C   LIG    1       -6.539   2.682  -1.554  0.00  0.00    +0.090 A 
ATOM     21  C   LIG    1       -5.719   2.527  -0.438  0.00  0.00    -0.190 A 
ATOM     22  C   LIG    1       -4.443   1.800  -0.506  0.00  0.00    +0.550 A 
ATOM     23  O   LIG    1       -4.052   1.303  -1.546  0.00  0.00    -0.510 OA
ATOM     24  N   LIG    1       -3.719   1.705   0.634  0.00  0.00    -0.550 N 
ATOM     25  C   LIG    1       -4.171   2.260   1.788  0.00  0.00    +0.570 A 
ATOM     26  N   LIG    1       -5.290   2.912   1.877  0.00  0.00    -0.520 NA
ATOM     27  C   LIG    1       -6.104   3.076   0.805  0.00  0.00    +0.150 A 
ENDBRANCH  15  24
ENDBRANCH   1  15
TORSDOF 4
