REMARK  Name = ZINCnE000001Q0LW.1
REMARK                            x       y       z     vdW  Elec       q    Type
REMARK                         _______ _______ _______ _____ _____    ______ ____
ROOT
ATOM      1  N   LIG    1        5.100  -3.984  -0.069  0.00  0.00    -0.680 NA
ATOM      2  C   LIG    1        4.913  -2.650  -0.060  0.00  0.00    +0.460 C 
ATOM      3  O   LIG    1        5.869  -1.903  -0.066  0.00  0.00    -0.550 OA
ENDROOT
BRANCH   1  10
ATOM      4  C   LIG    1       12.088  -7.022  -0.158  0.00  0.00    +0.080 C 
ATOM      5  C   LIG    1       10.879  -6.123  -0.140  0.00  0.00    -0.130 A 
ATOM      6  C   LIG    1       11.039  -4.745  -0.134  0.00  0.00    +0.020 A 
ATOM      7  C   LIG    1        9.947  -3.915  -0.118  0.00  0.00    +0.010 A 
ATOM      8  C   LIG    1        8.642  -4.451  -0.107  0.00  0.00    +0.150 A 
ATOM      9  N   LIG    1        7.462  -3.799  -0.097  0.00  0.00    -0.560 NA
ATOM     10  C   LIG    1        6.384  -4.504  -0.085  0.00  0.00    +0.400 A 
ATOM     11  S   LIG    1        6.773  -6.218  -0.098  0.00  0.00    -0.030 S 
ATOM     12  C   LIG    1        8.494  -5.842  -0.113  0.00  0.00    -0.210 A 
ATOM     13  C   LIG    1        9.614  -6.669  -0.129  0.00  0.00    +0.060 A 
ENDBRANCH   1  10
BRANCH   2  14
ATOM     14  C   LIG    1        3.516  -2.084  -0.043  0.00  0.00    +0.220 C 
BRANCH  14  15
ATOM     15  O   LIG    1        3.580  -0.657  -0.036  0.00  0.00    -0.280 OA
BRANCH  15  16
ATOM     16  C   LIG    1        2.400   0.013  -0.021  0.00  0.00    +0.190 A 
ATOM     17  C   LIG    1        1.203  -0.687  -0.013  0.00  0.00    -0.080 A 
ATOM     18  C   LIG    1        0.002  -0.004   0.002  0.00  0.00    +0.080 A 
ATOM     19  C   LIG    1       -0.017   1.381   0.010  0.00  0.00    -0.040 A 
ATOM     20  C   LIG    1        1.164   2.092   0.002  0.00  0.00    +0.110 A 
ATOM     21  C   LIG    1        2.385   1.415  -0.014  0.00  0.00    -0.070 A 
BRANCH  21  22
ATOM     22  C   LIG    1        3.615   2.147  -0.022  0.00  0.00    +0.260 C 
ATOM     23  N   LIG    1        4.591   2.729  -0.029  0.00  0.00    -0.420 NA
ENDBRANCH  21  22
ENDBRANCH  15  16
ENDBRANCH  14  15
ENDBRANCH   2  14
TORSDOF 5
