REMARK  Name = ZINCrg00001zVOpA.0
REMARK                            x       y       z     vdW  Elec       q    Type
REMARK                         _______ _______ _______ _____ _____    ______ ____
ROOT
ATOM      1  C   LIG    1        1.677   4.037   3.947  0.00  0.00    +0.310 A 
ATOM      2  C   LIG    1        2.196   2.755   3.827  0.00  0.00    -0.070 A 
ATOM      3  C   LIG    1        2.111   2.085   2.623  0.00  0.00    +0.210 A 
ATOM      4  C   LIG    1        1.510   2.683   1.528  0.00  0.00    -0.730 A 
ATOM      5  C   LIG    1        0.994   3.957   1.626  0.00  0.00    +0.230 A 
ATOM      6  C   LIG    1        1.067   4.647   2.839  0.00  0.00    -0.120 A 
ENDROOT
BRANCH   4   7
ATOM      7  S   LIG    1        1.412   1.813  -0.002  0.00  0.00    +2.700 S 
ATOM      8  O   LIG    1        1.285   2.800  -1.017  0.00  0.00    -0.960 OA
ATOM      9  O   LIG    1        2.454   0.848   0.018  0.00  0.00    -0.960 OA
BRANCH   7  10
ATOM     10  N   LIG    1       -0.011   0.966   0.007  0.00  0.00    -1.110 NA
ATOM     11  H   LIG    1        0.002  -0.004   0.002  0.00  0.00    +0.420 HD
BRANCH  10  12
ATOM     12  C   LIG    1       -1.290   1.681   0.017  0.00  0.00    +0.250 C 
ATOM     13  C   LIG    1       -1.789   1.812   1.457  0.00  0.00    +0.040 C 
BRANCH  12  14
ATOM     14  C   LIG    1       -2.316   0.903  -0.809  0.00  0.00    +0.190 C 
BRANCH  14  15
ATOM     15  O   LIG    1       -2.580  -0.353  -0.181  0.00  0.00    -0.570 OA
ATOM     16  H   LIG    1       -3.223  -0.900  -0.652  0.00  0.00    +0.380 HD
ENDBRANCH  14  15
ENDBRANCH  12  14
ENDBRANCH  10  12
ENDBRANCH   7  10
ENDBRANCH   4   7
BRANCH   1  17
ATOM     17  N   LIG    1        1.760   4.714   5.159  0.00  0.00    -0.720 N 
ATOM     18  H   LIG    1        1.397   5.610   5.240  0.00  0.00    +0.410 HD
BRANCH  17  19
ATOM     19  C   LIG    1        2.397   4.075   6.313  0.00  0.00    +0.410 C 
BRANCH  19  23
ATOM     20  C   LIG    1        2.850   6.549   8.956  0.00  0.00    +0.170 A 
ATOM     21  N   LIG    1        1.696   5.996   9.251  0.00  0.00    -0.290 NA
ATOM     22  N   LIG    1        1.411   5.091   8.384  0.00  0.00    -0.250 NA
ATOM     23  C   LIG    1        2.357   5.013   7.492  0.00  0.00    +0.150 A 
ATOM     24  N   LIG    1        3.310   5.935   7.826  0.00  0.00    -0.460 N 
ATOM     25  C   LIG    1        4.563   6.209   7.118  0.00  0.00    +0.360 C 
BRANCH  20  26
ATOM     26  S   LIG    1        3.655   7.835   9.851  0.00  0.00    +0.000 S 
BRANCH  26  28
ATOM     27  C   LIG    1        2.953   9.200  12.111  0.00  0.00    +0.080 C 
ATOM     28  C   LIG    1        2.453   8.094  11.179  0.00  0.00    +0.090 C 
ENDBRANCH  26  28
ENDBRANCH  20  26
ENDBRANCH  19  23
ENDBRANCH  17  19
ENDBRANCH   1  17
BRANCH   6  29
ATOM     29  C   LIG    1        0.527   5.968   2.950  0.00  0.00    +0.250 C 
ATOM     30  N   LIG    1        0.099   7.017   3.038  0.00  0.00    -0.410 NA
ENDBRANCH   6  29
TORSDOF 11
