REMARK  Name = ZINCpe000000Tlrn.0
REMARK                            x       y       z     vdW  Elec       q    Type
REMARK                         _______ _______ _______ _____ _____    ______ ____
ROOT
ATOM      1  N   LIG    1        1.140   1.908   0.005  0.00  0.00    -0.750 N 
ATOM      2  H   LIG    1        1.122   2.875  -0.059  0.00  0.00    +0.400 HD
ATOM      3  C   LIG    1       -0.014   1.212   0.009  0.00  0.00    +0.710 C 
ATOM      4  N   LIG    1       -1.194   1.863   0.018  0.00  0.00    -0.630 N 
ATOM      5  C   LIG    1       -1.240   3.329  -0.078  0.00  0.00    +0.270 C 
ATOM      6  C   LIG    1       -2.139   3.710  -1.266  0.00  0.00    +0.300 C 
ATOM      7  N   LIG    1       -3.403   2.968  -1.154  0.00  0.00    -1.000 NA
ATOM      8  C   LIG    1       -3.357   1.502  -1.052  0.00  0.00    +0.290 C 
ATOM      9  C   LIG    1       -2.458   1.121   0.130  0.00  0.00    +0.290 C 
ATOM     10  O   LIG    1        0.009  -0.004  -0.002  0.00  0.00    -0.580 OA
ENDROOT
BRANCH   7  11
ATOM     11  S   LIG    1       -4.852   3.768  -1.141  0.00  0.00    +2.700 S 
ATOM     12  O   LIG    1       -5.831   2.833  -1.575  0.00  0.00    -0.950 OA
ATOM     13  O   LIG    1       -4.628   5.014  -1.787  0.00  0.00    -0.950 OA
BRANCH  11  14
ATOM     14  C   LIG    1       -5.229   4.139   0.539  0.00  0.00    -0.680 A 
ATOM     15  C   LIG    1       -4.800   5.329   1.096  0.00  0.00    +0.130 A 
ATOM     16  C   LIG    1       -5.093   5.623   2.415  0.00  0.00    +0.020 A 
ATOM     17  C   LIG    1       -5.817   4.725   3.183  0.00  0.00    +0.110 A 
ATOM     18  O   LIG    1       -6.091   5.025   4.482  0.00  0.00    -0.300 OA
ATOM     19  C   LIG    1       -7.134   4.271   5.110  0.00  0.00    +0.230 C 
ATOM     20  C   LIG    1       -6.921   2.788   4.779  0.00  0.00    +0.230 C 
ATOM     21  O   LIG    1       -6.967   2.635   3.357  0.00  0.00    -0.300 OA
ATOM     22  C   LIG    1       -6.251   3.529   2.622  0.00  0.00    +0.030 A 
ATOM     23  C   LIG    1       -5.958   3.242   1.298  0.00  0.00    +0.140 A 
ENDBRANCH  11  14
ENDBRANCH   7  11
BRANCH   1  24
ATOM     24  C   LIG    1        2.421   1.203   0.100  0.00  0.00    +0.270 C 
BRANCH  24  26
ATOM     25  C   LIG    1        4.902   1.482   0.174  0.00  0.00    +0.030 C 
ATOM     26  C   LIG    1        3.565   2.218   0.075  0.00  0.00    +0.000 C 
ENDBRANCH  24  26
ENDBRANCH   1  24
TORSDOF 4
