REMARK  Name = ZINCpe00000gM8aa.0
REMARK                            x       y       z     vdW  Elec       q    Type
REMARK                         _______ _______ _______ _____ _____    ______ ____
ROOT
ATOM      1  C   LIG    1        4.243   8.414   0.674  0.00  0.00    +0.170 C 
ATOM      2  C   LIG    1        5.272   7.681  -0.217  0.00  0.00    +0.320 C 
ATOM      3  N   LIG    1        4.869   6.260  -0.109  0.00  0.00    -0.620 N 
ATOM      4  C   LIG    1        3.394   6.255  -0.112  0.00  0.00    +0.250 C 
ATOM      5  C   LIG    1        5.684   5.190  -0.021  0.00  0.00    +0.620 C 
ATOM      6  O   LIG    1        6.887   5.347   0.072  0.00  0.00    -0.510 OA
ATOM      7  C   LIG    1        2.937   7.630   0.411  0.00  0.00    +0.190 C 
ENDROOT
BRANCH   5   8
ATOM      8  C   LIG    1        5.121   3.837  -0.036  0.00  0.00    -0.060 A 
ATOM      9  C   LIG    1        5.819   2.665   0.176  0.00  0.00    +0.070 A 
ATOM     10  C   LIG    1        4.910   1.613   0.075  0.00  0.00    -0.030 A 
ATOM     11  C   LIG    1        3.672   2.155  -0.196  0.00  0.00    +0.100 A 
ATOM     12  N   LIG    1        3.804   3.511  -0.269  0.00  0.00    -0.540 N 
ATOM     13  H   LIG    1        3.088   4.140  -0.453  0.00  0.00    +0.410 HD
BRANCH  11  14
ATOM     14  C   LIG    1        2.418   1.396  -0.383  0.00  0.00    -0.030 A 
ATOM     15  C   LIG    1        1.225   2.069  -0.654  0.00  0.00    -0.010 A 
ATOM     16  C   LIG    1        0.057   1.354  -0.826  0.00  0.00    +0.020 A 
ATOM     17  C   LIG    1        0.067  -0.026  -0.731  0.00  0.00    +0.020 A 
ATOM     18  C   LIG    1        1.245  -0.699  -0.462  0.00  0.00    +0.020 A 
ATOM     19  C   LIG    1        2.420   0.003  -0.288  0.00  0.00    +0.040 A 
ENDBRANCH  11  14
ENDBRANCH   5   8
BRANCH   1  21
ATOM     20  C   LIG    1        5.353  10.536   0.526  0.00  0.00    +0.330 C 
ATOM     21  N   LIG    1        4.099   9.818   0.265  0.00  0.00    -0.350 N 
ATOM     22  H   LIG    1        3.886   9.861  -0.721  0.00  0.00    +0.420 HD
BRANCH  21  23
ATOM     23  C   LIG    1        3.009  10.441   1.029  0.00  0.00    +0.170 C 
BRANCH  23  24
ATOM     24  C   LIG    1        2.779  11.842   0.524  0.00  0.00    +0.490 C 
ATOM     25  O   LIG    1        1.913  12.537   1.028  0.00  0.00    -0.640 OA
ATOM     26  O   LIG    1        3.460  12.281  -0.387  0.00  0.00    -0.670 OA
ENDBRANCH  23  24
ENDBRANCH  21  23
ENDBRANCH   1  21
BRANCH   7  27
ATOM     27  O   LIG    1        2.194   7.478   1.622  0.00  0.00    -0.540 OA
ATOM     28  H   LIG    1        1.386   6.956   1.525  0.00  0.00    +0.400 HD
ENDBRANCH   7  27
TORSDOF 6
