REMARK  Name = ZINCpe00000gM8aa.1
REMARK                            x       y       z     vdW  Elec       q    Type
REMARK                         _______ _______ _______ _____ _____    ______ ____
ROOT
ATOM      1  C   LIG    1        1.346  -0.358  -0.865  0.00  0.00    +0.170 C 
ATOM      2  C   LIG    1        0.008   0.009  -0.195  0.00  0.00    +0.270 C 
ATOM      3  N   LIG    1       -0.016   1.477  -0.051  0.00  0.00    -0.630 N 
ATOM      4  C   LIG    1        1.402   1.904  -0.008  0.00  0.00    +0.290 C 
ATOM      5  C   LIG    1       -1.105   2.268   0.020  0.00  0.00    +0.620 C 
ATOM      6  O   LIG    1       -0.976   3.468   0.173  0.00  0.00    -0.500 OA
ATOM      7  C   LIG    1        2.082   0.988  -1.056  0.00  0.00    +0.170 C 
ENDROOT
BRANCH   5   8
ATOM      8  C   LIG    1       -2.444   1.682  -0.087  0.00  0.00    -0.070 A 
ATOM      9  C   LIG    1       -3.630   2.381  -0.188  0.00  0.00    +0.080 A 
ATOM     10  C   LIG    1       -4.661   1.447  -0.268  0.00  0.00    -0.040 A 
ATOM     11  C   LIG    1       -4.092   0.192  -0.216  0.00  0.00    +0.110 A 
ATOM     12  N   LIG    1       -2.740   0.337  -0.112  0.00  0.00    -0.540 N 
ATOM     13  H   LIG    1       -2.095  -0.385  -0.060  0.00  0.00    +0.410 HD
BRANCH  11  14
ATOM     14  C   LIG    1       -4.823  -1.091  -0.271  0.00  0.00    -0.040 A 
ATOM     15  C   LIG    1       -4.124  -2.299  -0.214  0.00  0.00    -0.010 A 
ATOM     16  C   LIG    1       -4.813  -3.493  -0.260  0.00  0.00    +0.020 A 
ATOM     17  C   LIG    1       -6.192  -3.497  -0.374  0.00  0.00    +0.020 A 
ATOM     18  C   LIG    1       -6.890  -2.304  -0.436  0.00  0.00    +0.020 A 
ATOM     19  C   LIG    1       -6.214  -1.102  -0.385  0.00  0.00    +0.040 A 
ENDBRANCH  11  14
ENDBRANCH   5   8
BRANCH   1  21
ATOM     20  C   LIG    1        2.393  -1.310  -2.801  0.00  0.00    +0.320 C 
ATOM     21  N   LIG    1        1.106  -1.000  -2.164  0.00  0.00    -0.360 N 
ATOM     22  H   LIG    1        0.580  -0.375  -2.756  0.00  0.00    +0.420 HD
BRANCH  21  23
ATOM     23  C   LIG    1        0.347  -2.241  -1.964  0.00  0.00    +0.150 C 
BRANCH  23  24
ATOM     24  C   LIG    1       -0.005  -2.836  -3.304  0.00  0.00    +0.490 C 
ATOM     25  O   LIG    1       -0.639  -3.876  -3.361  0.00  0.00    -0.630 OA
ATOM     26  O   LIG    1        0.345  -2.278  -4.330  0.00  0.00    -0.670 OA
ENDBRANCH  23  24
ENDBRANCH  21  23
ENDBRANCH   1  21
BRANCH   7  27
ATOM     27  O   LIG    1        3.477   0.846  -0.780  0.00  0.00    -0.550 OA
ATOM     28  H   LIG    1        3.984   1.663  -0.886  0.00  0.00    +0.400 HD
ENDBRANCH   7  27
TORSDOF 6
