REMARK  Name = ZINCvU0000000Hsy.0
REMARK                            x       y       z     vdW  Elec       q    Type
REMARK                         _______ _______ _______ _____ _____    ______ ____
ROOT
ATOM      1  C   LIG    1        3.084   3.821  -0.078  0.00  0.00    +0.310 C 
ATOM      2  N   LIG    1        3.468   2.408  -0.113  0.00  0.00    -0.590 N 
ATOM      3  C   LIG    1        2.568   1.457   0.207  0.00  0.00    +0.610 C 
ATOM      4  O   LIG    1        2.904   0.287   0.239  0.00  0.00    -0.510 OA
ENDROOT
BRANCH   3   5
ATOM      5  C   LIG    1        1.186   1.831   0.518  0.00  0.00    -0.070 A 
ATOM      6  C   LIG    1        0.140   0.959   0.730  0.00  0.00    +0.050 A 
ATOM      7  C   LIG    1       -0.991   1.741   0.987  0.00  0.00    -0.030 A 
ATOM      8  C   LIG    1       -0.597   3.047   0.932  0.00  0.00    +0.050 A 
ATOM      9  O   LIG    1        0.715   3.090   0.645  0.00  0.00    -0.140 OA
BRANCH   8  10
ATOM     10  C   LIG    1       -1.469   4.219   1.146  0.00  0.00    -0.020 A 
ATOM     11  C   LIG    1       -2.683   4.324   0.464  0.00  0.00    +0.060 A 
ATOM     12  C   LIG    1       -3.496   5.419   0.672  0.00  0.00    +0.030 A 
ATOM     13  C   LIG    1       -3.106   6.418   1.546  0.00  0.00    +0.050 A 
ATOM     14  C   LIG    1       -1.903   6.325   2.222  0.00  0.00    +0.030 A 
ATOM     15  C   LIG    1       -1.082   5.232   2.028  0.00  0.00    -0.010 A 
ATOM     16 CL   LIG    1        0.428   5.116   2.877  0.00  0.00    -0.050 Cl
ENDBRANCH   8  10
ENDBRANCH   3   5
BRANCH   2  17
ATOM     17  C   LIG    1        4.830   2.028  -0.495  0.00  0.00    +0.340 C 
BRANCH  17  18
ATOM     18  C   LIG    1        4.894   1.821  -1.986  0.00  0.00    +0.500 C 
ATOM     19  N   LIG    1        6.057   1.465  -2.568  0.00  0.00    -0.670 N 
ATOM     20  H   LIG    1        6.866   1.405  -2.037  0.00  0.00    +0.410 HD
ATOM     21  O   LIG    1        3.900   1.976  -2.663  0.00  0.00    -0.510 OA
BRANCH  19  22
ATOM     22  C   LIG    1        6.096   1.180  -3.939  0.00  0.00    +0.130 A 
ATOM     23  C   LIG    1        6.942   0.190  -4.419  0.00  0.00    +0.040 A 
ATOM     24  C   LIG    1        6.976  -0.094  -5.770  0.00  0.00    -0.030 A 
ATOM     25  C   LIG    1        6.172   0.618  -6.649  0.00  0.00    +0.090 A 
ATOM     26  C   LIG    1        5.331   1.612  -6.171  0.00  0.00    +0.040 A 
ATOM     27  C   LIG    1        5.292   1.893  -4.819  0.00  0.00    +0.070 A 
BRANCH  25  28
ATOM     28  O   LIG    1        6.210   0.342  -7.980  0.00  0.00    -0.310 OA
BRANCH  28  29
ATOM     29  C   LIG    1        7.100  -0.694  -8.403  0.00  0.00    +0.600 C 
ATOM     30  F   LIG    1        8.411  -0.354  -8.052  0.00  0.00    -0.170 F 
ATOM     31  F   LIG    1        7.013  -0.845  -9.791  0.00  0.00    -0.130 F 
ATOM     32  F   LIG    1        6.746  -1.895  -7.780  0.00  0.00    -0.160 F 
ENDBRANCH  28  29
ENDBRANCH  25  28
ENDBRANCH  19  22
ENDBRANCH  17  18
ENDBRANCH   2  17
TORSDOF 7
