REMARK  Name = ZINCwl0000000b9T.1
REMARK                            x       y       z     vdW  Elec       q    Type
REMARK                         _______ _______ _______ _____ _____    ______ ____
ROOT
ATOM      1  N   LIG    1       -2.441   1.578  -0.073  0.00  0.00    -0.690 N 
ATOM      2  H   LIG    1       -2.462   0.729   0.395  0.00  0.00    +0.410 HD
ATOM      3  C   LIG    1       -3.564   2.068  -0.633  0.00  0.00    +0.710 C 
ATOM      4  N   LIG    1       -4.739   1.431  -0.455  0.00  0.00    -0.730 N 
ATOM      5  H   LIG    1       -4.775   0.621   0.077  0.00  0.00    +0.400 HD
ATOM      6  O   LIG    1       -3.519   3.084  -1.300  0.00  0.00    -0.560 OA
ENDROOT
BRANCH   4   7
ATOM      7  C   LIG    1       -5.961   1.964  -1.063  0.00  0.00    +0.270 C 
ATOM      8  C   LIG    1       -7.213   1.505  -0.271  0.00  0.00    +0.050 C 
ATOM      9  C   LIG    1       -8.308   1.550  -1.367  0.00  0.00    +0.280 C 
ATOM     10  N   LIG    1       -7.631   1.096  -2.595  0.00  0.00    -0.610 N 
ATOM     11  C   LIG    1       -8.235   0.542  -3.666  0.00  0.00    +0.580 C 
ATOM     12  O   LIG    1       -7.566   0.107  -4.582  0.00  0.00    -0.520 OA
ATOM     13  C   LIG    1       -6.189   1.346  -2.459  0.00  0.00    +0.250 C 
BRANCH  11  14
ATOM     14  C   LIG    1       -9.713   0.465  -3.725  0.00  0.00    -0.090 A 
ATOM     15  C   LIG    1      -10.352  -0.387  -4.630  0.00  0.00    +0.030 A 
ATOM     16  C   LIG    1      -11.733  -0.432  -4.648  0.00  0.00    +0.270 A 
ATOM     17  N   LIG    1      -12.445   0.323  -3.834  0.00  0.00    -0.470 NA
ATOM     18  C   LIG    1      -11.883   1.143  -2.970  0.00  0.00    +0.260 A 
ATOM     19  C   LIG    1      -10.508   1.247  -2.881  0.00  0.00    -0.010 A 
ENDBRANCH  11  14
ENDBRANCH   4   7
BRANCH   1  24
ATOM     20  C   LIG    1        1.148   2.331  -0.348  0.00  0.00    -0.140 A 
ATOM     21  C   LIG    1        1.126   3.713  -0.357  0.00  0.00    +0.020 A 
ATOM     22  C   LIG    1       -0.078   4.389  -0.269  0.00  0.00    +0.050 A 
ATOM     23  C   LIG    1       -1.261   3.684  -0.171  0.00  0.00    +0.060 A 
ATOM     24  C   LIG    1       -1.242   2.295  -0.167  0.00  0.00    +0.180 A 
ATOM     25  C   LIG    1       -0.032   1.620  -0.250  0.00  0.00    +0.020 A 
BRANCH  20  26
ATOM     26  C   LIG    1        2.462   1.599  -0.444  0.00  0.00    +0.320 C 
BRANCH  26  31
ATOM     27  C   LIG    1        3.999   0.516  -1.951  0.00  0.00    +0.170 C 
ATOM     28  C   LIG    1        4.745   1.047  -3.200  0.00  0.00    +0.100 C 
ATOM     29  C   LIG    1        4.469   2.571  -3.106  0.00  0.00    +0.090 C 
ATOM     30  C   LIG    1        3.034   2.629  -2.542  0.00  0.00    +0.250 C 
ATOM     31  N   LIG    1        2.781   1.349  -1.856  0.00  0.00    -0.380 N 
ATOM     32  H   LIG    1        2.011   0.872  -2.300  0.00  0.00    +0.430 HD
BRANCH  27  36
ATOM     33  N   LIG    1        4.597  -1.866  -2.246  0.00  0.00    -0.820 N 
ATOM     34  H   LIG    1        4.359  -2.799  -2.366  0.00  0.00    +0.420 HD
ATOM     35  H   LIG    1        5.530  -1.605  -2.205  0.00  0.00    +0.410 HD
ATOM     36  C   LIG    1        3.630  -0.933  -2.137  0.00  0.00    +0.520 C 
ATOM     37  O   LIG    1        2.463  -1.260  -2.188  0.00  0.00    -0.530 OA
ENDBRANCH  27  36
ENDBRANCH  26  31
ENDBRANCH  20  26
ENDBRANCH   1  24
TORSDOF 6
