REMARK  Name = ZINCwl0000000b9T.2
REMARK                            x       y       z     vdW  Elec       q    Type
REMARK                         _______ _______ _______ _____ _____    ______ ____
ROOT
ATOM      1  N   LIG    1       -2.207   1.069   2.382  0.00  0.00    -0.690 N 
ATOM      2  H   LIG    1       -2.265   2.037   2.387  0.00  0.00    +0.410 HD
ATOM      3  C   LIG    1       -1.202   0.457   1.724  0.00  0.00    +0.710 C 
ATOM      4  N   LIG    1       -0.228   1.191   1.149  0.00  0.00    -0.730 N 
ATOM      5  H   LIG    1       -0.251   2.159   1.209  0.00  0.00    +0.400 HD
ATOM      6  O   LIG    1       -1.173  -0.756   1.650  0.00  0.00    -0.560 OA
ENDROOT
BRANCH   4   7
ATOM      7  C   LIG    1        0.865   0.526   0.435  0.00  0.00    +0.270 C 
ATOM      8  C   LIG    1        2.110   1.448   0.356  0.00  0.00    +0.050 C 
ATOM      9  C   LIG    1        2.811   0.915  -0.918  0.00  0.00    +0.280 C 
ATOM     10  N   LIG    1        1.712   0.573  -1.839  0.00  0.00    -0.610 N 
ATOM     11  C   LIG    1        1.803   0.513  -3.182  0.00  0.00    +0.580 C 
ATOM     12  O   LIG    1        2.828   0.854  -3.738  0.00  0.00    -0.520 OA
ATOM     13  C   LIG    1        0.500   0.310  -1.049  0.00  0.00    +0.250 C 
BRANCH  11  14
ATOM     14  C   LIG    1        0.652   0.030  -3.981  0.00  0.00    -0.090 A 
ATOM     15  C   LIG    1       -0.583  -0.229  -3.379  0.00  0.00    -0.020 A 
ATOM     16  C   LIG    1       -1.630  -0.674  -4.162  0.00  0.00    +0.260 A 
ATOM     17  N   LIG    1       -1.473  -0.864  -5.457  0.00  0.00    -0.470 NA
ATOM     18  C   LIG    1       -0.325  -0.637  -6.063  0.00  0.00    +0.270 A 
ATOM     19  C   LIG    1        0.773  -0.186  -5.357  0.00  0.00    +0.040 A 
ENDBRANCH  11  14
ENDBRANCH   4   7
BRANCH   1  24
ATOM     20  C   LIG    1       -4.664   0.017   4.907  0.00  0.00    -0.140 A 
ATOM     21  C   LIG    1       -5.067  -1.200   4.389  0.00  0.00    +0.020 A 
ATOM     22  C   LIG    1       -4.524  -1.665   3.206  0.00  0.00    +0.050 A 
ATOM     23  C   LIG    1       -3.580  -0.913   2.535  0.00  0.00    +0.060 A 
ATOM     24  C   LIG    1       -3.168   0.307   3.056  0.00  0.00    +0.180 A 
ATOM     25  C   LIG    1       -3.715   0.771   4.244  0.00  0.00    +0.000 A 
BRANCH  20  26
ATOM     26  C   LIG    1       -5.258   0.520   6.197  0.00  0.00    +0.320 C 
BRANCH  26  31
ATOM     27  C   LIG    1       -7.121   1.695   7.166  0.00  0.00    +0.160 C 
ATOM     28  C   LIG    1       -7.167   3.234   7.222  0.00  0.00    +0.100 C 
ATOM     29  C   LIG    1       -7.034   3.642   5.732  0.00  0.00    +0.080 C 
ATOM     30  C   LIG    1       -6.066   2.558   5.196  0.00  0.00    +0.260 C 
ATOM     31  N   LIG    1       -6.455   1.320   5.905  0.00  0.00    -0.370 N 
ATOM     32  H   LIG    1       -7.090   0.786   5.332  0.00  0.00    +0.430 HD
BRANCH  27  36
ATOM     33  N   LIG    1       -6.894   0.258   9.167  0.00  0.00    -0.830 N 
ATOM     34  H   LIG    1       -6.389  -0.084   9.921  0.00  0.00    +0.420 HD
ATOM     35  H   LIG    1       -7.799  -0.052   9.008  0.00  0.00    +0.410 HD
ATOM     36  C   LIG    1       -6.337   1.164   8.338  0.00  0.00    +0.510 C 
ATOM     37  O   LIG    1       -5.205   1.551   8.536  0.00  0.00    -0.510 OA
ENDBRANCH  27  36
ENDBRANCH  26  31
ENDBRANCH  20  26
ENDBRANCH   1  24
TORSDOF 6
