REMARK  Name = ZINCpe000000Udn3.0
REMARK                            x       y       z     vdW  Elec       q    Type
REMARK                         _______ _______ _______ _____ _____    ______ ____
ROOT
ATOM      1  C   LIG    1        2.225   5.167  -2.433  0.00  0.00    +0.170 C 
ENDROOT
BRANCH   1   2
ATOM      2  C   LIG    1        1.260   4.298  -3.197  0.00  0.00    +0.480 C 
ATOM      3  O   LIG    1        1.575   3.160  -3.503  0.00  0.00    -0.670 OA
ATOM      4  O   LIG    1        0.164   4.732  -3.508  0.00  0.00    -0.690 OA
ENDBRANCH   1   2
BRANCH   1   5
ATOM      5  N   LIG    1        3.076   4.326  -1.587  0.00  0.00    -1.090 NA
ATOM      6  H   LIG    1        3.877   3.921  -1.955  0.00  0.00    +0.410 HD
BRANCH   5   7
ATOM      7  S   LIG    1        2.670   4.067  -0.003  0.00  0.00    +2.700 S 
ATOM      8  O   LIG    1        3.660   3.196   0.528  0.00  0.00    -0.970 OA
ATOM      9  O   LIG    1        2.381   5.343   0.551  0.00  0.00    -0.970 OA
BRANCH   7  13
ATOM     10  C   LIG    1       -1.219   1.750   0.017  0.00  0.00    -0.020 A 
ATOM     11  C   LIG    1       -0.013   1.076   0.008  0.00  0.00    -0.010 A 
ATOM     12  C   LIG    1        1.175   1.783   0.000  0.00  0.00    +0.120 A 
ATOM     13  C   LIG    1        1.157   3.165   0.008  0.00  0.00    -0.670 A 
ATOM     14  C   LIG    1       -0.050   3.840   0.022  0.00  0.00    +0.130 A 
ATOM     15  C   LIG    1       -1.238   3.133   0.030  0.00  0.00    -0.100 A 
BRANCH  10  17
ATOM     16  C   LIG    1       -3.023   0.834  -1.416  0.00  0.00    +0.030 C 
ATOM     17  C   LIG    1       -2.514   0.979   0.019  0.00  0.00    +0.060 C 
ENDBRANCH  10  17
BRANCH  15  18
ATOM     18  C   LIG    1       -2.553   3.869   0.047  0.00  0.00    +0.070 C 
ATOM     19  C   LIG    1       -3.045   4.001   1.489  0.00  0.00    +0.030 C 
ENDBRANCH  15  18
ENDBRANCH   7  13
ENDBRANCH   5   7
ENDBRANCH   1   5
BRANCH   1  20
ATOM     20  C   LIG    1        3.098   5.947  -3.418  0.00  0.00    +0.060 C 
BRANCH  20  21
ATOM     21  C   LIG    1        3.992   6.921  -2.647  0.00  0.00    +0.020 C 
BRANCH  21  22
ATOM     22  C   LIG    1        4.865   7.701  -3.632  0.00  0.00    +0.270 C 
BRANCH  22  23
ATOM     23  N   LIG    1        5.720   8.634  -2.894  0.00  0.00    -0.690 NA
ATOM     24  H   LIG    1        5.669   8.677  -1.926  0.00  0.00    +0.440 HD
BRANCH  23  25
ATOM     25  C   LIG    1        6.592   9.443  -3.569  0.00  0.00    +0.740 C 
BRANCH  25  26
ATOM     26  N   LIG    1        7.370  10.291  -2.898  0.00  0.00    -0.800 NA
ATOM     27  H   LIG    1        7.988  10.865  -3.377  0.00  0.00    +0.440 HD
ATOM     28  H   LIG    1        7.318  10.334  -1.931  0.00  0.00    +0.440 HD
ENDBRANCH  25  26
BRANCH  25  29
ATOM     29  N   LIG    1        6.663   9.384  -4.898  0.00  0.00    -0.800 NA
ATOM     30  H   LIG    1        7.281   9.958  -5.377  0.00  0.00    +0.440 HD
ATOM     31  H   LIG    1        6.096   8.766  -5.387  0.00  0.00    +0.440 HD
ENDBRANCH  25  29
ENDBRANCH  23  25
ENDBRANCH  22  23
ENDBRANCH  21  22
ENDBRANCH  20  21
ENDBRANCH   1  20
TORSDOF 13
