REMARK  Name = ZINCrD00000F5LFv.0
REMARK                            x       y       z     vdW  Elec       q    Type
REMARK                         _______ _______ _______ _____ _____    ______ ____
ROOT
ATOM      1  C   LIG    1       -2.592   4.180   0.035  0.00  0.00    +0.550 C 
ATOM      2  N   LIG    1       -2.607   5.528   0.044  0.00  0.00    -0.670 N 
ATOM      3  H   LIG    1       -1.776   6.022   0.118  0.00  0.00    +0.420 HD
ATOM      4  O   LIG    1       -3.639   3.560   0.028  0.00  0.00    -0.510 OA
ENDROOT
BRANCH   2   5
ATOM      5  C   LIG    1       -3.822   6.214  -0.052  0.00  0.00    +0.210 A 
ATOM      6  C   LIG    1       -3.888   7.420  -0.736  0.00  0.00    -0.030 A 
ATOM      7  C   LIG    1       -5.091   8.092  -0.835  0.00  0.00    +0.160 A 
ATOM      8  C   LIG    1       -6.226   7.570  -0.242  0.00  0.00    -0.680 A 
ATOM      9  C   LIG    1       -6.163   6.372   0.446  0.00  0.00    +0.160 A 
ATOM     10  C   LIG    1       -4.964   5.692   0.542  0.00  0.00    +0.010 A 
BRANCH   8  11
ATOM     11  S   LIG    1       -7.757   8.434  -0.363  0.00  0.00    +2.480 S 
ATOM     12  O   LIG    1       -8.743   7.419  -0.236  0.00  0.00    -0.890 OA
ATOM     13  O   LIG    1       -7.637   9.194  -1.558  0.00  0.00    -0.890 OA
BRANCH  11  14
ATOM     14  C   LIG    1       -7.776   9.526   1.086  0.00  0.00    -0.050 C 
ATOM     15  F   LIG    1       -6.681  10.394   1.030  0.00  0.00    -0.160 F 
ATOM     16  F   LIG    1       -7.702   8.755   2.251  0.00  0.00    -0.160 F 
ENDBRANCH  11  14
ENDBRANCH   8  11
ENDBRANCH   2   5
BRANCH   1  18
ATOM     17  C   LIG    1       -1.300   2.115   0.024  0.00  0.00    +0.140 C 
ATOM     18  C   LIG    1       -1.315   3.463   0.034  0.00  0.00    -0.070 C 
BRANCH  17  21
ATOM     19  C   LIG    1        1.212  -0.677   0.006  0.00  0.00    +0.170 A 
ATOM     20  C   LIG    1        0.003  -0.004   0.013  0.00  0.00    -0.020 A 
ATOM     21  C   LIG    1       -0.016   1.394   0.023  0.00  0.00    -0.000 A 
ATOM     22  C   LIG    1        1.187   2.104   0.025  0.00  0.00    -0.030 A 
ATOM     23  C   LIG    1        2.392   1.421   0.018  0.00  0.00    +0.170 A 
ATOM     24  C   LIG    1        2.405   0.033   0.008  0.00  0.00    -0.150 A 
BRANCH  19  26
ATOM     25  C   LIG    1        2.515  -2.666  -0.010  0.00  0.00    +0.260 C 
ATOM     26  O   LIG    1        1.232  -2.036  -0.004  0.00  0.00    -0.310 OA
ENDBRANCH  19  26
BRANCH  23  27
ATOM     27  O   LIG    1        3.563   2.111   0.019  0.00  0.00    -0.310 OA
ATOM     28  C   LIG    1        4.768   1.343   0.010  0.00  0.00    +0.250 C 
ENDBRANCH  23  27
ENDBRANCH  17  21
ENDBRANCH   1  18
TORSDOF 7
