REMARK  Name = ZINCrg000000nWWa.0
REMARK                            x       y       z     vdW  Elec       q    Type
REMARK                         _______ _______ _______ _____ _____    ______ ____
ROOT
ATOM      1  N   LIG    1        7.771  -2.712  -0.708  0.00  0.00    -0.750 N 
ATOM      2  H   LIG    1        7.653  -2.187   0.099  0.00  0.00    +0.390 HD
ATOM      3  C   LIG    1        6.736  -2.890  -1.554  0.00  0.00    +0.710 C 
ATOM      4  N   LIG    1        5.568  -2.256  -1.331  0.00  0.00    -0.630 N 
ATOM      5  C   LIG    1        4.468  -2.353  -2.302  0.00  0.00    +0.300 C 
ATOM      6  C   LIG    1        4.049  -0.935  -2.709  0.00  0.00    +0.280 C 
ATOM      7  N   LIG    1        3.851  -0.136  -1.492  0.00  0.00    -0.610 N 
ATOM      8  C   LIG    1        4.952  -0.035  -0.524  0.00  0.00    +0.270 C 
ATOM      9  C   LIG    1        2.682   0.498  -1.270  0.00  0.00    +0.510 C 
ATOM     10  O   LIG    1        1.782   0.412  -2.078  0.00  0.00    -0.510 OA
ATOM     11  C   LIG    1        5.370  -1.457  -0.114  0.00  0.00    +0.270 C 
ATOM     12  O   LIG    1        6.857  -3.622  -2.517  0.00  0.00    -0.580 OA
ENDROOT
BRANCH   9  13
ATOM     13  C   LIG    1        2.494   1.314  -0.017  0.00  0.00    +0.220 C 
ATOM     14  C   LIG    1        3.504   2.480   0.007  0.00  0.00    +0.040 C 
ATOM     15  C   LIG    1        2.674   3.647   0.605  0.00  0.00    +0.040 C 
ATOM     16  C   LIG    1        1.273   3.372  -0.001  0.00  0.00    +0.250 C 
ATOM     17  N   LIG    1        1.147   1.903  -0.002  0.00  0.00    -0.610 N 
ATOM     18  C   LIG    1       -0.012   1.214   0.005  0.00  0.00    +0.540 C 
ATOM     19  O   LIG    1        0.004   0.002  -0.002  0.00  0.00    -0.510 OA
BRANCH  18  20
ATOM     20  C   LIG    1       -1.326   1.951   0.014  0.00  0.00    +0.110 C 
BRANCH  20  21
ATOM     21  C   LIG    1       -2.459   0.957   0.013  0.00  0.00    -0.070 A 
ATOM     22  C   LIG    1       -2.987   0.513  -1.184  0.00  0.00    +0.020 A 
ATOM     23  C   LIG    1       -4.024  -0.403  -1.185  0.00  0.00    +0.000 A 
ATOM     24  C   LIG    1       -4.538  -0.866   0.011  0.00  0.00    +0.000 A 
ATOM     25  C   LIG    1       -4.014  -0.416   1.209  0.00  0.00    +0.000 A 
ATOM     26  C   LIG    1       -2.974   0.495   1.210  0.00  0.00    +0.010 A 
ENDBRANCH  20  21
ENDBRANCH  18  20
ENDBRANCH   9  13
BRANCH   1  28
ATOM     27  C   LIG    1       10.065  -2.959   0.102  0.00  0.00    +0.030 C 
ATOM     28  C   LIG    1        9.073  -3.311  -1.008  0.00  0.00    +0.270 C 
ENDBRANCH   1  28
TORSDOF 4
