REMARK  Name = ZINCrH000004mnvu.0
REMARK                            x       y       z     vdW  Elec       q    Type
REMARK                         _______ _______ _______ _____ _____    ______ ____
ROOT
ATOM      1  C   LIG    1       -1.976  -4.156  -0.001  0.00  0.00    +0.150 A 
ATOM      2  C   LIG    1       -0.685  -4.533  -0.016  0.00  0.00    -0.120 A 
ATOM      3  S   LIG    1        0.314  -3.081  -0.025  0.00  0.00    +0.190 S 
ATOM      4  C   LIG    1       -1.137  -2.083   0.002  0.00  0.00    +0.270 A 
ATOM      5  N   LIG    1       -2.185  -2.847   0.008  0.00  0.00    -0.480 NA
ENDROOT
BRANCH   1   9
ATOM      6  C   LIG    1       -5.168  -6.971   0.014  0.00  0.00    +0.180 A 
ATOM      7  C   LIG    1       -3.853  -7.413  -0.002  0.00  0.00    -0.120 A 
ATOM      8  C   LIG    1       -2.816  -6.502  -0.007  0.00  0.00    +0.120 A 
ATOM      9  C   LIG    1       -3.088  -5.137   0.004  0.00  0.00    -0.100 A 
ATOM     10  C   LIG    1       -4.415  -4.693   0.024  0.00  0.00    +0.200 A 
ATOM     11  C   LIG    1       -5.449  -5.613   0.025  0.00  0.00    -0.110 A 
BRANCH   6  13
ATOM     12  C   LIG    1       -5.827  -9.256   0.007  0.00  0.00    +0.250 C 
ATOM     13  O   LIG    1       -6.186  -7.873   0.018  0.00  0.00    -0.320 OA
ENDBRANCH   6  13
BRANCH  10  14
ATOM     14  O   LIG    1       -4.687  -3.362   0.040  0.00  0.00    -0.270 OA
ATOM     15  C   LIG    1       -6.064  -2.982   0.061  0.00  0.00    +0.240 C 
ENDBRANCH  10  14
ENDBRANCH   1   9
BRANCH   4  16
ATOM     16  N   LIG    1       -1.156  -0.694   0.009  0.00  0.00    -0.620 N 
ATOM     17  H   LIG    1       -2.002  -0.220   0.020  0.00  0.00    +0.420 HD
ATOM     18  C   LIG    1        0.002  -0.004   0.002  0.00  0.00    +0.510 C 
ATOM     19  O   LIG    1        1.060  -0.596  -0.011  0.00  0.00    -0.480 OA
BRANCH  18  20
ATOM     20  C   LIG    1       -0.018   1.503   0.010  0.00  0.00    +0.220 C 
BRANCH  20  21
ATOM     21  N   LIG    1        1.360   2.011  -0.000  0.00  0.00    -0.520 NA
ATOM     22  C   LIG    1        2.060   1.659   1.242  0.00  0.00    +0.170 C 
ATOM     23  C   LIG    1        3.529   2.075   1.136  0.00  0.00    -0.020 C 
ATOM     24  C   LIG    1        3.610   3.585   0.893  0.00  0.00    +0.020 C 
ATOM     25  C   LIG    1        2.833   3.931  -0.380  0.00  0.00    -0.010 C 
ATOM     26  C   LIG    1        2.858   5.445  -0.599  0.00  0.00    +0.020 C 
ATOM     27  C   LIG    1        4.189   1.334  -0.028  0.00  0.00    +0.020 C 
ATOM     28  C   LIG    1        1.384   3.461  -0.231  0.00  0.00    +0.180 C 
ENDBRANCH  20  21
ENDBRANCH  18  20
ENDBRANCH   4  16
TORSDOF 6
