REMARK  Name = ZINCrD0000072lvN.0
REMARK                            x       y       z     vdW  Elec       q    Type
REMARK                         _______ _______ _______ _____ _____    ______ ____
ROOT
ATOM      1  C   LIG    1       -3.578  -1.079   0.551  0.00  0.00    +0.220 C 
ENDROOT
BRANCH   1   2
ATOM      2  C   LIG    1       -2.311  -0.262   0.569  0.00  0.00    +0.520 C 
ATOM      3  N   LIG    1       -1.190  -0.745  -0.002  0.00  0.00    -0.560 N 
ATOM      4  C   LIG    1       -1.176  -2.066  -0.648  0.00  0.00    +0.330 C 
ATOM      5  C   LIG    1        0.099  -2.780  -0.278  0.00  0.00    +0.510 C 
ATOM      6  N   LIG    1        1.222  -2.089  -0.005  0.00  0.00    -0.660 N 
ATOM      7  H   LIG    1        2.042  -2.566   0.198  0.00  0.00    +0.420 HD
ATOM      8  C   LIG    1        1.218  -0.690  -0.009  0.00  0.00    +0.130 A 
ATOM      9  C   LIG    1        2.407   0.022  -0.018  0.00  0.00    +0.000 A 
ATOM     10  C   LIG    1        2.381   1.405  -0.013  0.00  0.00    +0.030 A 
ATOM     11  C   LIG    1        1.176   2.081   0.002  0.00  0.00    +0.010 A 
ATOM     12  C   LIG    1       -0.017   1.379   0.010  0.00  0.00    +0.060 A 
ATOM     13  O   LIG    1        0.114  -3.992  -0.227  0.00  0.00    -0.510 OA
ATOM     14  C   LIG    1        0.002  -0.004   0.002  0.00  0.00    +0.110 A 
ATOM     15  O   LIG    1       -2.301   0.830   1.097  0.00  0.00    -0.490 OA
ENDBRANCH   1   2
BRANCH   1  21
ATOM     16  C   LIG    1       -5.949  -0.988   1.030  0.00  0.00    +0.240 C 
ATOM     17  C   LIG    1       -7.055  -0.114   1.627  0.00  0.00    +0.040 C 
ATOM     18  C   LIG    1       -6.790   0.087   3.121  0.00  0.00    +0.010 C 
ATOM     19  C   LIG    1       -5.408   0.721   3.306  0.00  0.00    +0.030 C 
ATOM     20  C   LIG    1       -4.350  -0.176   2.660  0.00  0.00    +0.180 C 
ATOM     21  N   LIG    1       -4.648  -0.337   1.231  0.00  0.00    -0.510 NA
BRANCH  16  25
ATOM     22  C   LIG    1       -6.256  -0.782  -2.603  0.00  0.00    -0.010 A 
ATOM     23  C   LIG    1       -6.790  -2.002  -2.412  0.00  0.00    -0.060 A 
ATOM     24  C   LIG    1       -6.751  -2.253  -1.021  0.00  0.00    -0.050 A 
ATOM     25  C   LIG    1       -6.196  -1.172  -0.445  0.00  0.00    -0.010 A 
ATOM     26  O   LIG    1       -5.903  -0.281  -1.407  0.00  0.00    -0.160 OA
BRANCH  22  28
ATOM     27  C   LIG    1       -7.338   0.737  -4.238  0.00  0.00    +0.040 C 
ATOM     28  C   LIG    1       -6.088  -0.092  -3.932  0.00  0.00    +0.130 C 
ENDBRANCH  22  28
ENDBRANCH  16  25
ENDBRANCH   1  21
TORSDOF 4
