REMARK  Name = ZINCvU00000007cK.0
REMARK                            x       y       z     vdW  Elec       q    Type
REMARK                         _______ _______ _______ _____ _____    ______ ____
ROOT
ATOM      1  C   LIG    1       -4.981   1.577  -0.890  0.00  0.00    +0.130 C 
ATOM      2  C   LIG    1       -3.595   2.153  -0.754  0.00  0.00    -0.270 A 
ATOM      3  C   LIG    1       -3.378   3.476  -0.985  0.00  0.00    +0.200 A 
ATOM      4  O   LIG    1       -2.163   4.037  -0.878  0.00  0.00    -0.200 OA
ATOM      5  C   LIG    1       -1.070   3.329  -0.533  0.00  0.00    +0.200 A 
ATOM      6  C   LIG    1        0.185   3.946  -0.432  0.00  0.00    -0.150 A 
ATOM      7  C   LIG    1        1.299   3.188  -0.073  0.00  0.00    +0.120 A 
ATOM      8  C   LIG    1        1.174   1.834   0.180  0.00  0.00    +0.000 A 
ATOM      9  C   LIG    1       -0.055   1.214   0.083  0.00  0.00    +0.150 A 
ATOM     10  C   LIG    1       -1.180   1.954  -0.278  0.00  0.00    -0.230 A 
ATOM     11  C   LIG    1       -2.511   1.323  -0.386  0.00  0.00    +0.430 A 
ATOM     12  O   LIG    1       -2.668   0.132  -0.171  0.00  0.00    -0.460 OA
ENDROOT
BRANCH   3  13
ATOM     13  C   LIG    1       -4.521   4.327  -1.369  0.00  0.00    -0.070 A 
ATOM     14  C   LIG    1       -5.305   3.992  -2.476  0.00  0.00    +0.050 A 
ATOM     15  C   LIG    1       -6.375   4.789  -2.825  0.00  0.00    +0.010 A 
ATOM     16  C   LIG    1       -6.666   5.924  -2.089  0.00  0.00    +0.040 A 
ATOM     17  C   LIG    1       -5.891   6.265  -0.995  0.00  0.00    +0.010 A 
ATOM     18  C   LIG    1       -4.821   5.475  -0.631  0.00  0.00    +0.050 A 
ENDBRANCH   3  13
BRANCH   6  19
ATOM     19  C   LIG    1        0.326   5.390  -0.702  0.00  0.00    +0.560 C 
ATOM     20  N   LIG    1        0.931   6.188   0.200  0.00  0.00    -0.520 N 
ATOM     21  C   LIG    1        1.549   5.608   1.394  0.00  0.00    +0.330 C 
ATOM     22  O   LIG    1       -0.103   5.859  -1.738  0.00  0.00    -0.440 OA
BRANCH  20  23
ATOM     23  C   LIG    1        0.967   7.557  -0.003  0.00  0.00    +0.340 A 
ATOM     24  N   LIG    1        0.460   8.164  -1.019  0.00  0.00    -0.470 NA
ATOM     25  C   LIG    1        0.572   9.506  -1.073  0.00  0.00    +0.110 A 
ATOM     26  C   LIG    1        0.103  10.392  -2.066  0.00  0.00    +0.070 A 
ATOM     27  C   LIG    1        0.320  11.742  -1.952  0.00  0.00    +0.040 A 
ATOM     28  C   LIG    1        1.002  12.257  -0.859  0.00  0.00    +0.030 A 
ATOM     29  C   LIG    1        1.469  11.412   0.122  0.00  0.00    +0.060 A 
ATOM     30  C   LIG    1        1.258  10.039   0.023  0.00  0.00    -0.180 A 
ATOM     31  S   LIG    1        1.720   8.713   1.088  0.00  0.00    +0.070 S 
ENDBRANCH  20  23
ENDBRANCH   6  19
TORSDOF 3
