REMARK  Name = ZINCvU0000000GIf.0
REMARK                            x       y       z     vdW  Elec       q    Type
REMARK                         _______ _______ _______ _____ _____    ______ ____
ROOT
ATOM      1  N   LIG    1        1.432  -7.103  -0.059  0.00  0.00    -0.720 N 
ATOM      2  H   LIG    1        1.353  -7.009   0.903  0.00  0.00    +0.400 HD
ATOM      3  C   LIG    1        1.227  -6.038  -0.860  0.00  0.00    +0.540 C 
ATOM      4  O   LIG    1        1.326  -6.156  -2.063  0.00  0.00    -0.530 OA
ENDROOT
BRANCH   1   6
ATOM      5  C   LIG    1        3.284  -8.474  -0.878  0.00  0.00    +0.020 C 
ATOM      6  C   LIG    1        1.774  -8.403  -0.642  0.00  0.00    +0.240 C 
BRANCH   6   7
ATOM      7  C   LIG    1        1.355  -9.518   0.317  0.00  0.00    -0.060 C 
ATOM      8  C   LIG    1       -0.155  -9.447   0.553  0.00  0.00    +0.020 C 
ATOM      9  C   LIG    1       -0.575 -10.562   1.512  0.00  0.00    -0.020 C 
ATOM     10  C   LIG    1        0.158 -10.392   2.844  0.00  0.00    +0.010 C 
ATOM     11  C   LIG    1        1.668 -10.464   2.608  0.00  0.00    -0.020 C 
ATOM     12  C   LIG    1        2.025 -11.821   1.999  0.00  0.00    +0.010 C 
ATOM     13  C   LIG    1        1.292 -11.991   0.667  0.00  0.00    -0.020 C 
ATOM     14  C   LIG    1       -0.218 -11.920   0.903  0.00  0.00    +0.010 C 
ATOM     15  C   LIG    1        2.088  -9.348   1.649  0.00  0.00    +0.020 C 
ATOM     16  C   LIG    1        1.712 -10.876  -0.292  0.00  0.00    +0.040 C 
ENDBRANCH   6   7
ENDBRANCH   1   6
BRANCH   3  17
ATOM     17  C   LIG    1        0.875  -4.701  -0.260  0.00  0.00    +0.070 C 
BRANCH  17  18
ATOM     18  S   LIG    1        0.664  -3.483  -1.582  0.00  0.00    +0.090 S 
BRANCH  18  19
ATOM     19  C   LIG    1        0.271  -2.058  -0.625  0.00  0.00    +0.140 A 
ATOM     20  N   LIG    1        0.179  -1.996   0.683  0.00  0.00    -0.290 NA
ATOM     21  N   LIG    1       -0.125  -0.801   1.044  0.00  0.00    -0.270 NA
ATOM     22  C   LIG    1       -0.245  -0.035  -0.003  0.00  0.00    +0.200 A 
ATOM     23  N   LIG    1       -0.003  -0.808  -1.104  0.00  0.00    -0.430 N 
BRANCH  23  24
ATOM     24  C   LIG    1       -0.028  -0.385  -2.506  0.00  0.00    +0.200 C 
ATOM     25  C   LIG    1       -0.116  -1.478  -3.573  0.00  0.00    +0.070 C 
ATOM     26  C   LIG    1        1.194  -0.713  -3.365  0.00  0.00    +0.060 C 
ENDBRANCH  23  24
BRANCH  22  27
ATOM     27  C   LIG    1       -0.594   1.431  -0.001  0.00  0.00    +0.250 C 
BRANCH  27  28
ATOM     28  C   LIG    1        0.670   2.248   0.080  0.00  0.00    -0.190 A 
ATOM     29  C   LIG    1        1.378   2.676  -0.966  0.00  0.00    +0.010 A 
ATOM     30  C   LIG    1        2.504   3.414  -0.646  0.00  0.00    +0.000 A 
ATOM     31  C   LIG    1        2.716   3.578   0.660  0.00  0.00    -0.040 A 
ATOM     32  S   LIG    1        1.442   2.776   1.570  0.00  0.00    +0.130 S 
ENDBRANCH  27  28
ENDBRANCH  22  27
ENDBRANCH  18  19
ENDBRANCH  17  18
ENDBRANCH   3  17
TORSDOF 8
