REMARK  Name = ZINCvU00000005i9.0
REMARK                            x       y       z     vdW  Elec       q    Type
REMARK                         _______ _______ _______ _____ _____    ______ ____
ROOT
ATOM      1  N   LIG    1       -3.108   8.088   0.229  0.00  0.00    -0.700 N 
ATOM      2  H   LIG    1       -3.861   7.551   0.520  0.00  0.00    +0.410 HD
ATOM      3  C   LIG    1       -1.957   7.492  -0.141  0.00  0.00    +0.550 C 
ATOM      4  O   LIG    1       -1.016   8.163  -0.505  0.00  0.00    -0.510 OA
ENDROOT
BRANCH   1   5
ATOM      5  C   LIG    1       -3.220   9.549   0.191  0.00  0.00    +0.400 C 
BRANCH   5   6
ATOM      6  C   LIG    1       -4.669   9.937   0.039  0.00  0.00    -0.120 A 
ATOM      7  C   LIG    1       -5.663   9.077   0.464  0.00  0.00    +0.060 A 
ATOM      8  C   LIG    1       -6.992   9.432   0.324  0.00  0.00    +0.020 A 
ATOM      9  C   LIG    1       -7.327  10.649  -0.241  0.00  0.00    +0.060 A 
ATOM     10  C   LIG    1       -6.334  11.511  -0.665  0.00  0.00    -0.010 A 
ATOM     11  C   LIG    1       -5.003  11.159  -0.521  0.00  0.00    +0.110 A 
ATOM     12  F   LIG    1       -4.032  12.003  -0.931  0.00  0.00    -0.140 F 
ENDBRANCH   5   6
BRANCH   5  18
ATOM     13  C   LIG    1       -1.313  11.977   0.452  0.00  0.00    +0.330 C 
ATOM     14  N   LIG    1       -1.846  11.188   1.566  0.00  0.00    -0.440 N 
ATOM     15  C   LIG    1       -1.596  11.390   2.896  0.00  0.00    +0.130 A 
ATOM     16  C   LIG    1       -2.276  10.442   3.569  0.00  0.00    +0.140 A 
ATOM     17  N   LIG    1       -2.927   9.684   2.673  0.00  0.00    -0.470 NA
ATOM     18  C   LIG    1       -2.677  10.128   1.472  0.00  0.00    +0.190 A 
ENDBRANCH   5  18
ENDBRANCH   1   5
BRANCH   3  19
ATOM     19  C   LIG    1       -1.841   5.989  -0.102  0.00  0.00    +0.050 C 
BRANCH  19  20
ATOM     20  C   LIG    1       -2.385   5.410  -1.383  0.00  0.00    -0.090 A 
ATOM     21  C   LIG    1       -1.798   5.734  -2.591  0.00  0.00    +0.040 A 
ATOM     22  C   LIG    1       -2.295   5.200  -3.766  0.00  0.00    +0.010 A 
ATOM     23  C   LIG    1       -3.383   4.348  -3.732  0.00  0.00    +0.010 A 
ATOM     24  C   LIG    1       -3.973   4.028  -2.523  0.00  0.00    +0.000 A 
ATOM     25  C   LIG    1       -3.474   4.559  -1.349  0.00  0.00    +0.020 A 
ENDBRANCH  19  20
BRANCH  19  26
ATOM     26  S   LIG    1       -0.098   5.522   0.081  0.00  0.00    -0.060 S 
BRANCH  26  27
ATOM     27  C   LIG    1       -0.179   3.779   0.328  0.00  0.00    -0.130 A 
ATOM     28  C   LIG    1       -0.017   2.915  -0.748  0.00  0.00    +0.070 A 
ATOM     29  C   LIG    1       -0.081   1.550  -0.551  0.00  0.00    +0.000 A 
ATOM     30  C   LIG    1       -0.305   1.042   0.716  0.00  0.00    +0.040 A 
ATOM     31  C   LIG    1       -0.472   1.899   1.788  0.00  0.00    +0.000 A 
ATOM     32  C   LIG    1       -0.404   3.266   1.599  0.00  0.00    +0.060 A 
ENDBRANCH  26  27
ENDBRANCH  19  26
ENDBRANCH   3  19
TORSDOF 7
