REMARK  Name = ZINCrD0000075tpz.0
REMARK                            x       y       z     vdW  Elec       q    Type
REMARK                         _______ _______ _______ _____ _____    ______ ____
ROOT
ATOM      1  O   LIG    1        5.316  -1.947  -3.707  0.00  0.00    -0.520 OA
ATOM      2  C   LIG    1        5.901  -2.167  -2.667  0.00  0.00    +0.540 C 
ATOM      3  N   LIG    1        5.373  -1.758  -1.497  0.00  0.00    -0.720 N 
ATOM      4  H   LIG    1        5.840  -1.934  -0.666  0.00  0.00    +0.410 HD
ENDROOT
BRANCH   3   5
ATOM      5  C   LIG    1        4.092  -1.047  -1.481  0.00  0.00    +0.280 C 
BRANCH   5   6
ATOM      6  C   LIG    1        3.721  -0.698  -0.038  0.00  0.00    +0.090 C 
BRANCH   6   7
ATOM      7  C   LIG    1        2.403   0.034  -0.021  0.00  0.00    -0.100 A 
ATOM      8  C   LIG    1        2.379   1.415  -0.013  0.00  0.00    +0.050 A 
ATOM      9  C   LIG    1        1.170   2.086   0.002  0.00  0.00    -0.010 A 
ATOM     10  C   LIG    1       -0.017   1.377   0.010  0.00  0.00    +0.050 A 
ATOM     11  C   LIG    1        0.002  -0.004   0.002  0.00  0.00    -0.060 A 
ATOM     12  C   LIG    1        1.213  -0.680  -0.013  0.00  0.00    +0.110 A 
BRANCH  12  13
ATOM     13  O   LIG    1        1.234  -2.039  -0.020  0.00  0.00    -0.320 OA
BRANCH  13  14
ATOM     14  C   LIG    1       -0.029  -2.707  -0.011  0.00  0.00    +0.590 C 
ATOM     15  F   LIG    1       -0.760  -2.337  -1.145  0.00  0.00    -0.200 F 
ATOM     16  F   LIG    1       -0.738  -2.348   1.140  0.00  0.00    -0.200 F 
ENDBRANCH  13  14
ENDBRANCH  12  13
ENDBRANCH   6   7
ENDBRANCH   5   6
ENDBRANCH   3   5
BRANCH   2  17
ATOM     17  C   LIG    1        7.219  -2.898  -2.685  0.00  0.00    +0.090 C 
BRANCH  17  18
ATOM     18  S   LIG    1        7.657  -3.311  -4.391  0.00  0.00    +0.160 S 
BRANCH  18  19
ATOM     19  C   LIG    1        9.192  -4.134  -4.122  0.00  0.00    +0.120 A 
ATOM     20  N   LIG    1        9.773  -4.333  -2.962  0.00  0.00    -0.280 NA
ATOM     21  N   LIG    1       10.878  -4.968  -3.139  0.00  0.00    -0.240 NA
ATOM     22  C   LIG    1       11.051  -5.192  -4.421  0.00  0.00    +0.250 A 
ATOM     23  O   LIG    1        9.987  -4.668  -5.070  0.00  0.00    -0.190 OA
BRANCH  22  24
ATOM     24  C   LIG    1       12.192  -5.885  -5.038  0.00  0.00    +0.030 A 
ATOM     25  C   LIG    1       13.262  -6.411  -4.377  0.00  0.00    +0.060 A 
ATOM     26  C   LIG    1       14.104  -6.975  -5.353  0.00  0.00    -0.050 A 
ATOM     27  C   LIG    1       13.517  -6.770  -6.549  0.00  0.00    +0.230 A 
ATOM     28  O   LIG    1       12.360  -6.116  -6.355  0.00  0.00    -0.160 OA
ENDBRANCH  22  24
ENDBRANCH  18  19
ENDBRANCH  17  18
ENDBRANCH   2  17
TORSDOF 9
