REMARK  Name = ZINCqH0000004ZwB.0
REMARK                            x       y       z     vdW  Elec       q    Type
REMARK                         _______ _______ _______ _____ _____    ______ ____
ROOT
ATOM      1  C   LIG    1        1.236  -0.928   0.566  0.00  0.00    +0.310 C 
ATOM      2  N   LIG    1        2.462  -0.189   0.255  0.00  0.00    -0.540 N 
ATOM      3  C   LIG    1        2.399   1.123  -0.048  0.00  0.00    +0.570 C 
ATOM      4  O   LIG    1        3.390   1.703  -0.448  0.00  0.00    -0.500 OA
ENDROOT
BRANCH   3   5
ATOM      5  C   LIG    1        1.128   1.857   0.107  0.00  0.00    -0.160 A 
ATOM      6  C   LIG    1        1.134   3.146   0.556  0.00  0.00    +0.340 A 
ATOM      7  N   LIG    1       -0.031   3.829   0.702  0.00  0.00    -0.400 N 
ATOM      8  C   LIG    1       -0.334   5.090   1.117  0.00  0.00    +0.360 A 
ATOM      9  N   LIG    1       -1.633   5.221   1.059  0.00  0.00    -0.250 NA
ATOM     10  N   LIG    1       -2.174   4.132   0.638  0.00  0.00    -0.280 NA
ATOM     11  C   LIG    1       -1.234   3.234   0.400  0.00  0.00    +0.200 A 
ATOM     12  C   LIG    1       -1.263   1.904  -0.070  0.00  0.00    +0.100 A 
ATOM     13  C   LIG    1       -0.100   1.222  -0.210  0.00  0.00    +0.070 A 
ENDBRANCH   3   5
BRANCH   2  14
ATOM     14  C   LIG    1        3.698  -0.845   0.271  0.00  0.00    +0.150 A 
ATOM     15  C   LIG    1        4.866  -0.134   0.028  0.00  0.00    +0.040 A 
ATOM     16  C   LIG    1        6.085  -0.781   0.050  0.00  0.00    +0.040 A 
ATOM     17  C   LIG    1        6.143  -2.144   0.304  0.00  0.00    +0.060 A 
ATOM     18  C   LIG    1        4.977  -2.856   0.541  0.00  0.00    +0.030 A 
ATOM     19  C   LIG    1        3.757  -2.209   0.525  0.00  0.00    +0.000 A 
BRANCH  17  20
ATOM     20  O   LIG    1        7.344  -2.781   0.320  0.00  0.00    -0.260 OA
BRANCH  20  21
ATOM     21  C   LIG    1        7.677  -3.542  -0.755  0.00  0.00    +0.120 A 
ATOM     22  C   LIG    1        6.855  -3.564  -1.873  0.00  0.00    -0.060 A 
ATOM     23  C   LIG    1        7.198  -4.335  -2.967  0.00  0.00    +0.050 A 
ATOM     24  C   LIG    1        8.355  -5.092  -2.944  0.00  0.00    -0.020 A 
ATOM     25  C   LIG    1        9.173  -5.076  -1.830  0.00  0.00    +0.050 A 
ATOM     26  C   LIG    1        8.837  -4.304  -0.736  0.00  0.00    -0.020 A 
ENDBRANCH  20  21
ENDBRANCH  17  20
ENDBRANCH   2  14
TORSDOF 4
