REMARK  Name = ZINCrH000004o09M.0
REMARK                            x       y       z     vdW  Elec       q    Type
REMARK                         _______ _______ _______ _____ _____    ______ ____
ROOT
ATOM      1  C   LIG    1        2.673   4.243   0.235  0.00  0.00    +0.510 C 
ATOM      2  N   LIG    1        2.665   5.557  -0.063  0.00  0.00    -0.510 N 
ATOM      3  O   LIG    1        3.710   3.699   0.549  0.00  0.00    -0.480 OA
ENDROOT
BRANCH   2   4
ATOM      4  C   LIG    1        1.435   6.191  -0.543  0.00  0.00    +0.240 C 
ATOM      5  C   LIG    1        1.675   6.780  -1.935  0.00  0.00    +0.020 C 
ATOM      6  C   LIG    1        0.390   7.442  -2.437  0.00  0.00    +0.020 C 
ATOM      7  C   LIG    1       -0.018   8.560  -1.474  0.00  0.00    +0.010 C 
ATOM      8  C   LIG    1       -0.257   7.971  -0.083  0.00  0.00    +0.020 C 
ATOM      9  C   LIG    1        1.027   7.309   0.419  0.00  0.00    +0.020 C 
ENDBRANCH   2   4
BRANCH   2  10
ATOM     10  C   LIG    1        3.823   6.311   0.086  0.00  0.00    +0.250 A 
ATOM     11  N   LIG    1        3.899   7.595  -0.074  0.00  0.00    -0.510 NA
ATOM     12  C   LIG    1        5.081   8.151   0.112  0.00  0.00    +0.240 A 
ATOM     13  C   LIG    1        6.053   7.295   0.435  0.00  0.00    -0.140 A 
ATOM     14  S   LIG    1        5.356   5.678   0.500  0.00  0.00    +0.230 S 
ENDBRANCH   2  10
BRANCH   1  16
ATOM     15  C   LIG    1        0.616   3.637   1.480  0.00  0.00    +0.080 C 
ATOM     16  C   LIG    1        1.394   3.449   0.176  0.00  0.00    +0.150 C 
BRANCH  16  17
ATOM     17  N   LIG    1        1.708   2.025  -0.005  0.00  0.00    -0.520 NA
ATOM     18  C   LIG    1        0.500   1.200   0.113  0.00  0.00    +0.190 C 
ATOM     19  C   LIG    1        0.885  -0.281   0.064  0.00  0.00    +0.050 C 
ATOM     20  C   LIG    1        1.599  -0.574  -1.258  0.00  0.00    +0.230 C 
ATOM     21  C   LIG    1        2.827   0.333  -1.378  0.00  0.00    +0.050 C 
ATOM     22  C   LIG    1        2.386   1.795  -1.288  0.00  0.00    +0.190 C 
BRANCH  20  23
ATOM     23  N   LIG    1        2.022  -1.977  -1.285  0.00  0.00    -0.450 N 
ATOM     24  C   LIG    1        1.639  -2.923  -2.198  0.00  0.00    +0.110 A 
ATOM     25  C   LIG    1        2.258  -4.069  -1.854  0.00  0.00    +0.140 A 
ATOM     26  N   LIG    1        2.998  -3.829  -0.761  0.00  0.00    -0.500 NA
ATOM     27  C   LIG    1        2.866  -2.576  -0.418  0.00  0.00    +0.390 A 
ENDBRANCH  20  23
ENDBRANCH  16  17
ENDBRANCH   1  16
TORSDOF 5
