REMARK  Name = ZINCrD0000071Fsh.0
REMARK                            x       y       z     vdW  Elec       q    Type
REMARK                         _______ _______ _______ _____ _____    ______ ____
ROOT
ATOM      1  C   LIG    1        2.542   5.543  -0.011  0.00  0.00    +0.560 C 
ATOM      2  N   LIG    1        3.731   6.170   0.086  0.00  0.00    -0.610 N 
ATOM      3  C   LIG    1        4.984   5.403   0.085  0.00  0.00    +0.280 C 
ATOM      4  C   LIG    1        5.901   5.967  -1.011  0.00  0.00    +0.030 C 
ATOM      5  C   LIG    1        6.084   7.470  -0.792  0.00  0.00    +0.010 C 
ATOM      6  C   LIG    1        4.728   8.171  -0.892  0.00  0.00    +0.060 C 
ATOM      7  C   LIG    1        3.798   7.633   0.201  0.00  0.00    +0.280 C 
ATOM      8  O   LIG    1        1.518   6.192  -0.104  0.00  0.00    -0.530 OA
ENDROOT
BRANCH   1  13
ATOM      9  C   LIG    1        3.342   1.948   0.745  0.00  0.00    +0.130 A 
ATOM     10  C   LIG    1        2.369   1.295   0.000  0.00  0.00    -0.060 A 
ATOM     11  C   LIG    1        1.452   2.022  -0.737  0.00  0.00    +0.050 A 
ATOM     12  C   LIG    1        1.505   3.400  -0.746  0.00  0.00    +0.040 A 
ATOM     13  C   LIG    1        2.483   4.066  -0.004  0.00  0.00    -0.090 A 
ATOM     14  C   LIG    1        3.404   3.332   0.743  0.00  0.00    +0.010 A 
BRANCH   9  15
ATOM     15  O   LIG    1        4.237   1.229   1.472  0.00  0.00    -0.310 OA
BRANCH  15  16
ATOM     16  C   LIG    1        4.115  -0.194   1.428  0.00  0.00    +0.180 C 
BRANCH  16  18
ATOM     17  C   LIG    1        5.070  -2.350   2.254  0.00  0.00    +0.040 C 
ATOM     18  C   LIG    1        5.201  -0.826   2.301  0.00  0.00    +0.020 C 
ENDBRANCH  16  18
ENDBRANCH  15  16
ENDBRANCH   9  15
ENDBRANCH   1  13
BRANCH   5  19
ATOM     19  C   LIG    1        7.013   8.021  -1.843  0.00  0.00    +0.520 C 
ATOM     20  N   LIG    1        8.271   7.550  -1.945  0.00  0.00    -0.670 N 
ATOM     21  H   LIG    1        8.557   6.808  -1.390  0.00  0.00    +0.410 HD
ATOM     22  O   LIG    1        6.627   8.889  -2.598  0.00  0.00    -0.510 OA
BRANCH  20  23
ATOM     23  C   LIG    1        9.162   8.129  -2.850  0.00  0.00    +0.190 A 
ATOM     24  C   LIG    1        8.718   8.618  -4.077  0.00  0.00    -0.030 A 
ATOM     25  C   LIG    1        9.630   9.188  -4.941  0.00  0.00    +0.280 A 
ATOM     26  N   LIG    1       10.908   9.263  -4.622  0.00  0.00    -0.500 NA
ATOM     27  C   LIG    1       11.368   8.807  -3.472  0.00  0.00    +0.280 A 
ATOM     28  C   LIG    1       10.520   8.228  -2.551  0.00  0.00    -0.060 A 
ENDBRANCH  20  23
ENDBRANCH   5  19
TORSDOF 6
