REMARK  Name = ZINCqH0000004RIh.0
REMARK                            x       y       z     vdW  Elec       q    Type
REMARK                         _______ _______ _______ _____ _____    ______ ____
ROOT
ATOM      1  N   LIG    1        1.160  -0.096  -0.147  0.00  0.00    -0.460 N 
ATOM      2  C   LIG    1       -0.160   0.196   0.059  0.00  0.00    +0.190 A 
ATOM      3  N   LIG    1       -0.245   1.477   0.277  0.00  0.00    -0.280 NA
ATOM      4  N   LIG    1        0.923   2.012   0.224  0.00  0.00    -0.290 NA
ATOM      5  C   LIG    1        1.823   1.092  -0.034  0.00  0.00    +0.140 A 
ENDROOT
BRANCH   1   7
ATOM      6  C   LIG    1        1.891  -1.588  -1.942  0.00  0.00    +0.060 C 
ATOM      7  C   LIG    1        1.742  -1.411  -0.429  0.00  0.00    +0.300 C 
ENDBRANCH   1   7
BRANCH   2   8
ATOM      8  C   LIG    1       -1.305  -0.784   0.037  0.00  0.00    +0.210 C 
BRANCH   8   9
ATOM      9  C   LIG    1       -1.603  -1.240   1.442  0.00  0.00    -0.090 A 
ATOM     10  C   LIG    1       -1.014  -2.389   1.936  0.00  0.00    +0.010 A 
ATOM     11  C   LIG    1       -1.284  -2.804   3.227  0.00  0.00    +0.000 A 
ATOM     12  C   LIG    1       -2.151  -2.076   4.020  0.00  0.00    +0.000 A 
ATOM     13  C   LIG    1       -2.745  -0.930   3.524  0.00  0.00    +0.000 A 
ATOM     14  C   LIG    1       -2.471  -0.512   2.235  0.00  0.00    +0.030 A 
ENDBRANCH   8   9
ENDBRANCH   2   8
BRANCH   5  15
ATOM     15  S   LIG    1        3.559   1.343  -0.202  0.00  0.00    +0.070 S 
BRANCH  15  16
ATOM     16  C   LIG    1        3.647   3.129   0.077  0.00  0.00    +0.020 C 
ATOM     17  C   LIG    1        3.221   3.443   1.513  0.00  0.00    +0.080 C 
BRANCH  16  18
ATOM     18  C   LIG    1        5.060   3.603  -0.143  0.00  0.00    +0.540 C 
ATOM     19  N   LIG    1        5.303   4.906  -0.390  0.00  0.00    -0.720 N 
ATOM     20  H   LIG    1        4.569   5.538  -0.427  0.00  0.00    +0.410 HD
ATOM     21  O   LIG    1        5.979   2.813  -0.097  0.00  0.00    -0.520 OA
BRANCH  19  22
ATOM     22  C   LIG    1        6.678   5.366  -0.604  0.00  0.00    +0.370 C 
BRANCH  22  23
ATOM     23  C   LIG    1        6.676   6.852  -0.859  0.00  0.00    -0.210 A 
ATOM     24  C   LIG    1        6.779   7.793   0.080  0.00  0.00    +0.030 A 
ATOM     25  C   LIG    1        6.754   9.094  -0.393  0.00  0.00    +0.000 A 
ATOM     26  C   LIG    1        6.630   9.209  -1.716  0.00  0.00    -0.030 A 
ATOM     27  S   LIG    1        6.544   7.608  -2.441  0.00  0.00    +0.120 S 
ENDBRANCH  22  23
ENDBRANCH  19  22
ENDBRANCH  16  18
ENDBRANCH  15  16
ENDBRANCH   5  15
TORSDOF 8
