REMARK  Name = ZINCqH0000005UrV.0
REMARK                            x       y       z     vdW  Elec       q    Type
REMARK                         _______ _______ _______ _____ _____    ______ ____
ROOT
ATOM      1  C   LIG    1      -10.867   4.383  -0.475  0.00  0.00    +0.030 A 
ATOM      2  C   LIG    1      -10.028   5.406  -0.160  0.00  0.00    +0.070 A 
ATOM      3  C   LIG    1       -8.704   4.911  -0.216  0.00  0.00    -0.120 A 
ATOM      4  C   LIG    1       -7.450   5.498   0.007  0.00  0.00    +0.080 A 
ATOM      5  C   LIG    1       -6.317   4.753  -0.120  0.00  0.00    +0.000 A 
ATOM      6  C   LIG    1       -6.391   3.403  -0.484  0.00  0.00    -0.010 A 
ATOM      7  C   LIG    1       -7.624   2.804  -0.709  0.00  0.00    +0.010 A 
ATOM      8  C   LIG    1       -8.788   3.551  -0.578  0.00  0.00    +0.120 A 
ATOM      9  N   LIG    1      -10.120   3.248  -0.731  0.00  0.00    -0.570 N 
ATOM     10  H   LIG    1      -10.478   2.381  -0.979  0.00  0.00    +0.430 HD
ENDROOT
BRANCH   6  11
ATOM     11  C   LIG    1       -5.148   2.608  -0.624  0.00  0.00    -0.050 A 
ATOM     12  C   LIG    1       -4.259   2.510   0.443  0.00  0.00    +0.090 A 
ATOM     13  C   LIG    1       -3.090   1.765   0.302  0.00  0.00    -0.020 A 
ATOM     14  C   LIG    1       -2.823   1.113  -0.903  0.00  0.00    +0.020 A 
ATOM     15  C   LIG    1       -3.712   1.210  -1.955  0.00  0.00    +0.010 A 
ATOM     16  C   LIG    1       -4.869   1.952  -1.823  0.00  0.00    -0.050 A 
ATOM     17  C   LIG    1       -5.834   2.052  -2.977  0.00  0.00    +0.090 C 
BRANCH  13  18
ATOM     18  C   LIG    1       -2.138   1.661   1.429  0.00  0.00    +0.220 A 
ATOM     19  N   LIG    1       -2.387   1.928   2.691  0.00  0.00    -0.280 NA
ATOM     20  N   LIG    1       -1.328   1.733   3.394  0.00  0.00    -0.290 NA
ATOM     21  C   LIG    1       -0.351   1.327   2.628  0.00  0.00    +0.380 A 
ATOM     22  N   LIG    1       -0.830   1.263   1.355  0.00  0.00    -0.480 N 
ATOM     23  C   LIG    1       -0.095   0.859   0.154  0.00  0.00    +0.350 C 
ENDBRANCH  13  18
ENDBRANCH   6  11
BRANCH   1  24
ATOM     24  C   LIG    1      -12.332   4.469  -0.534  0.00  0.00    +0.530 C 
ATOM     25  O   LIG    1      -12.888   5.522  -0.289  0.00  0.00    -0.490 OA
BRANCH  24  27
ATOM     26  C   LIG    1      -14.502   3.541  -0.897  0.00  0.00    +0.290 C 
ATOM     27  O   LIG    1      -13.059   3.381  -0.859  0.00  0.00    -0.360 OA
ENDBRANCH  24  27
ENDBRANCH   1  24
TORSDOF 4
