REMARK  Name = ZINCpk00000xI1R3.2
REMARK                            x       y       z     vdW  Elec       q    Type
REMARK                         _______ _______ _______ _____ _____    ______ ____
ROOT
ATOM      1  S   LIG    1       -2.483   2.749  -1.593  0.00  0.00    +2.700 S 
ATOM      2  O   LIG    1       -2.582   3.333  -2.885  0.00  0.00    -0.930 OA
ATOM      3  O   LIG    1       -2.758   3.462  -0.395  0.00  0.00    -0.970 OA
ENDROOT
BRANCH   1   4
ATOM      4  N   LIG    1       -0.935   2.180  -1.455  0.00  0.00    -0.990 NA
ATOM      5  C   LIG    1       -0.037   2.094  -2.622  0.00  0.00    +0.300 C 
ATOM      6  C   LIG    1        1.301   2.753  -2.274  0.00  0.00    +0.240 C 
ATOM      7  O   LIG    1        1.796   2.233  -1.034  0.00  0.00    -0.360 OA
ATOM      8  C   LIG    1        0.929   2.484   0.068  0.00  0.00    +0.150 C 
ATOM      9  C   LIG    1        1.527   2.009   1.389  0.00  0.00    +0.090 C 
ATOM     10  C   LIG    1        0.516   2.287   2.508  0.00  0.00    +0.270 C 
ATOM     11  N   LIG    1       -0.745   1.589   2.242  0.00  0.00    -0.370 N 
ATOM     12  C   LIG    1       -1.341   2.055   0.988  0.00  0.00    +0.270 C 
ATOM     13  C   LIG    1       -0.488   0.145   2.144  0.00  0.00    +0.320 C 
ATOM     14  H   LIG    1       -1.387   1.761   3.001  0.00  0.00    +0.440 HD
ATOM     15  C   LIG    1       -0.393   1.737  -0.165  0.00  0.00    +0.210 C 
ENDBRANCH   1   4
BRANCH   1  23
ATOM     16  C   LIG    1       -2.486   0.620  -3.738  0.00  0.00    +0.130 C 
ATOM     17  C   LIG    1       -3.481   0.430  -2.622  0.00  0.00    +0.070 A 
ATOM     18  C   LIG    1       -4.327  -0.682  -2.621  0.00  0.00    -0.140 A 
ATOM     19  C   LIG    1       -5.251  -0.847  -1.586  0.00  0.00    +0.140 A 
ATOM     20  C   LIG    1       -5.318   0.084  -0.570  0.00  0.00    -0.070 A 
ATOM     21  C   LIG    1       -4.472   1.181  -0.575  0.00  0.00    +0.100 A 
ATOM     22 CL   LIG    1       -6.464  -0.119   0.718  0.00  0.00    -0.070 Cl
ATOM     23  C   LIG    1       -3.555   1.350  -1.597  0.00  0.00    -0.700 A 
BRANCH  18  24
ATOM     24  C   LIG    1       -4.250  -1.673  -3.711  0.00  0.00    +0.520 C 
ATOM     25  O   LIG    1       -3.362  -1.593  -4.548  0.00  0.00    -0.660 OA
ATOM     26  O   LIG    1       -5.074  -2.574  -3.778  0.00  0.00    -0.670 OA
ENDBRANCH  18  24
ENDBRANCH   1  23
TORSDOF 3
