REMARK  Name = ZINCpk00000xI1R3.1
REMARK                            x       y       z     vdW  Elec       q    Type
REMARK                         _______ _______ _______ _____ _____    ______ ____
ROOT
ATOM      1  S   LIG    1       -2.911   4.402   0.228  0.00  0.00    +2.700 S 
ATOM      2  O   LIG    1       -2.739   5.810   0.144  0.00  0.00    -0.960 OA
ATOM      3  O   LIG    1       -3.565   3.762   1.315  0.00  0.00    -0.930 OA
ENDROOT
BRANCH   1   4
ATOM      4  N   LIG    1       -3.725   3.947  -1.141  0.00  0.00    -1.000 NA
ATOM      5  C   LIG    1       -4.672   2.817  -1.135  0.00  0.00    +0.290 C 
ATOM      6  C   LIG    1       -5.989   3.265  -1.775  0.00  0.00    +0.240 C 
ATOM      7  O   LIG    1       -5.734   3.892  -3.038  0.00  0.00    -0.360 OA
ATOM      8  C   LIG    1       -4.924   5.059  -2.932  0.00  0.00    +0.150 C 
ATOM      9  C   LIG    1       -4.751   5.761  -4.277  0.00  0.00    +0.090 C 
ATOM     10  C   LIG    1       -3.858   6.986  -4.069  0.00  0.00    +0.260 C 
ATOM     11  N   LIG    1       -2.552   6.573  -3.545  0.00  0.00    -0.380 N 
ATOM     12  C   LIG    1       -2.702   5.917  -2.237  0.00  0.00    +0.280 C 
ATOM     13  C   LIG    1       -1.694   7.756  -3.398  0.00  0.00    +0.340 C 
ATOM     14  H   LIG    1       -2.122   5.930  -4.193  0.00  0.00    +0.420 HD
ATOM     15  C   LIG    1       -3.541   4.655  -2.413  0.00  0.00    +0.210 C 
ENDBRANCH   1   4
BRANCH   1  23
ATOM     16  C   LIG    1       -0.589   5.241   1.969  0.00  0.00    +0.130 C 
ATOM     17  C   LIG    1       -0.301   4.148   0.973  0.00  0.00    +0.060 A 
ATOM     18  C   LIG    1        0.978   3.592   0.894  0.00  0.00    -0.130 A 
ATOM     19  C   LIG    1        1.235   2.574  -0.029  0.00  0.00    +0.130 A 
ATOM     20  C   LIG    1        0.226   2.129  -0.859  0.00  0.00    -0.070 A 
ATOM     21  C   LIG    1       -1.038   2.690  -0.778  0.00  0.00    +0.090 A 
ATOM     22 CL   LIG    1        0.542   0.866  -2.006  0.00  0.00    -0.070 Cl
ATOM     23  C   LIG    1       -1.299   3.697   0.134  0.00  0.00    -0.690 A 
BRANCH  18  24
ATOM     24  C   LIG    1        2.052   4.072   1.785  0.00  0.00    +0.520 C 
ATOM     25  O   LIG    1        1.860   5.042   2.505  0.00  0.00    -0.660 OA
ATOM     26  O   LIG    1        3.133   3.501   1.803  0.00  0.00    -0.670 OA
ENDBRANCH  18  24
ENDBRANCH   1  23
TORSDOF 3
