REMARK  Name = ZINCrD000000CHz8.0
REMARK                            x       y       z     vdW  Elec       q    Type
REMARK                         _______ _______ _______ _____ _____    ______ ____
ROOT
ATOM      1  O   LIG    1        3.257   4.421  -3.234  0.00  0.00    -0.510 OA
ATOM      2  C   LIG    1        4.037   5.203  -2.728  0.00  0.00    +0.590 C 
ATOM      3  N   LIG    1        3.755   5.758  -1.532  0.00  0.00    -0.590 N 
ATOM      4  C   LIG    1        4.609   6.716  -0.807  0.00  0.00    +0.280 C 
ATOM      5  C   LIG    1        3.637   7.493   0.117  0.00  0.00    +0.030 C 
ATOM      6  C   LIG    1        2.643   6.375   0.537  0.00  0.00    +0.050 C 
ATOM      7  C   LIG    1        2.546   5.506  -0.735  0.00  0.00    +0.270 C 
ENDROOT
BRANCH   7   8
ATOM      8  C   LIG    1        2.476   4.049  -0.356  0.00  0.00    -0.080 A 
ATOM      9  C   LIG    1        3.630   3.368  -0.019  0.00  0.00    +0.030 A 
ATOM     10  C   LIG    1        3.570   2.031   0.328  0.00  0.00    +0.020 A 
ATOM     11  C   LIG    1        2.351   1.370   0.339  0.00  0.00    +0.050 A 
ATOM     12  O   LIG    1        2.308   0.053   0.679  0.00  0.00    -0.310 OA
ATOM     13  C   LIG    1        1.028  -0.476   1.041  0.00  0.00    +0.220 C 
ATOM     14  C   LIG    1        0.002  -0.004   0.002  0.00  0.00    +0.220 C 
ATOM     15  O   LIG    1       -0.017   1.427   0.010  0.00  0.00    -0.310 OA
ATOM     16  C   LIG    1        1.190   2.056   0.002  0.00  0.00    +0.050 A 
ATOM     17  C   LIG    1        1.258   3.396  -0.346  0.00  0.00    +0.030 A 
ENDBRANCH   7   8
BRANCH   2  18
ATOM     18  C   LIG    1        5.299   5.548  -3.426  0.00  0.00    +0.060 A 
ATOM     19  N   LIG    1        6.141   6.403  -2.873  0.00  0.00    -0.390 NA
ATOM     20  C   LIG    1        7.278   6.708  -3.499  0.00  0.00    +0.070 A 
ATOM     21  C   LIG    1        8.198   7.612  -2.934  0.00  0.00    +0.060 A 
ATOM     22  C   LIG    1        9.347   7.908  -3.599  0.00  0.00    +0.040 A 
ATOM     23  C   LIG    1        9.630   7.331  -4.836  0.00  0.00    +0.050 A 
ATOM     24  C   LIG    1        8.765   6.453  -5.414  0.00  0.00    +0.050 A 
ATOM     25  C   LIG    1        7.567   6.120  -4.759  0.00  0.00    +0.090 A 
ATOM     26  N   LIG    1        6.699   5.260  -5.305  0.00  0.00    -0.420 NA
ATOM     27  C   LIG    1        5.587   4.966  -4.673  0.00  0.00    +0.320 A 
ENDBRANCH   2  18
TORSDOF 2
