REMARK  Name = ZINCrD00000hQ5NM.0
REMARK                            x       y       z     vdW  Elec       q    Type
REMARK                         _______ _______ _______ _____ _____    ______ ____
ROOT
ATOM      1  C   LIG    1        1.492   1.775  -0.062  0.00  0.00    +0.220 C 
ATOM      2  C   LIG    1        1.393   0.249   0.028  0.00  0.00    +0.200 C 
ATOM      3  N   LIG    1        0.638  -0.256  -1.128  0.00  0.00    -0.470 N 
ATOM      4  C   LIG    1        1.290   0.134  -2.387  0.00  0.00    +0.130 C 
ATOM      5  C   LIG    1        1.390   1.660  -2.452  0.00  0.00    +0.240 C 
ATOM      6  C   LIG    1        0.462  -0.375  -3.569  0.00  0.00    +0.050 C 
ATOM      7  O   LIG    1        2.099   2.136  -1.305  0.00  0.00    -0.370 OA
ENDROOT
BRANCH   1  14
ATOM      8  C   LIG    1        0.281   2.282   2.512  0.00  0.00    +0.090 C 
ATOM      9  C   LIG    1        1.752   2.535   2.309  0.00  0.00    -0.070 A 
ATOM     10  C   LIG    1        2.523   3.009   3.354  0.00  0.00    +0.000 A 
ATOM     11  C   LIG    1        3.873   3.241   3.167  0.00  0.00    +0.010 A 
ATOM     12  C   LIG    1        4.452   2.998   1.937  0.00  0.00    -0.010 A 
ATOM     13  C   LIG    1        3.683   2.518   0.893  0.00  0.00    +0.040 A 
ATOM     14  C   LIG    1        2.332   2.292   1.077  0.00  0.00    -0.090 A 
ENDBRANCH   1  14
BRANCH   3  15
ATOM     15  C   LIG    1        0.480  -1.629  -1.056  0.00  0.00    +0.530 A 
ATOM     16  N   LIG    1        1.555  -2.404  -1.064  0.00  0.00    -0.580 NA
ATOM     17  C   LIG    1        1.444  -3.723  -0.996  0.00  0.00    +0.360 A 
ATOM     18  C   LIG    1        0.189  -4.292  -0.915  0.00  0.00    -0.160 A 
ATOM     19  C   LIG    1       -0.925  -3.450  -0.908  0.00  0.00    +0.450 A 
ATOM     20  N   LIG    1       -0.741  -2.135  -0.974  0.00  0.00    -0.550 NA
BRANCH  19  21
ATOM     21  N   LIG    1       -2.204  -3.977  -0.828  0.00  0.00    -0.700 N 
ATOM     22  H   LIG    1       -2.973  -3.386  -0.824  0.00  0.00    +0.410 HD
BRANCH  21  23
ATOM     23  C   LIG    1       -2.395  -5.428  -0.750  0.00  0.00    +0.210 C 
ATOM     24  C   LIG    1       -3.787  -5.790  -1.277  0.00  0.00    +0.020 C 
ATOM     25  C   LIG    1       -4.004  -7.298  -1.119  0.00  0.00    +0.010 C 
ATOM     26  C   LIG    1       -3.822  -7.680   0.353  0.00  0.00    +0.200 C 
ATOM     27  O   LIG    1       -2.519  -7.287   0.788  0.00  0.00    -0.370 OA
ATOM     28  C   LIG    1       -2.275  -5.881   0.707  0.00  0.00    +0.210 C 
ENDBRANCH  21  23
ENDBRANCH  19  21
ENDBRANCH   3  15
TORSDOF 4
