REMARK  Name = ZINCpe000000ZyaX.0
REMARK                            x       y       z     vdW  Elec       q    Type
REMARK                         _______ _______ _______ _____ _____    ______ ____
ROOT
ATOM      1  C   LIG    1       -5.115  -1.771   1.644  0.00  0.00    +0.530 C 
ATOM      2  N   LIG    1       -4.098  -0.923   1.392  0.00  0.00    -0.720 N 
ATOM      3  H   LIG    1       -3.638  -0.486   2.126  0.00  0.00    +0.400 HD
ATOM      4  O   LIG    1       -5.691  -2.317   0.726  0.00  0.00    -0.520 OA
ENDROOT
BRANCH   1   5
ATOM      5  C   LIG    1       -5.538  -2.041   3.065  0.00  0.00    -0.090 C 
ATOM      6  C   LIG    1       -5.365  -0.831   3.999  0.00  0.00    +0.030 C 
ATOM      7  C   LIG    1       -4.875  -1.825   5.065  0.00  0.00    +0.030 C 
ATOM      8  C   LIG    1       -4.459  -2.744   3.905  0.00  0.00    +0.050 C 
BRANCH   5  13
ATOM      9  O   LIG    1      -10.443  -4.360   2.284  0.00  0.00    -0.560 OA
ATOM     10  C   LIG    1       -9.343  -3.874   2.441  0.00  0.00    +0.520 C 
ATOM     11  C   LIG    1       -8.201  -4.790   2.774  0.00  0.00    +0.070 C 
ATOM     12  C   LIG    1       -6.871  -4.084   2.504  0.00  0.00    +0.050 C 
ATOM     13  C   LIG    1       -6.916  -2.699   3.160  0.00  0.00    +0.030 C 
ATOM     14  C   LIG    1       -7.946  -1.842   2.424  0.00  0.00    +0.260 C 
ATOM     15  N   LIG    1       -9.213  -2.553   2.309  0.00  0.00    -0.720 N 
ATOM     16  H   LIG    1      -10.011  -2.034   2.124  0.00  0.00    +0.400 HD
ENDBRANCH   5  13
ENDBRANCH   1   5
BRANCH   2  17
ATOM     17  C   LIG    1       -3.688  -0.660   0.011  0.00  0.00    +0.390 C 
BRANCH  17  18
ATOM     18  C   LIG    1       -2.539   0.315   0.004  0.00  0.00    +0.300 A 
ATOM     19  N   LIG    1       -2.794   1.606  -0.053  0.00  0.00    -0.500 NA
ATOM     20  C   LIG    1       -1.810   2.491  -0.065  0.00  0.00    +0.340 A 
ATOM     21  C   LIG    1       -0.500   2.041  -0.009  0.00  0.00    -0.220 A 
ATOM     22  C   LIG    1        0.630   3.034  -0.024  0.00  0.00    +0.310 C 
ATOM     23  O   LIG    1        1.842   2.405   0.396  0.00  0.00    -0.370 OA
ATOM     24  C   LIG    1        2.128   1.197  -0.317  0.00  0.00    +0.230 C 
ATOM     25  C   LIG    1        1.127   0.124   0.117  0.00  0.00    +0.090 C 
ATOM     26  C   LIG    1       -0.271   0.681   0.053  0.00  0.00    +0.190 A 
ATOM     27  N   LIG    1       -1.306  -0.147   0.057  0.00  0.00    -0.500 NA
ENDBRANCH  17  18
ENDBRANCH   2  17
TORSDOF 4
