REMARK  Name = ZINCqH0000004SjM.0
REMARK                            x       y       z     vdW  Elec       q    Type
REMARK                         _______ _______ _______ _____ _____    ______ ____
ROOT
ATOM      1  S   LIG    1       -4.922  -2.218  -3.091  0.00  0.00    +0.080 S 
ENDROOT
BRANCH   1   3
ATOM      2  N   LIG    1       -6.533  -2.445  -5.367  0.00  0.00    -0.450 N 
ATOM      3  C   LIG    1       -5.293  -2.307  -4.811  0.00  0.00    +0.150 A 
ATOM      4  N   LIG    1       -4.428  -2.247  -5.800  0.00  0.00    -0.290 NA
ATOM      5  N   LIG    1       -5.038  -2.346  -6.926  0.00  0.00    -0.270 NA
ATOM      6  C   LIG    1       -6.330  -2.466  -6.727  0.00  0.00    +0.230 A 
BRANCH   6   7
ATOM      7  C   LIG    1       -7.371  -2.599  -7.769  0.00  0.00    -0.020 A 
ATOM      8  C   LIG    1       -8.705  -2.325  -7.465  0.00  0.00    +0.010 A 
ATOM      9  C   LIG    1       -9.671  -2.446  -8.443  0.00  0.00    +0.010 A 
ATOM     10  C   LIG    1       -9.320  -2.849  -9.720  0.00  0.00    +0.030 A 
ATOM     11  C   LIG    1       -8.000  -3.128 -10.026  0.00  0.00    +0.010 A 
ATOM     12  C   LIG    1       -7.024  -3.006  -9.058  0.00  0.00    +0.070 A 
ENDBRANCH   6   7
BRANCH   2  14
ATOM     13  C   LIG    1       -8.361  -1.147  -4.390  0.00  0.00    +0.050 C 
ATOM     14  C   LIG    1       -7.812  -2.549  -4.661  0.00  0.00    +0.300 C 
ENDBRANCH   2  14
ENDBRANCH   1   3
BRANCH   1  15
ATOM     15  C   LIG    1       -3.122  -2.044  -3.166  0.00  0.00    +0.010 C 
ATOM     16  C   LIG    1       -2.511  -3.316  -3.756  0.00  0.00    +0.090 C 
BRANCH  15  17
ATOM     17  C   LIG    1       -2.580  -1.824  -1.777  0.00  0.00    +0.540 C 
ATOM     18  N   LIG    1       -1.406  -1.185  -1.605  0.00  0.00    -0.720 N 
ATOM     19  H   LIG    1       -0.910  -0.867  -2.376  0.00  0.00    +0.410 HD
ATOM     20  O   LIG    1       -3.201  -2.222  -0.814  0.00  0.00    -0.520 OA
BRANCH  18  21
ATOM     21  C   LIG    1       -0.880  -0.971  -0.255  0.00  0.00    +0.320 C 
BRANCH  21  22
ATOM     22  C   LIG    1        0.435  -0.240  -0.339  0.00  0.00    -0.110 A 
ATOM     23  C   LIG    1        0.460   1.142  -0.318  0.00  0.00    +0.020 A 
ATOM     24  C   LIG    1        1.667   1.813  -0.394  0.00  0.00    +0.010 A 
ATOM     25  C   LIG    1        2.848   1.102  -0.493  0.00  0.00    +0.010 A 
ATOM     26  C   LIG    1        2.823  -0.280  -0.514  0.00  0.00    +0.010 A 
ATOM     27  C   LIG    1        1.617  -0.951  -0.436  0.00  0.00    +0.020 A 
ENDBRANCH  21  22
ENDBRANCH  18  21
ENDBRANCH  15  17
ENDBRANCH   1  15
TORSDOF 7
