REMARK  Name = ZINCrH00000tj1pU.0
REMARK                            x       y       z     vdW  Elec       q    Type
REMARK                         _______ _______ _______ _____ _____    ______ ____
ROOT
ATOM      1  C   LIG    1       -2.579  -3.190   0.010  0.00  0.00    +0.110 A 
ATOM      2  N   LIG    1       -3.687  -2.487   0.030  0.00  0.00    -0.290 NA
ATOM      3  N   LIG    1       -4.699  -3.281   0.030  0.00  0.00    -0.250 NA
ATOM      4  C   LIG    1       -4.279  -4.523   0.019  0.00  0.00    +0.230 A 
ATOM      5  O   LIG    1       -2.927  -4.492   0.006  0.00  0.00    -0.200 OA
ENDROOT
BRANCH   4   6
ATOM      6  C   LIG    1       -5.125  -5.733   0.021  0.00  0.00    -0.100 A 
ATOM      7  C   LIG    1       -4.537  -6.999   0.001  0.00  0.00    +0.140 A 
ATOM      8  C   LIG    1       -5.331  -8.126   0.008  0.00  0.00    -0.110 A 
ATOM      9  C   LIG    1       -6.715  -8.007   0.022  0.00  0.00    +0.200 A 
ATOM     10  C   LIG    1       -7.308  -6.752   0.036  0.00  0.00    -0.100 A 
ATOM     11  C   LIG    1       -6.521  -5.614   0.035  0.00  0.00    +0.220 A 
BRANCH   9  12
ATOM     12  O   LIG    1       -7.491  -9.122   0.024  0.00  0.00    -0.310 OA
ATOM     13  C   LIG    1       -6.816 -10.382   0.010  0.00  0.00    +0.250 C 
ENDBRANCH   9  12
BRANCH  11  14
ATOM     14  O   LIG    1       -7.100  -4.386   0.048  0.00  0.00    -0.280 OA
ATOM     15  C   LIG    1       -8.529  -4.342   0.062  0.00  0.00    +0.250 C 
ENDBRANCH  11  14
ENDBRANCH   4   6
BRANCH   1  16
ATOM     16  S   LIG    1       -0.938  -2.550  -0.003  0.00  0.00    +0.130 S 
BRANCH  16  17
ATOM     17  C   LIG    1       -1.293  -0.775   0.010  0.00  0.00    +0.100 C 
BRANCH  17  18
ATOM     18  C   LIG    1        0.002  -0.004   0.002  0.00  0.00    +0.420 C 
ATOM     19  O   LIG    1        1.061  -0.596  -0.011  0.00  0.00    -0.440 OA
BRANCH  18  23
ATOM     20  C   LIG    1       -0.055   4.231   0.024  0.00  0.00    +0.170 A 
ATOM     21  C   LIG    1        1.160   3.554   0.010  0.00  0.00    -0.030 A 
ATOM     22  C   LIG    1        1.184   2.183   0.003  0.00  0.00    +0.130 A 
ATOM     23  C   LIG    1       -0.018   1.464   0.010  0.00  0.00    -0.210 A 
ATOM     24  C   LIG    1       -1.239   2.150   0.020  0.00  0.00    +0.110 A 
ATOM     25  C   LIG    1       -1.252   3.522   0.031  0.00  0.00    -0.080 A 
BRANCH  20  27
ATOM     26  C   LIG    1       -1.356   6.219   0.045  0.00  0.00    +0.250 C 
ATOM     27  O   LIG    1       -0.074   5.587   0.030  0.00  0.00    -0.310 OA
ENDBRANCH  20  27
ENDBRANCH  18  23
ENDBRANCH  17  18
ENDBRANCH  16  17
ENDBRANCH   1  16
TORSDOF 8
