REMARK  Name = ZINCrD00000dWYkj.0
REMARK                            x       y       z     vdW  Elec       q    Type
REMARK                         _______ _______ _______ _____ _____    ______ ____
ROOT
ATOM      1  N   LIG    1       -1.897   1.341  -3.032  0.00  0.00    -0.740 N 
ATOM      2  H   LIG    1       -1.666   2.263  -3.228  0.00  0.00    +0.400 HD
ATOM      3  C   LIG    1       -1.427   0.752  -1.914  0.00  0.00    +0.730 C 
ATOM      4  N   LIG    1       -0.637   1.443  -1.069  0.00  0.00    -0.630 N 
ATOM      5  C   LIG    1       -0.025   0.980   0.200  0.00  0.00    +0.260 C 
ATOM      6  C   LIG    1        1.408   1.560   0.165  0.00  0.00    +0.010 C 
ATOM      7  C   LIG    1        1.310   2.796  -0.754  0.00  0.00    +0.010 C 
ATOM      8  C   LIG    1       -0.777   1.654   1.358  0.00  0.00    +0.020 C 
ATOM      9  C   LIG    1       -0.559   3.178   1.256  0.00  0.00    +0.040 C 
ATOM     10  C   LIG    1       -0.941   3.671  -0.143  0.00  0.00    +0.020 C 
ATOM     11  C   LIG    1       -0.173   2.846  -1.188  0.00  0.00    +0.220 C 
ATOM     12  O   LIG    1       -1.717  -0.403  -1.668  0.00  0.00    -0.590 OA
ENDROOT
BRANCH   9  13
ATOM     13  C   LIG    1        0.892   3.487   1.517  0.00  0.00    -0.080 A 
ATOM     14  C   LIG    1        1.633   2.671   2.352  0.00  0.00    +0.030 A 
ATOM     15  C   LIG    1        2.966   2.952   2.589  0.00  0.00    -0.030 A 
ATOM     16  C   LIG    1        3.555   4.054   1.998  0.00  0.00    +0.010 A 
ATOM     17  C   LIG    1        2.813   4.873   1.167  0.00  0.00    -0.030 A 
ATOM     18  C   LIG    1        1.481   4.589   0.927  0.00  0.00    +0.030 A 
ENDBRANCH   9  13
BRANCH   1  19
ATOM     19  C   LIG    1       -2.756   0.590  -3.950  0.00  0.00    +0.400 C 
BRANCH  19  22
ATOM     20  C   LIG    1       -4.188   2.920  -6.308  0.00  0.00    +0.210 A 
ATOM     21  N   LIG    1       -4.167   2.340  -5.142  0.00  0.00    -0.470 NA
ATOM     22  C   LIG    1       -3.141   1.470  -5.111  0.00  0.00    -0.040 A 
ATOM     23  C   LIG    1       -2.519   1.532  -6.300  0.00  0.00    +0.180 A 
ATOM     24  O   LIG    1       -3.181   2.436  -7.048  0.00  0.00    -0.190 OA
BRANCH  20  25
ATOM     25  C   LIG    1       -5.182   3.961  -6.753  0.00  0.00    +0.340 C 
BRANCH  25  27
ATOM     26  C   LIG    1       -5.494   6.345  -7.039  0.00  0.00    +0.200 C 
ATOM     27  N   LIG    1       -4.674   5.298  -6.416  0.00  0.00    -0.550 NA
ATOM     28  C   LIG    1       -4.601   5.483  -4.961  0.00  0.00    +0.190 C 
ENDBRANCH  25  27
ENDBRANCH  20  25
ENDBRANCH  19  22
ENDBRANCH   1  19
TORSDOF 5
