REMARK  Name = ZINCqH0000004IcQ.0
REMARK                            x       y       z     vdW  Elec       q    Type
REMARK                         _______ _______ _______ _____ _____    ______ ____
ROOT
ATOM      1  C   LIG    1       -0.041   1.497  -0.280  0.00  0.00    +0.170 C 
ATOM      2  C   LIG    1       -0.464   0.020  -0.168  0.00  0.00    +0.050 C 
ATOM      3  C   LIG    1        0.850  -0.760   0.065  0.00  0.00    +0.050 C 
ATOM      4  C   LIG    1        1.803   0.326   0.626  0.00  0.00    +0.210 C 
ATOM      5  N   LIG    1        1.431   1.538  -0.149  0.00  0.00    -0.450 N 
ENDROOT
BRANCH   5   6
ATOM      6  C   LIG    1        1.838   2.683   0.501  0.00  0.00    +0.390 A 
ATOM      7  N   LIG    1        1.123   3.193   1.495  0.00  0.00    -0.570 NA
ATOM      8  C   LIG    1        1.505   4.289   2.130  0.00  0.00    +0.510 A 
ATOM      9  N   LIG    1        2.596   4.949   1.823  0.00  0.00    -0.510 NA
ATOM     10  C   LIG    1        3.391   4.524   0.829  0.00  0.00    +0.160 A 
ATOM     11  C   LIG    1        4.563   5.204   0.473  0.00  0.00    +0.030 A 
ATOM     12  C   LIG    1        5.335   4.728  -0.546  0.00  0.00    +0.070 A 
ATOM     13  C   LIG    1        4.976   3.576  -1.240  0.00  0.00    +0.000 A 
ATOM     14  C   LIG    1        3.841   2.890  -0.919  0.00  0.00    +0.090 A 
ATOM     15  C   LIG    1        3.028   3.352   0.122  0.00  0.00    -0.140 A 
ENDBRANCH   5   6
BRANCH   1  18
ATOM     16  N   LIG    1       -1.756   2.088  -1.962  0.00  0.00    -0.680 N 
ATOM     17  H   LIG    1       -2.434   1.824  -1.320  0.00  0.00    +0.410 HD
ATOM     18  C   LIG    1       -0.453   2.048  -1.621  0.00  0.00    +0.520 C 
ATOM     19  O   LIG    1        0.389   2.457  -2.393  0.00  0.00    -0.490 OA
BRANCH  16  24
ATOM     20  C   LIG    1       -3.583   2.340  -5.143  0.00  0.00    -0.060 A 
ATOM     21  C   LIG    1       -2.874   3.346  -5.773  0.00  0.00    -0.010 A 
ATOM     22  C   LIG    1       -1.795   3.936  -5.140  0.00  0.00    +0.030 A 
ATOM     23  C   LIG    1       -1.425   3.526  -3.875  0.00  0.00    +0.010 A 
ATOM     24  C   LIG    1       -2.132   2.511  -3.242  0.00  0.00    +0.150 A 
ATOM     25  C   LIG    1       -3.214   1.920  -3.879  0.00  0.00    -0.020 A 
BRANCH  20  27
ATOM     26  C   LIG    1       -6.035   2.466  -5.488  0.00  0.00    +0.030 C 
ATOM     27  C   LIG    1       -4.758   1.699  -5.836  0.00  0.00    +0.050 C 
ENDBRANCH  20  27
ENDBRANCH  16  24
ENDBRANCH   1  18
TORSDOF 4
