REMARK  Name = ZINCpe00000gMMZg.0
REMARK                            x       y       z     vdW  Elec       q    Type
REMARK                         _______ _______ _______ _____ _____    ______ ____
ROOT
ATOM      1  C   LIG    1        0.728   6.115  -0.708  0.00  0.00    +0.080 C 
ATOM      2  C   LIG    1        0.042   4.950   0.009  0.00  0.00    +0.160 C 
ATOM      3  O   LIG    1       -1.198   4.648  -0.642  0.00  0.00    -0.360 OA
ATOM      4  C   LIG    1       -1.987   3.693   0.069  0.00  0.00    +0.290 C 
ATOM      5  C   LIG    1       -1.142   2.505   0.438  0.00  0.00    +0.490 C 
ATOM      6  N   LIG    1        0.195   2.536   0.394  0.00  0.00    -0.580 N 
ATOM      7  O   LIG    1       -1.693   1.481   0.784  0.00  0.00    -0.530 OA
ATOM      8  C   LIG    1        0.940   3.712  -0.049  0.00  0.00    +0.210 C 
ENDROOT
BRANCH   8   9
ATOM      9  C   LIG    1        2.133   3.917   0.849  0.00  0.00    +0.510 C 
ATOM     10  N   LIG    1        3.299   4.352   0.333  0.00  0.00    -0.610 N 
ATOM     11  C   LIG    1        3.378   4.731  -1.080  0.00  0.00    +0.300 C 
ATOM     12  O   LIG    1        2.043   3.689   2.037  0.00  0.00    -0.500 OA
BRANCH  10  13
ATOM     13  C   LIG    1        4.488   4.446   1.183  0.00  0.00    +0.440 C 
BRANCH  13  14
ATOM     14  C   LIG    1        5.243   3.143   1.136  0.00  0.00    +0.140 A 
ATOM     15  N   LIG    1        6.185   2.830   0.297  0.00  0.00    -0.370 NA
ATOM     16  O   LIG    1        6.592   1.710   0.521  0.00  0.00    +0.080 OA
ATOM     17  C   LIG    1        5.929   1.185   1.556  0.00  0.00    +0.420 A 
ATOM     18  N   LIG    1        5.071   2.092   1.958  0.00  0.00    -0.470 NA
ENDBRANCH  13  14
ENDBRANCH  10  13
ENDBRANCH   8   9
BRANCH   6  19
ATOM     19  C   LIG    1        0.941   1.344   0.806  0.00  0.00    +0.340 C 
BRANCH  19  20
ATOM     20  C   LIG    1        1.163   0.453  -0.389  0.00  0.00    -0.110 A 
ATOM     21  C   LIG    1        0.238  -0.525  -0.704  0.00  0.00    +0.040 A 
ATOM     22  C   LIG    1        0.440  -1.339  -1.803  0.00  0.00    +0.000 A 
ATOM     23  C   LIG    1        1.572  -1.182  -2.581  0.00  0.00    +0.010 A 
ATOM     24  C   LIG    1        2.500  -0.208  -2.263  0.00  0.00    +0.000 A 
ATOM     25  C   LIG    1        2.296   0.609  -1.167  0.00  0.00    +0.000 A 
ENDBRANCH  19  20
ENDBRANCH   6  19
TORSDOF 5
