REMARK  Name = ZINCvU0000000EB6.0
REMARK                            x       y       z     vdW  Elec       q    Type
REMARK                         _______ _______ _______ _____ _____    ______ ____
ROOT
ATOM      1  C   LIG    1        1.188   1.578   3.097  0.00  0.00    +0.010 A 
ATOM      2  C   LIG    1       -0.115   1.763   2.589  0.00  0.00    -0.210 A 
ATOM      3  C   LIG    1       -0.724   1.584   1.272  0.00  0.00    +0.150 A 
ATOM      4  N   LIG    1       -1.976   1.914   1.377  0.00  0.00    -0.260 NA
ATOM      5  O   LIG    1       -2.257   2.303   2.706  0.00  0.00    -0.070 OA
ATOM      6  C   LIG    1       -0.027   1.110   0.023  0.00  0.00    +0.200 C 
ATOM      7  C   LIG    1       -1.133   2.217   3.446  0.00  0.00    +0.310 A 
ATOM      8  N   LIG    1       -0.869   2.468   4.718  0.00  0.00    -0.460 NA
ATOM      9  C   LIG    1        0.342   2.305   5.227  0.00  0.00    +0.250 A 
ATOM     10  C   LIG    1        1.408   1.858   4.443  0.00  0.00    -0.010 A 
ENDROOT
BRANCH   1  16
ATOM     11  C   LIG    1        4.834   2.593   0.293  0.00  0.00    -0.020 C 
ATOM     12  C   LIG    1        5.192   3.801   1.161  0.00  0.00    +0.020 C 
ATOM     13  C   LIG    1        3.987   4.187   2.022  0.00  0.00    +0.010 C 
ATOM     14  C   LIG    1        3.626   3.022   2.940  0.00  0.00    +0.260 C 
ATOM     15  N   LIG    1        3.424   1.815   2.126  0.00  0.00    -0.600 N 
ATOM     16  C   LIG    1        2.286   1.101   2.227  0.00  0.00    +0.560 C 
ATOM     17  O   LIG    1        2.161   0.066   1.603  0.00  0.00    -0.510 OA
ATOM     18  C   LIG    1        4.485   1.406   1.196  0.00  0.00    +0.280 C 
BRANCH  11  19
ATOM     19  C   LIG    1        6.028   2.227  -0.592  0.00  0.00    +0.030 C 
BRANCH  19  21
ATOM     20  C   LIG    1        6.825   0.733  -2.429  0.00  0.00    +0.000 C 
ATOM     21  C   LIG    1        5.631   1.098  -1.544  0.00  0.00    -0.010 C 
ENDBRANCH  19  21
ENDBRANCH  11  19
ENDBRANCH   1  16
BRANCH   9  22
ATOM     22  C   LIG    1        0.572   2.604   6.661  0.00  0.00    -0.060 A 
ATOM     23  C   LIG    1        1.839   2.432   7.217  0.00  0.00    +0.080 A 
ATOM     24  C   LIG    1        2.048   2.717   8.551  0.00  0.00    +0.030 A 
ATOM     25  C   LIG    1        1.001   3.161   9.339  0.00  0.00    +0.090 A 
ATOM     26  C   LIG    1       -0.260   3.327   8.794  0.00  0.00    -0.190 A 
ATOM     27  C   LIG    1       -0.479   3.051   7.460  0.00  0.00    +0.130 A 
BRANCH  26  28
ATOM     28  C   LIG    1       -1.395   3.811   9.659  0.00  0.00    +0.510 C 
ATOM     29  F   LIG    1       -2.303   4.532   8.876  0.00  0.00    -0.170 F 
ATOM     30  F   LIG    1       -0.892   4.637  10.670  0.00  0.00    -0.180 F 
ATOM     31  F   LIG    1       -2.044   2.713  10.234  0.00  0.00    -0.170 F 
ENDBRANCH  26  28
ENDBRANCH   9  22
TORSDOF 5
