REMARK  Name = ZINCpk00000KfKnm.0
REMARK                            x       y       z     vdW  Elec       q    Type
REMARK                         _______ _______ _______ _____ _____    ______ ____
ROOT
ATOM      1  C   LIG    1        6.028   2.082  -0.146  0.00  0.00    +0.620 C 
ATOM      2  N   LIG    1        4.892   1.365  -0.038  0.00  0.00    -0.650 N 
ATOM      3  H   LIG    1        4.934   0.399   0.034  0.00  0.00    +0.430 HD
ATOM      4  O   LIG    1        5.982   3.297  -0.140  0.00  0.00    -0.480 OA
ENDROOT
BRANCH   1   8
ATOM      5  C   LIG    1        9.488  -1.488  -0.489  0.00  0.00    +0.210 C 
ATOM      6  C   LIG    1        8.805  -0.147  -0.420  0.00  0.00    +0.230 A 
ATOM      7  N   LIG    1        7.520   0.060  -0.289  0.00  0.00    -0.480 NA
ATOM      8  C   LIG    1        7.329   1.392  -0.274  0.00  0.00    +0.150 A 
ATOM      9  N   LIG    1        8.505   1.972  -0.387  0.00  0.00    -0.240 NA
ATOM     10  N   LIG    1        9.409   1.058  -0.476  0.00  0.00    -0.250 N 
BRANCH  10  11
ATOM     11  C   LIG    1       10.787   1.279  -0.609  0.00  0.00    +0.100 A 
ATOM     12  C   LIG    1       11.691   0.419  -0.000  0.00  0.00    +0.070 A 
ATOM     13  C   LIG    1       13.047   0.636  -0.136  0.00  0.00    +0.020 A 
ATOM     14  C   LIG    1       13.507   1.716  -0.870  0.00  0.00    +0.120 A 
ATOM     15  C   LIG    1       12.607   2.579  -1.473  0.00  0.00    +0.010 A 
ATOM     16  F   LIG    1       14.835   1.930  -0.997  0.00  0.00    -0.130 F 
ATOM     17  C   LIG    1       11.249   2.362  -1.344  0.00  0.00    +0.090 A 
ENDBRANCH  10  11
ENDBRANCH   1   8
BRANCH   2  18
ATOM     18  C   LIG    1        3.657   2.012  -0.028  0.00  0.00    +0.190 A 
ATOM     19  C   LIG    1        2.589   1.501   0.706  0.00  0.00    -0.020 A 
ATOM     20  C   LIG    1        1.377   2.169   0.693  0.00  0.00    +0.290 A 
ATOM     21  N   LIG    1        1.222   3.276  -0.002  0.00  0.00    -0.470 NA
ATOM     22  C   LIG    1        2.212   3.799  -0.716  0.00  0.00    +0.090 A 
ATOM     23  C   LIG    1        3.458   3.183  -0.758  0.00  0.00    +0.040 A 
BRANCH  22  24
ATOM     24  C   LIG    1        1.985   5.048  -1.481  0.00  0.00    +0.580 C 
ATOM     25  O   LIG    1        2.887   5.532  -2.136  0.00  0.00    -0.530 OA
ATOM     26  N   LIG    1        0.780   5.651  -1.444  0.00  0.00    -0.830 N 
ATOM     27  H   LIG    1        0.060   5.265  -0.921  0.00  0.00    +0.410 HD
ATOM     28  H   LIG    1        0.632   6.470  -1.942  0.00  0.00    +0.410 HD
ENDBRANCH  22  24
ENDBRANCH   2  18
TORSDOF 4
