REMARK  Name = ZINCpk000000oN9j.0
REMARK                            x       y       z     vdW  Elec       q    Type
REMARK                         _______ _______ _______ _____ _____    ______ ____
ROOT
ATOM      1  C   LIG    1       -0.827   5.513   1.730  0.00  0.00    -0.040 A 
ATOM      2  C   LIG    1       -0.092   4.609   2.501  0.00  0.00    +0.020 A 
ATOM      3  C   LIG    1       -0.073   3.270   2.160  0.00  0.00    +0.170 A 
ATOM      4  C   LIG    1       -0.778   2.826   1.043  0.00  0.00    +0.100 A 
ATOM      5  C   LIG    1       -1.510   3.724   0.277  0.00  0.00    +0.080 A 
ATOM      6  C   LIG    1       -1.537   5.060   0.615  0.00  0.00    -0.000 A 
ENDROOT
BRANCH   1   8
ATOM      7  N   LIG    1       -1.256   7.319   3.322  0.00  0.00    -0.590 N 
ATOM      8  C   LIG    1       -0.854   6.944   2.092  0.00  0.00    +0.570 C 
ATOM      9  O   LIG    1       -0.514   7.783   1.281  0.00  0.00    -0.490 OA
ATOM     10  C   LIG    1       -1.572   6.305   4.332  0.00  0.00    +0.290 C 
BRANCH   7  11
ATOM     11  C   LIG    1       -1.377   8.742   3.651  0.00  0.00    +0.330 C 
BRANCH  11  14
ATOM     12  N   LIG    1       -3.115  10.500   3.547  0.00  0.00    -0.730 N 
ATOM     13  H   LIG    1       -2.465  11.119   3.915  0.00  0.00    +0.400 HD
ATOM     14  C   LIG    1       -2.771   9.216   3.326  0.00  0.00    +0.490 C 
ATOM     15  O   LIG    1       -3.583   8.441   2.866  0.00  0.00    -0.520 OA
BRANCH  12  17
ATOM     16  C   LIG    1       -4.596  12.446   3.574  0.00  0.00    +0.020 C 
ATOM     17  C   LIG    1       -4.469  10.960   3.231  0.00  0.00    +0.250 C 
ENDBRANCH  12  17
ENDBRANCH  11  14
ENDBRANCH   7  11
ENDBRANCH   1   8
BRANCH   6  18
ATOM     18  N   LIG    1       -2.317   6.014  -0.204  0.00  0.00    +0.020 N 
ATOM     19  O   LIG    1       -2.440   7.170   0.160  0.00  0.00    -0.100 OA
ATOM     20  O   LIG    1       -2.837   5.644  -1.242  0.00  0.00    -0.170 OA
ENDBRANCH   6  18
BRANCH   3  21
ATOM     21  O   LIG    1        0.637   2.387   2.911  0.00  0.00    -0.290 OA
ATOM     22  C   LIG    1        1.336   2.912   4.042  0.00  0.00    +0.270 C 
ENDBRANCH   3  21
BRANCH   4  23
ATOM     23  O   LIG    1       -0.755   1.511   0.706  0.00  0.00    -0.300 OA
BRANCH  23  24
ATOM     24  C   LIG    1       -1.504   1.123  -0.448  0.00  0.00    +0.600 C 
ATOM     25  F   LIG    1       -2.854   1.437  -0.254  0.00  0.00    -0.190 F 
ATOM     26  F   LIG    1       -1.022   1.807  -1.569  0.00  0.00    -0.190 F 
ENDBRANCH  23  24
ENDBRANCH   4  23
TORSDOF 8
