REMARK  Name = ZINCb70000003ZeS.0
REMARK                            x       y       z     vdW  Elec       q    Type
REMARK                         _______ _______ _______ _____ _____    ______ ____
ROOT
ATOM      1  C   LIG    1       -1.303   3.504   2.573  0.00  0.00    +0.090 C 
ATOM      2  C   LIG    1       -0.656   3.025   1.272  0.00  0.00    +0.160 C 
ATOM      3  C   LIG    1       -1.420   3.606   0.080  0.00  0.00    +0.080 C 
ATOM      4  C   LIG    1       -0.769   3.123  -1.220  0.00  0.00    +0.080 C 
ATOM      5  C   LIG    1       -0.752   1.592  -1.233  0.00  0.00    -0.470 C 
ATOM      6  C   LIG    1       -0.013   1.086   0.008  0.00  0.00    +0.310 C 
ATOM      7  N   LIG    1       -0.699   1.559   1.217  0.00  0.00    -0.500 N 
ATOM      8  H   LIG    1       -0.241   1.179   2.032  0.00  0.00    +0.440 HD
ATOM      9  H   LIG    1       -1.659   1.251   1.199  0.00  0.00    +0.430 HD
ENDROOT
BRANCH   5  10
ATOM     10  S   LIG    1        0.099   1.008  -2.725  0.00  0.00    +2.430 S 
ATOM     11  O   LIG    1       -0.103  -0.394  -2.841  0.00  0.00    -0.920 OA
ATOM     12  O   LIG    1        1.424   1.520  -2.720  0.00  0.00    -0.910 OA
ATOM     13  C   LIG    1       -0.838   1.837  -4.039  0.00  0.00    -0.230 C 
ENDBRANCH   5  10
TORSDOF 1
