REMARK  Name = ZINCvU0000000A4h.1
REMARK                            x       y       z     vdW  Elec       q    Type
REMARK                         _______ _______ _______ _____ _____    ______ ____
ROOT
ATOM      1  N   LIG    1       -2.206   1.560   3.563  0.00  0.00    -0.540 N 
ATOM      2  C   LIG    1       -2.908   1.899   2.316  0.00  0.00    +0.250 C 
ATOM      3  C   LIG    1       -2.172   1.236   1.147  0.00  0.00    +0.170 C 
ATOM      4  N   LIG    1       -0.754   1.617   1.185  0.00  0.00    -0.510 NA
ATOM      5  C   LIG    1       -0.103   1.128   2.408  0.00  0.00    +0.170 C 
ATOM      6  C   LIG    1       -0.754   1.787   3.628  0.00  0.00    +0.330 C 
ENDROOT
BRANCH   4   7
ATOM      7  C   LIG    1       -0.049   1.143  -0.013  0.00  0.00    +0.270 C 
ATOM      8  C   LIG    1       -0.334  -0.321  -0.240  0.00  0.00    -0.120 A 
ATOM      9  C   LIG    1       -0.091  -1.441   0.526  0.00  0.00    +0.020 A 
ATOM     10  C   LIG    1       -0.465  -2.691   0.064  0.00  0.00    +0.020 A 
ATOM     11  C   LIG    1       -1.082  -2.819  -1.167  0.00  0.00    +0.020 A 
ATOM     12  C   LIG    1       -1.329  -1.704  -1.940  0.00  0.00    +0.020 A 
ATOM     13  C   LIG    1       -0.954  -0.440  -1.481  0.00  0.00    -0.050 A 
ATOM     14  C   LIG    1       -1.094   0.904  -2.094  0.00  0.00    -0.060 A 
ATOM     15  C   LIG    1       -1.643   1.306  -3.313  0.00  0.00    +0.020 A 
ATOM     16  C   LIG    1       -1.653   2.641  -3.657  0.00  0.00    +0.020 A 
ATOM     17  C   LIG    1       -1.122   3.586  -2.799  0.00  0.00    +0.020 A 
ATOM     18  C   LIG    1       -0.575   3.195  -1.589  0.00  0.00    +0.050 A 
ATOM     19  C   LIG    1       -0.561   1.863  -1.236  0.00  0.00    -0.080 A 
ENDBRANCH   4   7
BRANCH   1  21
ATOM     20  C   LIG    1       -4.160   0.736   4.548  0.00  0.00    +0.150 C 
ATOM     21  N   LIG    1       -2.902   1.034   4.660  0.00  0.00    -0.210 NA
BRANCH  20  25
ATOM     22  C   LIG    1       -6.356  -0.513   7.958  0.00  0.00    -0.060 A 
ATOM     23  C   LIG    1       -6.985  -0.425   6.728  0.00  0.00    +0.000 A 
ATOM     24  C   LIG    1       -6.277  -0.019   5.616  0.00  0.00    +0.020 A 
ATOM     25  C   LIG    1       -4.923   0.302   5.732  0.00  0.00    -0.040 A 
ATOM     26  C   LIG    1       -4.294   0.206   6.976  0.00  0.00    +0.040 A 
ATOM     27  C   LIG    1       -5.015  -0.195   8.081  0.00  0.00    +0.010 A 
BRANCH  22  29
ATOM     28  C   LIG    1       -7.689  -2.363   8.932  0.00  0.00    +0.040 C 
ATOM     29  C   LIG    1       -7.136  -0.957   9.168  0.00  0.00    -0.030 C 
ATOM     30  C   LIG    1       -8.295   0.013   9.412  0.00  0.00    +0.040 C 
ATOM     31  C   LIG    1       -6.217  -0.969  10.391  0.00  0.00    +0.030 C 
ENDBRANCH  22  29
ENDBRANCH  20  25
ENDBRANCH   1  21
TORSDOF 4
