REMARK  Name = ZINCnE000001IlKp.1
REMARK                            x       y       z     vdW  Elec       q    Type
REMARK                         _______ _______ _______ _____ _____    ______ ____
ROOT
ATOM      1  S   LIG    1        0.727   3.937  -1.385  0.00  0.00    +0.040 S 
ENDROOT
BRANCH   1  10
ATOM      2  N   LIG    1       -0.721   1.571  -1.179  0.00  0.00    -0.480 N 
ATOM      3  C   LIG    1       -1.746   0.921  -1.847  0.00  0.00    +0.050 A 
ATOM      4  C   LIG    1       -2.411  -0.279  -1.652  0.00  0.00    +0.010 A 
ATOM      5  C   LIG    1       -3.423  -0.652  -2.513  0.00  0.00    +0.020 A 
ATOM      6  C   LIG    1       -3.785   0.170  -3.570  0.00  0.00    +0.000 A 
ATOM      7  C   LIG    1       -3.139   1.369  -3.775  0.00  0.00    +0.060 A 
ATOM      8  C   LIG    1       -2.112   1.761  -2.912  0.00  0.00    +0.060 A 
ATOM      9  N   LIG    1       -1.309   2.855  -2.854  0.00  0.00    -0.500 NA
ATOM     10  C   LIG    1       -0.490   2.746  -1.837  0.00  0.00    +0.260 A 
BRANCH   2  12
ATOM     11  C   LIG    1       -0.729   1.579   1.267  0.00  0.00    +0.040 C 
ATOM     12  C   LIG    1       -0.013   1.086   0.008  0.00  0.00    +0.300 C 
ENDBRANCH   2  12
ENDBRANCH   1  10
BRANCH   1  13
ATOM     13  C   LIG    1        0.448   5.176  -2.674  0.00  0.00    +0.050 C 
ATOM     14  C   LIG    1       -0.947   5.782  -2.506  0.00  0.00    +0.070 C 
BRANCH  13  15
ATOM     15  C   LIG    1        1.485   6.264  -2.558  0.00  0.00    +0.470 C 
ATOM     16  N   LIG    1        1.742   7.065  -3.611  0.00  0.00    -0.660 NA
ATOM     17  O   LIG    1        2.087   6.419  -1.517  0.00  0.00    -0.600 OA
BRANCH  16  18
ATOM     18  C   LIG    1        2.696   8.066  -3.505  0.00  0.00    +0.270 A 
ATOM     19  C   LIG    1        3.067   8.952  -4.475  0.00  0.00    -0.200 A 
ATOM     20  C   LIG    1        4.057   9.741  -3.855  0.00  0.00    +0.010 A 
ATOM     21  N   LIG    1        4.185   9.287  -2.640  0.00  0.00    -0.420 NA
ATOM     22  C   LIG    1        4.817  10.885  -4.474  0.00  0.00    +0.140 C 
ATOM     23  O   LIG    1        3.436   8.362  -2.424  0.00  0.00    +0.040 OA
ENDBRANCH  16  18
ENDBRANCH  13  15
ENDBRANCH   1  13
TORSDOF 5
