REMARK  Name = ZINCbu0000000GDA.0
REMARK                            x       y       z     vdW  Elec       q    Type
REMARK                         _______ _______ _______ _____ _____    ______ ____
ROOT
ATOM      1  C   LIG    1        1.172   2.087   0.002  0.00  0.00    -0.150 A 
ATOM      2  C   LIG    1        2.379   1.413  -0.013  0.00  0.00    +0.050 A 
ATOM      3  C   LIG    1        2.399   0.031  -0.021  0.00  0.00    +0.030 A 
ATOM      4  C   LIG    1        1.211  -0.679  -0.013  0.00  0.00    +0.150 A 
ATOM      5  C   LIG    1        0.002  -0.004   0.002  0.00  0.00    +0.030 A 
ATOM      6  F   LIG    1        1.230  -2.030  -0.020  0.00  0.00    -0.110 F 
ATOM      7  C   LIG    1       -0.017   1.379   0.010  0.00  0.00    +0.010 A 
ATOM      8 CL   LIG    1       -1.532   2.226   0.021  0.00  0.00    -0.030 Cl
ENDROOT
BRANCH   1  10
ATOM      9  C   LIG    1        1.032   4.094   1.451  0.00  0.00    +0.110 C 
ATOM     10  C   LIG    1        1.151   3.594   0.010  0.00  0.00    +0.230 C 
BRANCH  10  11
ATOM     11  N   LIG    1        2.394   4.104  -0.584  0.00  0.00    -0.640 N 
ATOM     12  H   LIG    1        3.183   3.776  -0.048  0.00  0.00    +0.430 HD
ATOM     13  H   LIG    1        2.380   5.113  -0.579  0.00  0.00    +0.440 HD
ATOM     14  H   LIG    1        2.473   3.774  -1.534  0.00  0.00    +0.440 HD
ENDBRANCH  10  11
ENDBRANCH   1  10
TORSDOF 2
