REMARK  Name = ZINCvU00000006Un.0
REMARK                            x       y       z     vdW  Elec       q    Type
REMARK                         _______ _______ _______ _____ _____    ______ ____
ROOT
ATOM      1  C   LIG    1        0.245  -8.083  -0.973  0.00  0.00    +0.560 C 
ATOM      2  N   LIG    1        0.260  -6.828  -0.483  0.00  0.00    -0.720 N 
ATOM      3  H   LIG    1        1.008  -6.241  -0.675  0.00  0.00    +0.400 HD
ATOM      4  O   LIG    1       -0.693  -8.818  -0.732  0.00  0.00    -0.510 OA
ENDROOT
BRANCH   1  10
ATOM      5  C   LIG    1        1.354  -9.872  -2.314  0.00  0.00    -0.050 A 
ATOM      6  C   LIG    1        2.417 -10.313  -3.094  0.00  0.00    -0.020 A 
ATOM      7  C   LIG    1        3.475  -9.469  -3.361  0.00  0.00    +0.060 A 
ATOM      8  C   LIG    1        3.489  -8.179  -2.856  0.00  0.00    -0.010 A 
ATOM      9  C   LIG    1        2.442  -7.721  -2.085  0.00  0.00    +0.070 A 
ATOM     10  C   LIG    1        1.365  -8.564  -1.801  0.00  0.00    -0.130 A 
BRANCH   5  11
ATOM     11  S   LIG    1        0.001 -10.947  -1.971  0.00  0.00    +0.030 S 
BRANCH  11  12
ATOM     12  C   LIG    1        0.460 -12.472  -2.839  0.00  0.00    +0.110 C 
BRANCH  12  16
ATOM     13  C   LIG    1       -3.734 -14.861  -3.990  0.00  0.00    +0.180 C 
ATOM     14  C   LIG    1       -2.500 -14.561  -3.179  0.00  0.00    +0.050 A 
ATOM     15  N   LIG    1       -1.643 -13.636  -3.454  0.00  0.00    -0.470 NA
ATOM     16  C   LIG    1       -0.615 -13.508  -2.638  0.00  0.00    +0.090 A 
ATOM     17  C   LIG    1       -0.603 -14.375  -1.622  0.00  0.00    -0.070 A 
ATOM     18  S   LIG    1       -2.032 -15.396  -1.763  0.00  0.00    +0.130 S 
ENDBRANCH  12  16
ENDBRANCH  11  12
ENDBRANCH   5  11
ENDBRANCH   1  10
BRANCH   2  19
ATOM     19  C   LIG    1       -0.853  -6.349   0.340  0.00  0.00    +0.290 C 
ATOM     20  C   LIG    1       -0.627  -6.763   1.796  0.00  0.00    +0.040 C 
BRANCH  19  21
ATOM     21  C   LIG    1       -0.934  -4.847   0.252  0.00  0.00    -0.110 A 
ATOM     22  C   LIG    1       -2.167  -4.225   0.173  0.00  0.00    +0.040 A 
ATOM     23  C   LIG    1       -2.244  -2.849   0.093  0.00  0.00    +0.020 A 
ATOM     24  C   LIG    1       -1.081  -2.089   0.091  0.00  0.00    +0.150 A 
ATOM     25  C   LIG    1        0.155  -2.716   0.166  0.00  0.00    -0.010 A 
ATOM     26  C   LIG    1        0.225  -4.093   0.252  0.00  0.00    +0.020 A 
BRANCH  24  27
ATOM     27  N   LIG    1       -1.156  -0.694   0.009  0.00  0.00    -0.670 N 
ATOM     28  H   LIG    1       -0.478  -0.200  -0.478  0.00  0.00    +0.410 HD
ATOM     29  C   LIG    1       -2.169  -0.037   0.608  0.00  0.00    +0.540 C 
ATOM     30  O   LIG    1       -3.061  -0.658   1.145  0.00  0.00    -0.520 OA
BRANCH  29  31
ATOM     31  C   LIG    1       -2.194   1.470   0.609  0.00  0.00    -0.070 C 
ATOM     32  C   LIG    1       -1.983   2.179   1.948  0.00  0.00    +0.060 C 
ATOM     33  C   LIG    1       -3.371   2.157   1.304  0.00  0.00    +0.080 C 
ENDBRANCH  29  31
ENDBRANCH  24  27
ENDBRANCH  19  21
ENDBRANCH   2  19
TORSDOF 8
