REMARK  Name = ZINCrD000000BRmd.0
REMARK                            x       y       z     vdW  Elec       q    Type
REMARK                         _______ _______ _______ _____ _____    ______ ____
ROOT
ATOM      1  O   LIG    1        2.493  -0.140  -0.021  0.00  0.00    -0.520 OA
ATOM      2  C   LIG    1        2.476   1.075  -0.015  0.00  0.00    +0.580 C 
ATOM      3  N   LIG    1        3.633   1.765  -0.022  0.00  0.00    -0.700 N 
ATOM      4  H   LIG    1        3.620   2.735  -0.018  0.00  0.00    +0.410 HD
ENDROOT
BRANCH   3   5
ATOM      5  C   LIG    1        4.912   1.051  -0.037  0.00  0.00    +0.300 C 
ATOM      6  C   LIG    1        5.989   1.948  -0.653  0.00  0.00    +0.020 C 
ATOM      7  C   LIG    1        7.358   1.305  -0.391  0.00  0.00    +0.250 C 
ATOM      8  O   LIG    1        7.590   1.299   1.018  0.00  0.00    -0.300 OA
ATOM      9  C   LIG    1        6.602   0.825   1.822  0.00  0.00    +0.170 A 
ATOM     10  C   LIG    1        6.922   0.473   3.130  0.00  0.00    -0.130 A 
ATOM     11  C   LIG    1        5.944  -0.009   3.978  0.00  0.00    +0.090 A 
ATOM     12  C   LIG    1        4.644  -0.143   3.528  0.00  0.00    -0.020 A 
ATOM     13  C   LIG    1        4.324   0.204   2.229  0.00  0.00    +0.090 A 
ATOM     14 BR   LIG    1        8.700   0.656   3.748  0.00  0.00    -0.030 Br
ATOM     15  C   LIG    1        5.300   0.687   1.373  0.00  0.00    -0.180 A 
ENDBRANCH   3   5
BRANCH   2  16
ATOM     16  C   LIG    1        1.182   1.798   0.000  0.00  0.00    +0.070 A 
ATOM     17  C   LIG    1       -0.013   1.076   0.008  0.00  0.00    +0.070 A 
ATOM     18  C   LIG    1       -1.218   1.760   0.017  0.00  0.00    +0.080 A 
ATOM     19  C   LIG    1       -1.192   3.146   0.029  0.00  0.00    +0.080 A 
ATOM     20  C   LIG    1        0.038   3.805   0.021  0.00  0.00    +0.080 A 
ATOM     21  N   LIG    1        1.171   3.122   0.007  0.00  0.00    -0.430 NA
BRANCH  20  22
ATOM     22  C   LIG    1        0.076   5.287   0.028  0.00  0.00    +0.590 C 
ATOM     23  N   LIG    1        1.260   5.931   0.021  0.00  0.00    -0.600 N 
ATOM     24  C   LIG    1        2.583   5.291   0.011  0.00  0.00    +0.260 C 
ATOM     25  C   LIG    1        3.637   6.418   0.029  0.00  0.00    +0.020 C 
ATOM     26  C   LIG    1        2.852   7.616   0.627  0.00  0.00    +0.040 C 
ATOM     27  C   LIG    1        1.442   7.394   0.026  0.00  0.00    +0.250 C 
ATOM     28  O   LIG    1       -0.961   5.921   0.041  0.00  0.00    -0.530 OA
ENDBRANCH  20  22
ENDBRANCH   2  16
TORSDOF 3
