REMARK  Name = ZINCrH000004nBUL.0
REMARK                            x       y       z     vdW  Elec       q    Type
REMARK                         _______ _______ _______ _____ _____    ______ ____
ROOT
ATOM      1  N   LIG    1       -2.029  -4.141   1.016  0.00  0.00    -0.730 N 
ATOM      2  H   LIG    1       -1.133  -4.413   1.270  0.00  0.00    +0.400 HD
ATOM      3  C   LIG    1       -3.059  -4.998   1.159  0.00  0.00    +0.510 C 
ATOM      4  O   LIG    1       -4.179  -4.658   0.842  0.00  0.00    -0.520 OA
ENDROOT
BRANCH   1   8
ATOM      5  N   LIG    1       -1.199  -0.722   0.010  0.00  0.00    -0.460 N 
ATOM      6  C   LIG    1       -1.940  -0.502   1.271  0.00  0.00    +0.190 C 
ATOM      7  C   LIG    1       -2.664  -1.820   1.606  0.00  0.00    +0.010 C 
ATOM      8  C   LIG    1       -2.262  -2.799   0.478  0.00  0.00    +0.240 C 
ATOM      9  C   LIG    1       -0.946  -2.184  -0.061  0.00  0.00    +0.190 C 
BRANCH   5  15
ATOM     10  C   LIG    1       -0.006   1.374   0.208  0.00  0.00    +0.110 A 
ATOM     11  C   LIG    1        1.185   2.080   0.198  0.00  0.00    -0.060 A 
ATOM     12  C   LIG    1        2.380   1.416  -0.015  0.00  0.00    +0.030 A 
ATOM     13  C   LIG    1        2.389   0.050  -0.219  0.00  0.00    +0.000 A 
ATOM     14  C   LIG    1        1.204  -0.662  -0.211  0.00  0.00    +0.000 A 
ATOM     15  C   LIG    1        0.002  -0.004   0.002  0.00  0.00    +0.070 A 
BRANCH  10  17
ATOM     16  C   LIG    1       -1.115   3.438   0.621  0.00  0.00    +0.240 C 
ATOM     17  O   LIG    1       -1.182   2.025   0.418  0.00  0.00    -0.310 OA
ENDBRANCH  10  17
ENDBRANCH   5  15
ENDBRANCH   1   8
BRANCH   3  18
ATOM     18  C   LIG    1       -2.820  -6.379   1.712  0.00  0.00    +0.140 C 
BRANCH  18  19
ATOM     19  C   LIG    1       -4.125  -7.131   1.769  0.00  0.00    -0.160 A 
ATOM     20  C   LIG    1       -4.941  -7.234   2.829  0.00  0.00    +0.240 A 
ATOM     21  N   LIG    1       -6.032  -7.996   2.506  0.00  0.00    -0.590 N 
ATOM     22  H   LIG    1       -6.760  -8.211   3.110  0.00  0.00    +0.420 HD
ATOM     23  C   LIG    1       -5.941  -8.411   1.196  0.00  0.00    +0.110 A 
ATOM     24  C   LIG    1       -6.757  -9.186   0.379  0.00  0.00    +0.010 A 
ATOM     25  C   LIG    1       -6.384  -9.431  -0.925  0.00  0.00    -0.010 A 
ATOM     26  C   LIG    1       -5.200  -8.912  -1.433  0.00  0.00    -0.010 A 
ATOM     27  C   LIG    1       -4.384  -8.149  -0.647  0.00  0.00    +0.070 A 
ATOM     28 CL   LIG    1       -7.405 -10.399  -1.944  0.00  0.00    -0.070 Cl
ATOM     29  C   LIG    1       -4.746  -7.882   0.675  0.00  0.00    -0.090 A 
ENDBRANCH  18  19
ENDBRANCH   3  18
TORSDOF 5
