REMARK  Name = ZINCpk00000KfKRe.0
REMARK                            x       y       z     vdW  Elec       q    Type
REMARK                         _______ _______ _______ _____ _____    ______ ____
ROOT
ATOM      1  N   LIG    1       -0.068   5.240   0.030  0.00  0.00    -0.670 N 
ATOM      2  H   LIG    1        0.763   5.736   0.092  0.00  0.00    +0.440 HD
ATOM      3  C   LIG    1       -1.240   5.899  -0.058  0.00  0.00    +0.510 C 
ATOM      4  O   LIG    1       -2.286   5.282  -0.051  0.00  0.00    -0.480 OA
ENDROOT
BRANCH   1  11
ATOM      5  C   LIG    1        0.994   3.159  -0.579  0.00  0.00    -0.670 A 
ATOM      6  C   LIG    1        1.009   1.778  -0.575  0.00  0.00    +0.170 A 
ATOM      7  C   LIG    1       -0.014   1.076   0.035  0.00  0.00    +0.030 A 
ATOM      8  C   LIG    1       -1.059   1.753   0.639  0.00  0.00    -0.020 A 
ATOM      9  C   LIG    1       -1.077   3.135   0.643  0.00  0.00    +0.050 A 
ATOM     10 BR   LIG    1       -2.459   0.787   1.465  0.00  0.00    -0.020 Br
ATOM     11  C   LIG    1       -0.051   3.843   0.032  0.00  0.00    +0.240 A 
BRANCH   5  13
ATOM     12  C   LIG    1        1.496   4.910  -2.740  0.00  0.00    -0.240 C 
ATOM     13  S   LIG    1        2.297   4.053  -1.357  0.00  0.00    +2.490 S 
ATOM     14  O   LIG    1        3.176   3.045  -1.837  0.00  0.00    -0.920 OA
ATOM     15  O   LIG    1        2.721   4.985  -0.371  0.00  0.00    -0.930 OA
ENDBRANCH   5  13
ENDBRANCH   1  11
BRANCH   3  16
ATOM     16  C   LIG    1       -1.254   7.389  -0.162  0.00  0.00    +0.510 C 
ATOM     17  N   LIG    1       -2.426   8.048  -0.249  0.00  0.00    -0.690 N 
ATOM     18  H   LIG    1       -3.261   7.555  -0.244  0.00  0.00    +0.410 HD
ATOM     19  O   LIG    1       -0.209   8.006  -0.168  0.00  0.00    -0.500 OA
BRANCH  17  20
ATOM     20  C   LIG    1       -2.439   9.510  -0.352  0.00  0.00    +0.250 C 
ATOM     21  C   LIG    1       -2.368  10.120   1.050  0.00  0.00    +0.020 C 
ATOM     22  C   LIG    1       -3.574   9.655   1.869  0.00  0.00    +0.010 C 
ATOM     23  C   LIG    1       -4.863  10.107   1.181  0.00  0.00    +0.020 C 
ATOM     24  C   LIG    1       -4.934   9.497  -0.221  0.00  0.00    +0.030 C 
ATOM     25  C   LIG    1       -3.728   9.961  -1.040  0.00  0.00    +0.010 C 
BRANCH  25  26
ATOM     26  C   LIG    1       -3.799   9.351  -2.442  0.00  0.00    +0.180 C 
BRANCH  26  27
ATOM     27  O   LIG    1       -4.942   9.864  -3.128  0.00  0.00    -0.570 OA
ATOM     28  H   LIG    1       -5.051   9.520  -4.025  0.00  0.00    +0.380 HD
ENDBRANCH  26  27
ENDBRANCH  25  26
ENDBRANCH  17  20
ENDBRANCH   3  16
TORSDOF 6
