REMARK  Name = ZINCrD00000l1xpJ.0
REMARK                            x       y       z     vdW  Elec       q    Type
REMARK                         _______ _______ _______ _____ _____    ______ ____
ROOT
ATOM      1  O   LIG    1       -2.789   2.047   2.561  0.00  0.00    -0.530 OA
ATOM      2  C   LIG    1       -2.163   2.592   3.454  0.00  0.00    +0.530 A 
ATOM      3  N   LIG    1       -2.815   3.119   4.507  0.00  0.00    -0.600 N 
ATOM      4  H   LIG    1       -3.782   3.061   4.549  0.00  0.00    +0.420 HD
ATOM      5  C   LIG    1       -2.134   3.739   5.514  0.00  0.00    +0.230 A 
ATOM      6  C   LIG    1       -0.757   3.837   5.481  0.00  0.00    -0.050 A 
ATOM      7  C   LIG    1       -0.049   3.299   4.412  0.00  0.00    +0.210 A 
ATOM      8  C   LIG    1       -0.748   2.666   3.384  0.00  0.00    -0.270 A 
ENDROOT
BRANCH   8   9
ATOM      9  C   LIG    1       -0.028   2.087   2.241  0.00  0.00    +0.590 C 
ATOM     10  N   LIG    1       -0.348   0.856   1.796  0.00  0.00    -0.530 N 
ATOM     11  C   LIG    1       -1.319   0.028   2.524  0.00  0.00    +0.290 C 
ATOM     12  C   LIG    1       -0.749  -1.393   2.617  0.00  0.00    +0.020 C 
ATOM     13  C   LIG    1       -0.613  -1.964   1.206  0.00  0.00    +0.100 C 
ATOM     14  C   LIG    1        0.139  -1.006   0.320  0.00  0.00    -0.100 A 
ATOM     15  C   LIG    1        0.739  -1.490  -0.832  0.00  0.00    +0.050 A 
ATOM     16  C   LIG    1        1.435  -0.636  -1.668  0.00  0.00    +0.050 A 
ATOM     17  C   LIG    1        1.536   0.712  -1.357  0.00  0.00    +0.090 A 
ATOM     18  C   LIG    1        0.940   1.199  -0.208  0.00  0.00    +0.030 A 
ATOM     19  F   LIG    1        2.215   1.546  -2.174  0.00  0.00    -0.120 F 
ATOM     20  F   LIG    1        2.017  -1.115  -2.788  0.00  0.00    -0.130 F 
ATOM     21  C   LIG    1        0.242   0.340   0.632  0.00  0.00    +0.180 A 
ATOM     22  O   LIG    1        0.856   2.720   1.695  0.00  0.00    -0.510 OA
ENDBRANCH   8   9
BRANCH   5  23
ATOM     23  C   LIG    1       -2.880   4.313   6.654  0.00  0.00    -0.040 A 
ATOM     24  C   LIG    1       -2.209   4.951   7.705  0.00  0.00    +0.010 A 
ATOM     25  C   LIG    1       -2.946   5.477   8.746  0.00  0.00    +0.280 A 
ATOM     26  N   LIG    1       -4.260   5.377   8.765  0.00  0.00    -0.470 NA
ATOM     27  C   LIG    1       -4.931   4.780   7.799  0.00  0.00    +0.280 A 
ATOM     28  C   LIG    1       -4.276   4.230   6.716  0.00  0.00    -0.020 A 
ENDBRANCH   5  23
TORSDOF 2
