REMARK  Name = ZINCrH00000No55L.0
REMARK                            x       y       z     vdW  Elec       q    Type
REMARK                         _______ _______ _______ _____ _____    ______ ____
ROOT
ATOM      1  C   LIG    1       -0.729   1.579   1.267  0.00  0.00    +0.250 C 
ATOM      2  C   LIG    1       -0.013   1.086   0.008  0.00  0.00    +0.060 C 
ENDROOT
BRANCH   1   4
ATOM      3  C   LIG    1       -2.365  -0.156   1.766  0.00  0.00    +0.550 C 
ATOM      4  N   LIG    1       -2.103   1.072   1.277  0.00  0.00    -0.710 N 
ATOM      5  H   LIG    1       -2.825   1.620   0.932  0.00  0.00    +0.410 HD
ATOM      6  O   LIG    1       -1.459  -0.844   2.200  0.00  0.00    -0.550 OA
BRANCH   3   8
ATOM      7  C   LIG    1       -3.999  -1.893   2.267  0.00  0.00    +0.140 C 
ATOM      8  C   LIG    1       -3.737  -0.662   1.777  0.00  0.00    -0.100 C 
BRANCH   7  12
ATOM      9  C   LIG    1       -7.978  -3.361   2.297  0.00  0.00    +0.140 A 
ATOM     10  C   LIG    1       -6.945  -4.149   2.792  0.00  0.00    -0.020 A 
ATOM     11  C   LIG    1       -5.652  -3.677   2.785  0.00  0.00    +0.090 A 
ATOM     12  C   LIG    1       -5.378  -2.401   2.277  0.00  0.00    -0.120 A 
ATOM     13  C   LIG    1       -6.422  -1.610   1.785  0.00  0.00    +0.070 A 
ATOM     14  C   LIG    1       -7.711  -2.093   1.792  0.00  0.00    -0.080 A 
BRANCH   9  16
ATOM     15  C   LIG    1      -10.265  -2.969   1.784  0.00  0.00    +0.240 C 
ATOM     16  O   LIG    1       -9.251  -3.830   2.307  0.00  0.00    -0.310 OA
ENDBRANCH   9  16
ENDBRANCH   7  12
ENDBRANCH   3   8
ENDBRANCH   1   4
BRANCH   1  17
ATOM     17  C   LIG    1       -0.749   3.086   1.275  0.00  0.00    +0.520 C 
ATOM     18  N   LIG    1        0.409   3.776   1.268  0.00  0.00    -0.720 N 
ATOM     19  H   LIG    1        1.255   3.302   1.257  0.00  0.00    +0.400 HD
ATOM     20  O   LIG    1       -1.808   3.678   1.288  0.00  0.00    -0.530 OA
BRANCH  18  21
ATOM     21  C   LIG    1        0.389   5.241   1.276  0.00  0.00    +0.310 C 
ATOM     22  C   LIG    1        0.242   5.757  -0.157  0.00  0.00    +0.040 C 
BRANCH  21  23
ATOM     23  C   LIG    1        1.675   5.757   1.867  0.00  0.00    -0.120 A 
ATOM     24  C   LIG    1        1.770   6.957   2.441  0.00  0.00    -0.170 A 
ATOM     25  S   LIG    1        3.414   7.210   3.013  0.00  0.00    +0.110 S 
ATOM     26  C   LIG    1        3.897   5.628   2.415  0.00  0.00    -0.170 A 
ATOM     27  C   LIG    1        5.281   5.043   2.523  0.00  0.00    +0.140 C 
ATOM     28  C   LIG    1        0.640   7.945   2.580  0.00  0.00    +0.140 C 
ATOM     29  C   LIG    1        2.849   5.024   1.850  0.00  0.00    +0.000 A 
ENDBRANCH  21  23
ENDBRANCH  18  21
ENDBRANCH   1  17
TORSDOF 7
