REMARK  Name = ZINCrg00000yV57z.0
REMARK                            x       y       z     vdW  Elec       q    Type
REMARK                         _______ _______ _______ _____ _____    ______ ____
ROOT
ATOM      1  C   LIG    1        2.487   1.111  -0.015  0.00  0.00    +0.570 C 
ATOM      2  N   LIG    1        3.626   1.823  -0.123  0.00  0.00    -0.590 N 
ATOM      3  C   LIG    1        3.594   3.292  -0.124  0.00  0.00    +0.300 C 
ATOM      4  C   LIG    1        4.551   3.801   0.964  0.00  0.00    +0.000 C 
ATOM      5  C   LIG    1        5.941   3.204   0.734  0.00  0.00    +0.130 C 
ATOM      6  C   LIG    1        6.907   3.737   1.795  0.00  0.00    +0.050 C 
ATOM      7  C   LIG    1        6.855   5.273   1.809  0.00  0.00    +0.270 C 
ATOM      8  C   LIG    1        6.952   5.743   0.377  0.00  0.00    -0.010 A 
ATOM      9  N   LIG    1        7.237   6.927  -0.077  0.00  0.00    -0.260 NA
ATOM     10  N   LIG    1        7.210   6.878  -1.479  0.00  0.00    -0.370 N 
ATOM     11  C   LIG    1        6.894   5.605  -1.848  0.00  0.00    +0.210 A 
ATOM     12  C   LIG    1        7.476   7.997  -2.386  0.00  0.00    +0.370 C 
ATOM     13  C   LIG    1        6.729   4.887  -0.721  0.00  0.00    -0.020 A 
ATOM     14  C   LIG    1        5.867   1.679   0.833  0.00  0.00    +0.060 C 
ATOM     15  O   LIG    1        6.402   3.570  -0.574  0.00  0.00    -0.280 OA
ATOM     16  C   LIG    1        4.924   1.145  -0.250  0.00  0.00    +0.290 C 
ATOM     17  O   LIG    1        2.536  -0.096   0.116  0.00  0.00    -0.520 OA
ENDROOT
BRANCH   1  20
ATOM     18  C   LIG    1       -0.071   3.709  -0.410  0.00  0.00    +0.560 A 
ATOM     19  N   LIG    1        1.098   3.091  -0.374  0.00  0.00    -0.550 NA
ATOM     20  C   LIG    1        1.174   1.801  -0.055  0.00  0.00    +0.180 A 
ATOM     21  C   LIG    1        0.000   1.108   0.241  0.00  0.00    -0.070 A 
ATOM     22  C   LIG    1       -1.205   1.794   0.185  0.00  0.00    +0.230 A 
ATOM     23  C   LIG    1       -2.500   1.087   0.491  0.00  0.00    +0.160 C 
ATOM     24  N   LIG    1       -1.203   3.076  -0.134  0.00  0.00    -0.550 NA
BRANCH  18  26
ATOM     25  C   LIG    1       -1.398   5.754  -0.791  0.00  0.00    +0.300 C 
ATOM     26  N   LIG    1       -0.114   5.051  -0.745  0.00  0.00    -0.700 N 
ATOM     27  H   LIG    1        0.707   5.526  -0.950  0.00  0.00    +0.420 HD
ENDBRANCH  18  26
ENDBRANCH   1  20
BRANCH   7  28
ATOM     28  O   LIG    1        7.953   5.789   2.565  0.00  0.00    -0.550 OA
ATOM     29  H   LIG    1        7.978   6.754   2.613  0.00  0.00    +0.390 HD
ENDBRANCH   7  28
TORSDOF 3
