REMARK  Name = ZINCpe000000UEWV.0
REMARK                            x       y       z     vdW  Elec       q    Type
REMARK                         _______ _______ _______ _____ _____    ______ ____
ROOT
ATOM      1  C   LIG    1       -3.701  -0.486   3.166  0.00  0.00    +0.110 C 
ATOM      2  C   LIG    1       -5.125  -0.941   2.841  0.00  0.00    +0.090 C 
ENDROOT
BRANCH   1   5
ATOM      3  C   LIG    1       -4.385   1.949   1.882  0.00  0.00    +0.290 C 
ATOM      4  N   LIG    1       -3.380   1.074   1.273  0.00  0.00    -0.600 N 
ATOM      5  C   LIG    1       -3.008  -0.062   1.896  0.00  0.00    +0.500 C 
ATOM      6  O   LIG    1       -2.116  -0.742   1.436  0.00  0.00    -0.530 OA
BRANCH   4   7
ATOM      7  C   LIG    1       -2.779   1.433  -0.014  0.00  0.00    +0.360 C 
BRANCH   7   8
ATOM      8  C   LIG    1       -1.545   2.265   0.223  0.00  0.00    -0.200 A 
ATOM      9  C   LIG    1       -1.489   3.605   0.323  0.00  0.00    +0.170 A 
ATOM     10  O   LIG    1       -0.210   3.962   0.527  0.00  0.00    -0.180 OA
ATOM     11  C   LIG    1        0.561   2.864   0.566  0.00  0.00    +0.150 A 
ATOM     12  C   LIG    1       -0.224   1.787   0.386  0.00  0.00    -0.040 A 
ENDBRANCH   7   8
ENDBRANCH   4   7
ENDBRANCH   1   5
BRANCH   1  13
ATOM     13  O   LIG    1       -3.748   0.616   4.074  0.00  0.00    -0.530 OA
ATOM     14  H   LIG    1       -2.878   0.958   4.324  0.00  0.00    +0.390 HD
ENDBRANCH   1  13
BRANCH   1  15
ATOM     15  C   LIG    1       -2.929  -1.642   3.806  0.00  0.00    +0.330 C 
BRANCH  15  16
ATOM     16  N   LIG    1       -3.666  -2.133   4.974  0.00  0.00    -0.570 N 
ATOM     17  C   LIG    1       -4.586  -3.104   4.929  0.00  0.00    +0.700 C 
ATOM     18  N   LIG    1       -5.114  -3.367   6.142  0.00  0.00    -0.720 N 
ATOM     19  H   LIG    1       -5.794  -4.027   6.350  0.00  0.00    +0.440 HD
ATOM     20  C   LIG    1       -4.456  -2.457   7.081  0.00  0.00    +0.120 C 
ATOM     21  C   LIG    1       -3.707  -3.232   8.172  0.00  0.00    +0.050 C 
ATOM     22  C   LIG    1       -3.866  -2.349   9.437  0.00  0.00    +0.040 C 
ATOM     23  C   LIG    1       -5.308  -1.799   9.293  0.00  0.00    +0.030 C 
ATOM     24  C   LIG    1       -5.469  -1.545   7.778  0.00  0.00    +0.050 C 
ATOM     25  O   LIG    1       -4.909  -3.684   3.911  0.00  0.00    -0.530 OA
ATOM     26  C   LIG    1       -3.496  -1.665   6.229  0.00  0.00    +0.540 C 
ATOM     27  O   LIG    1       -2.737  -0.794   6.594  0.00  0.00    -0.450 OA
ENDBRANCH  15  16
ENDBRANCH   1  15
TORSDOF 6
