REMARK  Name = ZINCpk00000KbpIa.0
REMARK                            x       y       z     vdW  Elec       q    Type
REMARK                         _______ _______ _______ _____ _____    ______ ____
ROOT
ATOM      1  O   LIG    1        0.002  -0.004   0.002  0.00  0.00    -0.510 OA
ATOM      2  C   LIG    1       -0.014   1.209   0.009  0.00  0.00    +0.510 C 
ATOM      3  N   LIG    1       -1.191   1.867   0.018  0.00  0.00    -0.600 N 
ATOM      4  C   LIG    1       -1.227   3.335   0.032  0.00  0.00    +0.280 C 
ATOM      5  C   LIG    1       -2.093   3.800   1.201  0.00  0.00    +0.040 C 
ATOM      6  C   LIG    1       -3.470   3.138   1.108  0.00  0.00    +0.030 C 
ATOM      7  C   LIG    1       -3.314   1.618   1.194  0.00  0.00    +0.230 C 
ATOM      8  C   LIG    1       -2.461   1.129   0.020  0.00  0.00    +0.290 C 
ENDROOT
BRANCH   7   9
ATOM      9  N   LIG    1       -4.634   0.987   1.137  0.00  0.00    -0.460 N 
ATOM     10  C   LIG    1       -5.194   0.185   2.095  0.00  0.00    +0.120 A 
ATOM     11  C   LIG    1       -6.408  -0.177   1.640  0.00  0.00    +0.140 A 
ATOM     12  N   LIG    1       -6.585   0.387   0.436  0.00  0.00    -0.490 NA
ATOM     13  C   LIG    1       -5.529   1.090   0.131  0.00  0.00    +0.380 A 
ENDBRANCH   7   9
BRANCH   2  14
ATOM     14  C   LIG    1        1.280   1.980   0.001  0.00  0.00    +0.410 C 
BRANCH  14  15
ATOM     15  N   LIG    1        2.407   1.043  -0.015  0.00  0.00    -0.130 N 
ATOM     16  N   LIG    1        2.993   0.566   1.027  0.00  0.00    -0.050 NA
ATOM     17  N   LIG    1        3.937  -0.228   0.649  0.00  0.00    -0.270 NA
ATOM     18  C   LIG    1        3.940  -0.234  -0.691  0.00  0.00    +0.220 A 
ATOM     19  N   LIG    1        2.970   0.572  -1.075  0.00  0.00    -0.290 NA
BRANCH  18  20
ATOM     20  C   LIG    1        4.857  -0.999  -1.573  0.00  0.00    -0.020 A 
ATOM     21  C   LIG    1        4.734  -0.908  -2.957  0.00  0.00    +0.050 A 
ATOM     22  C   LIG    1        5.592  -1.618  -3.772  0.00  0.00    +0.010 A 
ATOM     23  C   LIG    1        6.567  -2.427  -3.216  0.00  0.00    +0.030 A 
ATOM     24  C   LIG    1        6.690  -2.525  -1.842  0.00  0.00    +0.010 A 
ATOM     25  C   LIG    1        5.840  -1.816  -1.018  0.00  0.00    +0.060 A 
ENDBRANCH  18  20
ENDBRANCH  14  15
ENDBRANCH   2  14
TORSDOF 4
