REMARK  Name = ZINCqH0000033Mwx.0
REMARK                            x       y       z     vdW  Elec       q    Type
REMARK                         _______ _______ _______ _____ _____    ______ ____
ROOT
ATOM      1  N   LIG    1       -1.508   5.431   7.733  0.00  0.00    -0.570 N 
ATOM      2  C   LIG    1       -2.142   4.146   7.416  0.00  0.00    +0.300 C 
ATOM      3  C   LIG    1       -1.206   3.466   6.392  0.00  0.00    +0.140 C 
ATOM      4  C   LIG    1        0.154   4.123   6.723  0.00  0.00    +0.090 C 
ATOM      5  C   LIG    1       -0.217   5.444   7.359  0.00  0.00    +0.530 C 
ATOM      6  O   LIG    1        0.540   6.380   7.510  0.00  0.00    -0.510 OA
ENDROOT
BRANCH   1  12
ATOM      7  C   LIG    1       -2.810   7.466   7.567  0.00  0.00    +0.140 A 
ATOM      8  C   LIG    1       -3.457   8.527   8.178  0.00  0.00    -0.080 A 
ATOM      9  C   LIG    1       -3.463   8.633   9.557  0.00  0.00    +0.060 A 
ATOM     10  C   LIG    1       -2.824   7.681  10.330  0.00  0.00    -0.020 A 
ATOM     11  C   LIG    1       -2.180   6.616   9.728  0.00  0.00    +0.060 A 
ATOM     12  C   LIG    1       -2.165   6.507   8.345  0.00  0.00    +0.100 A 
BRANCH   7  13
ATOM     13  O   LIG    1       -2.803   7.361   6.212  0.00  0.00    -0.300 OA
BRANCH  13  15
ATOM     14  C   LIG    1       -3.369   8.096   3.980  0.00  0.00    +0.060 C 
ATOM     15  C   LIG    1       -3.484   8.381   5.479  0.00  0.00    +0.170 C 
ENDBRANCH  13  15
ENDBRANCH   7  13
ENDBRANCH   1  12
BRANCH   3  16
ATOM     16  C   LIG    1       -1.630   3.785   4.981  0.00  0.00    +0.180 A 
ATOM     17  N   LIG    1       -1.995   2.924   4.061  0.00  0.00    -0.470 NA
ATOM     18  C   LIG    1       -2.279   3.658   2.971  0.00  0.00    +0.170 A 
ATOM     19  N   LIG    1       -2.083   4.905   3.279  0.00  0.00    -0.380 NA
ATOM     20  O   LIG    1       -1.710   5.000   4.429  0.00  0.00    +0.100 OA
BRANCH  18  21
ATOM     21  C   LIG    1       -2.744   3.131   1.638  0.00  0.00    +0.170 C 
BRANCH  21  22
ATOM     22  C   LIG    1       -1.531   2.845   0.750  0.00  0.00    -0.010 C 
ATOM     23  C   LIG    1       -0.763   1.597   1.255  0.00  0.00    +0.020 C 
ATOM     24  C   LIG    1       -0.013   1.086   0.008  0.00  0.00    -0.010 C 
ATOM     25  C   LIG    1       -0.784   1.609  -1.216  0.00  0.00    +0.000 C 
ATOM     26  C   LIG    1       -1.978   2.421  -0.670  0.00  0.00    +0.020 C 
ENDBRANCH  21  22
ENDBRANCH  18  21
ENDBRANCH   3  16
TORSDOF 6
