REMARK  Name = ZINCvU000000058X.0
REMARK                            x       y       z     vdW  Elec       q    Type
REMARK                         _______ _______ _______ _____ _____    ______ ____
ROOT
ATOM      1  C   LIG    1       -3.039  -1.207   4.477  0.00  0.00    +0.450 C 
ATOM      2  O   LIG    1       -2.384  -2.219   4.343  0.00  0.00    -0.460 OA
ENDROOT
BRANCH   1   6
ATOM      3  C   LIG    1       -4.303   2.854   1.672  0.00  0.00    +0.120 C 
ATOM      4  C   LIG    1       -3.720   1.547   2.144  0.00  0.00    +0.010 A 
ATOM      5  C   LIG    1       -3.899   1.009   3.362  0.00  0.00    +0.000 A 
ATOM      6  C   LIG    1       -3.151  -0.255   3.370  0.00  0.00    -0.260 A 
ATOM      7  C   LIG    1       -2.580  -0.365   2.116  0.00  0.00    +0.120 A 
ATOM      8  C   LIG    1       -1.717  -1.502   1.634  0.00  0.00    +0.150 C 
ATOM      9  N   LIG    1       -2.926   0.721   1.402  0.00  0.00    -0.430 N 
BRANCH   9  10
ATOM     10  C   LIG    1       -2.513   0.978   0.020  0.00  0.00    +0.350 C 
BRANCH  10  11
ATOM     11  C   LIG    1       -1.219   1.750   0.017  0.00  0.00    -0.130 A 
ATOM     12  C   LIG    1       -0.013   1.076   0.008  0.00  0.00    +0.060 A 
ATOM     13  C   LIG    1        1.175   1.783   0.000  0.00  0.00    -0.010 A 
ATOM     14  C   LIG    1        1.156   3.167   0.008  0.00  0.00    +0.110 A 
ATOM     15  C   LIG    1       -0.053   3.842   0.022  0.00  0.00    -0.010 A 
ATOM     16  F   LIG    1        2.316   3.859  -0.000  0.00  0.00    -0.140 F 
ATOM     17  C   LIG    1       -1.240   3.133   0.030  0.00  0.00    +0.070 A 
ENDBRANCH  10  11
ENDBRANCH   9  10
ENDBRANCH   1   6
BRANCH   1  18
ATOM     18  C   LIG    1       -3.738  -0.929   5.783  0.00  0.00    +0.100 C 
BRANCH  18  19
ATOM     19  S   LIG    1       -3.410  -2.281   6.942  0.00  0.00    +0.050 S 
BRANCH  19  20
ATOM     20  C   LIG    1       -4.318  -1.712   8.340  0.00  0.00    +0.150 A 
ATOM     21  N   LIG    1       -5.007  -0.597   8.423  0.00  0.00    -0.290 NA
ATOM     22  N   LIG    1       -5.545  -0.501   9.587  0.00  0.00    -0.270 NA
ATOM     23  C   LIG    1       -5.228  -1.536  10.312  0.00  0.00    +0.190 A 
ATOM     24  N   LIG    1       -4.435  -2.345   9.545  0.00  0.00    -0.460 N 
ATOM     25  C   LIG    1       -3.836  -3.624   9.934  0.00  0.00    +0.350 C 
BRANCH  23  26
ATOM     26  C   LIG    1       -5.655  -1.795  11.734  0.00  0.00    +0.260 C 
BRANCH  26  27
ATOM     27  C   LIG    1       -4.644  -1.197  12.679  0.00  0.00    -0.190 A 
ATOM     28  C   LIG    1       -4.682   0.046  13.160  0.00  0.00    +0.040 A 
ATOM     29  C   LIG    1       -3.645   0.372  14.016  0.00  0.00    +0.010 A 
ATOM     30  C   LIG    1       -2.759  -0.604  14.224  0.00  0.00    -0.030 A 
ATOM     31  S   LIG    1       -3.230  -2.031  13.310  0.00  0.00    +0.090 S 
ENDBRANCH  26  27
ENDBRANCH  23  26
ENDBRANCH  19  20
ENDBRANCH  18  19
ENDBRANCH   1  18
TORSDOF 8
