REMARK  Name = ZINCqH0000037oAE.0
REMARK                            x       y       z     vdW  Elec       q    Type
REMARK                         _______ _______ _______ _____ _____    ______ ____
ROOT
ATOM      1  C   LIG    1       -0.878  13.550  -0.433  0.00  0.00    +0.030 C 
ATOM      2  C   LIG    1       -1.355  12.140  -0.076  0.00  0.00    -0.010 C 
ATOM      3  C   LIG    1       -2.651  11.829  -0.830  0.00  0.00    +0.030 C 
ATOM      4  C   LIG    1       -3.254  10.535  -0.280  0.00  0.00    +0.100 C 
ATOM      5  C   LIG    1       -2.177   9.462  -0.262  0.00  0.00    -0.050 A 
ATOM      6  C   LIG    1       -0.868   9.727  -0.350  0.00  0.00    -0.240 A 
ATOM      7  S   LIG    1        0.074   8.246  -0.289  0.00  0.00    +0.290 S 
ATOM      8  C   LIG    1       -1.315   7.271  -0.154  0.00  0.00    +0.040 A 
ATOM      9  C   LIG    1       -2.447   8.040  -0.148  0.00  0.00    -0.220 A 
ATOM     10  C   LIG    1       -0.285  11.121  -0.479  0.00  0.00    +0.120 C 
ENDROOT
BRANCH   8  11
ATOM     11  N   LIG    1       -1.302   5.890  -0.058  0.00  0.00    -0.610 N 
ATOM     12  H   LIG    1       -2.136   5.396  -0.056  0.00  0.00    +0.430 HD
ATOM     13  C   LIG    1       -0.129   5.232   0.034  0.00  0.00    +0.570 C 
ATOM     14  O   LIG    1        0.911   5.855   0.128  0.00  0.00    -0.490 OA
BRANCH  13  15
ATOM     15  C   LIG    1       -0.107   3.752   0.020  0.00  0.00    +0.020 A 
ATOM     16  C   LIG    1        1.110   3.071   0.009  0.00  0.00    +0.310 A 
ATOM     17  N   LIG    1        1.124   1.750  -0.004  0.00  0.00    -0.440 NA
ATOM     18  C   LIG    1       -0.012   1.075  -0.007  0.00  0.00    +0.270 A 
ATOM     19  C   LIG    1       -1.224   1.750  -0.001  0.00  0.00    +0.240 A 
ATOM     20  N   LIG    1       -1.248   3.068   0.018  0.00  0.00    -0.410 NA
ENDBRANCH  13  15
ENDBRANCH   8  11
BRANCH   9  21
ATOM     21  C   LIG    1       -3.800   7.483  -0.038  0.00  0.00    +0.510 C 
ATOM     22  O   LIG    1       -4.452   7.263  -1.043  0.00  0.00    -0.420 OA
BRANCH  21  23
ATOM     23  C   LIG    1       -4.368   7.192   1.284  0.00  0.00    -0.110 A 
ATOM     24  C   LIG    1       -5.568   6.586   1.526  0.00  0.00    +0.040 A 
ATOM     25  C   LIG    1       -5.707   6.510   2.921  0.00  0.00    -0.070 A 
ATOM     26  C   LIG    1       -4.601   7.065   3.462  0.00  0.00    +0.210 A 
ATOM     27  O   LIG    1       -3.793   7.469   2.472  0.00  0.00    -0.150 OA
ENDBRANCH  21  23
ENDBRANCH   9  21
TORSDOF 4
