REMARK  Name = ZINCqH0000008NOR.0
REMARK                            x       y       z     vdW  Elec       q    Type
REMARK                         _______ _______ _______ _____ _____    ______ ____
ROOT
ATOM      1  C   LIG    1       -1.187   1.624   0.017  0.00  0.00    +0.560 C 
ATOM      2  N   LIG    1       -0.011   0.966   0.007  0.00  0.00    -0.730 N 
ATOM      3  H   LIG    1        0.002  -0.004   0.002  0.00  0.00    +0.400 HD
ATOM      4  O   LIG    1       -1.204   2.840   0.023  0.00  0.00    -0.520 OA
ENDROOT
BRANCH   1  12
ATOM      5  C   LIG    1       -5.312   3.310   2.006  0.00  0.00    +0.040 C 
ATOM      6  C   LIG    1       -5.281   3.116   0.488  0.00  0.00    +0.190 C 
ATOM      7  C   LIG    1       -6.005   1.810   0.072  0.00  0.00    +0.090 C 
ATOM      8  C   LIG    1       -4.860   0.817   0.038  0.00  0.00    -0.180 A 
ATOM      9  C   LIG    1       -4.831  -0.560   0.026  0.00  0.00    +0.090 A 
ATOM     10  C   LIG    1       -3.619  -1.234   0.012  0.00  0.00    -0.020 A 
ATOM     11  C   LIG    1       -2.437  -0.526   0.011  0.00  0.00    +0.080 A 
ATOM     12  C   LIG    1       -2.455   0.869   0.018  0.00  0.00    -0.160 A 
ATOM     13  C   LIG    1       -3.683   1.554   0.034  0.00  0.00    +0.170 A 
ATOM     14  O   LIG    1       -3.937   2.889   0.031  0.00  0.00    -0.270 OA
ENDBRANCH   1  12
BRANCH   2  15
ATOM     15  C   LIG    1        1.248   1.716  -0.001  0.00  0.00    +0.270 C 
BRANCH  15  16
ATOM     16  C   LIG    1        2.424   0.737  -0.017  0.00  0.00    +0.100 C 
BRANCH  16  17
ATOM     17  C   LIG    1        3.719   1.508  -0.025  0.00  0.00    -0.150 A 
ATOM     18  C   LIG    1        4.445   1.837  -1.105  0.00  0.00    +0.250 A 
ATOM     19  N   LIG    1        5.557   2.540  -0.722  0.00  0.00    -0.590 N 
ATOM     20  H   LIG    1        6.232   2.887  -1.326  0.00  0.00    +0.420 HD
ATOM     21  C   LIG    1        5.576   2.676   0.648  0.00  0.00    +0.150 A 
ATOM     22  C   LIG    1        6.459   3.282   1.536  0.00  0.00    -0.040 A 
ATOM     23  C   LIG    1        6.202   3.252   2.891  0.00  0.00    +0.150 A 
ATOM     24  C   LIG    1        5.066   2.620   3.383  0.00  0.00    -0.070 A 
ATOM     25  C   LIG    1        4.178   2.014   2.520  0.00  0.00    +0.180 A 
ATOM     26  F   LIG    1        3.075   1.400   3.001  0.00  0.00    -0.120 F 
ATOM     27  F   LIG    1        7.064   3.842   3.748  0.00  0.00    -0.130 F 
ATOM     28  C   LIG    1        4.426   2.036   1.144  0.00  0.00    -0.150 A 
ENDBRANCH  16  17
ENDBRANCH  15  16
ENDBRANCH   2  15
TORSDOF 4
