REMARK  Name = ZINCrH000004oWV8.0
REMARK                            x       y       z     vdW  Elec       q    Type
REMARK                         _______ _______ _______ _____ _____    ______ ____
ROOT
ATOM      1  C   LIG    1        3.690  -1.901  -0.536  0.00  0.00    +0.490 C 
ATOM      2  N   LIG    1        3.623  -0.652  -0.036  0.00  0.00    -0.660 N 
ATOM      3  H   LIG    1        4.422  -0.224   0.310  0.00  0.00    +0.420 HD
ATOM      4  O   LIG    1        2.714  -2.400  -1.055  0.00  0.00    -0.500 OA
ENDROOT
BRANCH   1   6
ATOM      5  C   LIG    1        5.875  -2.315  -1.634  0.00  0.00    +0.120 C 
ATOM      6  C   LIG    1        4.978  -2.679  -0.450  0.00  0.00    +0.120 C 
ATOM      7  C   LIG    1        4.672  -4.177  -0.482  0.00  0.00    +0.130 C 
ATOM      8  C   LIG    1        4.002  -4.602   0.798  0.00  0.00    -0.030 A 
ATOM      9  C   LIG    1        3.254  -5.762   0.831  0.00  0.00    +0.020 A 
ATOM     10  C   LIG    1        2.639  -6.158   2.005  0.00  0.00    +0.050 A 
ATOM     11  C   LIG    1        2.767  -5.400   3.155  0.00  0.00    +0.010 A 
ATOM     12  C   LIG    1        3.512  -4.237   3.137  0.00  0.00    +0.090 A 
ATOM     13  C   LIG    1        4.131  -3.834   1.956  0.00  0.00    -0.180 A 
ATOM     14  C   LIG    1        4.927  -2.585   1.915  0.00  0.00    +0.520 C 
ATOM     15  O   LIG    1        4.923  -1.801   2.843  0.00  0.00    -0.440 OA
ATOM     16  O   LIG    1        5.660  -2.354   0.796  0.00  0.00    -0.350 OA
ENDBRANCH   1   6
BRANCH   2  17
ATOM     17  C   LIG    1        2.399   0.030  -0.015  0.00  0.00    +0.110 A 
ATOM     18  C   LIG    1        1.216  -0.672   0.172  0.00  0.00    +0.040 A 
ATOM     19  C   LIG    1        0.010  -0.001   0.192  0.00  0.00    +0.010 A 
ATOM     20  C   LIG    1       -0.020   1.378   0.026  0.00  0.00    +0.100 A 
ATOM     21  C   LIG    1        1.163   2.081  -0.161  0.00  0.00    -0.020 A 
ATOM     22  C   LIG    1        2.369   1.409  -0.181  0.00  0.00    +0.020 A 
BRANCH  20  23
ATOM     23  N   LIG    1       -1.243   2.058   0.041  0.00  0.00    -0.490 N 
ATOM     24  C   LIG    1       -2.162   1.510  -0.964  0.00  0.00    +0.180 C 
ATOM     25  C   LIG    1       -3.532   2.176  -0.821  0.00  0.00    +0.020 C 
ATOM     26  C   LIG    1       -3.381   3.688  -1.012  0.00  0.00    +0.010 C 
ATOM     27  C   LIG    1       -2.381   4.227   0.015  0.00  0.00    +0.020 C 
ATOM     28  C   LIG    1       -1.045   3.501  -0.151  0.00  0.00    +0.180 C 
ENDBRANCH  20  23
ENDBRANCH   2  17
TORSDOF 3
