REMARK  Name = ZINCvU0000000IFT.0
REMARK                            x       y       z     vdW  Elec       q    Type
REMARK                         _______ _______ _______ _____ _____    ______ ____
ROOT
ATOM      1  N   LIG    1        0.010  -0.203  -0.157  0.00  0.00    -0.200 NA
ATOM      2  C   LIG    1        0.035   1.082   0.055  0.00  0.00    +0.220 C 
ENDROOT
BRANCH   2   3
ATOM      3  C   LIG    1       -1.216   1.827   0.179  0.00  0.00    +0.010 C 
ATOM      4  C   LIG    1       -1.152   3.152   0.286  0.00  0.00    -0.120 C 
ATOM      5  C   LIG    1       -2.359   4.034   0.422  0.00  0.00    +0.100 C 
ATOM      6  C   LIG    1       -3.619   3.271   0.009  0.00  0.00    +0.020 C 
ATOM      7  C   LIG    1       -3.635   1.923   0.740  0.00  0.00    +0.020 C 
ATOM      8  C   LIG    1       -2.504   1.055   0.185  0.00  0.00    +0.100 C 
BRANCH   4   9
ATOM      9  S   LIG    1        0.437   3.914   0.260  0.00  0.00    +0.080 S 
BRANCH   9  10
ATOM     10  C   LIG    1        0.497   4.552   1.901  0.00  0.00    +0.070 A 
ATOM     11  N   LIG    1       -0.396   4.339   2.807  0.00  0.00    -0.450 NA
ATOM     12  C   LIG    1       -0.207   4.894   4.020  0.00  0.00    +0.090 A 
ATOM     13  C   LIG    1       -1.024   4.808   5.167  0.00  0.00    +0.080 A 
ATOM     14  C   LIG    1       -0.668   5.453   6.325  0.00  0.00    +0.040 A 
ATOM     15  C   LIG    1        0.501   6.198   6.387  0.00  0.00    +0.040 A 
ATOM     16  C   LIG    1        1.315   6.295   5.280  0.00  0.00    +0.060 A 
ATOM     17  C   LIG    1        0.969   5.647   4.097  0.00  0.00    -0.170 A 
ATOM     18  S   LIG    1        1.779   5.575   2.534  0.00  0.00    +0.100 S 
ENDBRANCH   9  10
ENDBRANCH   4   9
ENDBRANCH   2   3
BRANCH   1  21
ATOM     19  O   LIG    1        0.115  -2.804  -0.707  0.00  0.00    -0.460 OA
ATOM     20  C   LIG    1        1.173  -2.209  -0.694  0.00  0.00    +0.540 C 
ATOM     21  N   LIG    1        1.205  -0.900  -0.375  0.00  0.00    -0.580 N 
ATOM     22  H   LIG    1        2.056  -0.441  -0.296  0.00  0.00    +0.390 HD
BRANCH  20  23
ATOM     23  C   LIG    1        2.450  -2.934  -1.033  0.00  0.00    +0.160 C 
ATOM     24  C   LIG    1        3.038  -2.365  -2.331  0.00  0.00    +0.250 C 
ATOM     25  O   LIG    1        4.241  -3.083  -2.630  0.00  0.00    -0.300 OA
ATOM     26  C   LIG    1        4.183  -4.439  -2.533  0.00  0.00    +0.040 A 
ATOM     27  C   LIG    1        5.165  -5.207  -3.139  0.00  0.00    +0.030 A 
ATOM     28  C   LIG    1        5.122  -6.586  -3.046  0.00  0.00    +0.030 A 
ATOM     29  C   LIG    1        4.101  -7.202  -2.348  0.00  0.00    +0.030 A 
ATOM     30  C   LIG    1        3.118  -6.442  -1.742  0.00  0.00    +0.030 A 
ATOM     31  C   LIG    1        3.155  -5.059  -1.833  0.00  0.00    +0.050 A 
ATOM     32  O   LIG    1        2.177  -4.325  -1.235  0.00  0.00    -0.280 OA
ENDBRANCH  20  23
ENDBRANCH   1  21
TORSDOF 5
