REMARK  Name = ZINCbw0000000Heh.0
REMARK                            x       y       z     vdW  Elec       q    Type
REMARK                         _______ _______ _______ _____ _____    ______ ____
ROOT
ATOM      1  C   LIG    1       -3.645   2.998   0.037  0.00  0.00    -0.140 A 
ATOM      2  C   LIG    1       -3.628   1.616   0.029  0.00  0.00    +0.050 A 
ATOM      3  C   LIG    1       -2.424   0.938   0.019  0.00  0.00    -0.080 A 
ATOM      4  C   LIG    1       -1.230   1.648   0.017  0.00  0.00    +0.210 A 
ATOM      5  C   LIG    1       -1.251   3.037   0.030  0.00  0.00    -0.080 A 
ATOM      6  C   LIG    1       -2.458   3.708   0.035  0.00  0.00    +0.050 A 
ENDROOT
BRANCH   4   7
ATOM      7  N   LIG    1       -0.011   0.966   0.007  0.00  0.00    -0.880 N 
ATOM      8  H   LIG    1        0.822   1.462   0.002  0.00  0.00    +0.400 HD
ATOM      9  H   LIG    1        0.002  -0.004   0.002  0.00  0.00    +0.400 HD
ENDBRANCH   4   7
BRANCH   1  10
ATOM     10  C   LIG    1       -4.960   3.734   0.048  0.00  0.00    +0.070 C 
BRANCH  10  11
ATOM     11  C   LIG    1       -5.397   3.975   1.494  0.00  0.00    +0.010 C 
BRANCH  11  13
ATOM     12  C   LIG    1       -7.170   4.962   2.952  0.00  0.00    +0.000 C 
ATOM     13  C   LIG    1       -6.733   4.722   1.506  0.00  0.00    -0.010 C 
ENDBRANCH  11  13
ENDBRANCH  10  11
ENDBRANCH   1  10
TORSDOF 4
