REMARK  Name = ZINCpe00000VVGDu.0
REMARK                            x       y       z     vdW  Elec       q    Type
REMARK                         _______ _______ _______ _____ _____    ______ ____
ROOT
ATOM      1  N   LIG    1       -1.887   2.184  -3.985  0.00  0.00    -0.720 N 
ATOM      2  H   LIG    1       -2.310   1.372  -4.305  0.00  0.00    +0.390 HD
ATOM      3  C   LIG    1       -1.117   2.151  -2.878  0.00  0.00    +0.730 C 
ATOM      4  N   LIG    1       -0.936   0.990  -2.218  0.00  0.00    -0.630 N 
ATOM      5  C   LIG    1       -1.593  -0.291  -2.536  0.00  0.00    +0.240 C 
ATOM      6  C   LIG    1       -0.645  -1.375  -1.963  0.00  0.00    +0.020 C 
ATOM      7  C   LIG    1       -0.145  -0.696  -0.661  0.00  0.00    +0.030 C 
ATOM      8  C   LIG    1       -0.051   0.792  -1.061  0.00  0.00    +0.260 C 
ATOM      9  O   LIG    1       -0.587   3.168  -2.477  0.00  0.00    -0.590 OA
ENDROOT
BRANCH   8  10
ATOM     10  C   LIG    1       -0.508   1.675   0.102  0.00  0.00    -0.010 C 
ATOM     11  C   LIG    1       -1.865   1.185   0.612  0.00  0.00    +0.230 C 
ATOM     12  O   LIG    1       -2.263   1.974   1.735  0.00  0.00    -0.380 OA
ATOM     13  C   LIG    1       -1.368   1.901   2.847  0.00  0.00    +0.210 C 
ATOM     14  C   LIG    1        0.009   2.419   2.426  0.00  0.00    -0.020 C 
ATOM     15  C   LIG    1        0.516   1.595   1.238  0.00  0.00    +0.140 C 
ATOM     16  C   LIG    1        0.694   0.137   1.666  0.00  0.00    +0.010 C 
BRANCH  15  17
ATOM     17  O   LIG    1        1.768   2.120   0.791  0.00  0.00    -0.550 OA
ATOM     18  H   LIG    1        2.444   2.167   1.480  0.00  0.00    +0.370 HD
ENDBRANCH  15  17
ENDBRANCH   8  10
BRANCH   1  23
ATOM     19  C   LIG    1       -3.547   3.559  -5.180  0.00  0.00    -0.010 C 
ATOM     20  C   LIG    1       -3.510   3.046  -6.641  0.00  0.00    +0.030 C 
ATOM     21  C   LIG    1       -2.166   3.606  -7.167  0.00  0.00    +0.020 C 
ATOM     22  C   LIG    1       -1.206   3.475  -5.966  0.00  0.00    +0.010 C 
ATOM     23  C   LIG    1       -2.084   3.445  -4.703  0.00  0.00    +0.280 C 
BRANCH  19  27
ATOM     24  C   LIG    1       -6.485   1.398  -4.018  0.00  0.00    +0.280 C 
ATOM     25  N   LIG    1       -5.611   2.240  -4.839  0.00  0.00    -0.740 N 
ATOM     26  H   LIG    1       -5.871   2.472  -5.744  0.00  0.00    +0.400 HD
ATOM     27  C   LIG    1       -4.446   2.693  -4.336  0.00  0.00    +0.520 C 
ATOM     28  O   LIG    1       -4.120   2.403  -3.204  0.00  0.00    -0.520 OA
ENDBRANCH  19  27
ENDBRANCH   1  23
TORSDOF 4
