REMARK  Name = ZINCrH000004mflB.0
REMARK                            x       y       z     vdW  Elec       q    Type
REMARK                         _______ _______ _______ _____ _____    ______ ____
ROOT
ATOM      1  N   LIG    1       -4.629   1.461  -1.120  0.00  0.00    -0.720 N 
ATOM      2  H   LIG    1       -4.833   0.577  -0.775  0.00  0.00    +0.400 HD
ATOM      3  C   LIG    1       -3.422   2.013  -0.887  0.00  0.00    +0.520 C 
ATOM      4  O   LIG    1       -3.168   3.118  -1.317  0.00  0.00    -0.510 OA
ENDROOT
BRANCH   3   5
ATOM      5  C   LIG    1       -2.389   1.258  -0.091  0.00  0.00    +0.170 C 
ATOM      6  C   LIG    1       -2.937   0.964   1.307  0.00  0.00    +0.060 C 
BRANCH   5   7
ATOM      7  O   LIG    1       -1.202   2.047   0.019  0.00  0.00    -0.280 OA
BRANCH   7   8
ATOM      8  C   LIG    1       -0.035   1.381   0.222  0.00  0.00    +0.130 A 
ATOM      9  C   LIG    1       -0.045   0.009   0.425  0.00  0.00    -0.060 A 
ATOM     10  C   LIG    1        1.143  -0.667   0.626  0.00  0.00    +0.070 A 
ATOM     11  C   LIG    1        2.342   0.023   0.623  0.00  0.00    -0.070 A 
ATOM     12  C   LIG    1        2.354   1.392   0.420  0.00  0.00    +0.070 A 
ATOM     13 CL   LIG    1        3.833  -0.829   0.876  0.00  0.00    -0.070 Cl
ATOM     14  C   LIG    1        1.168   2.072   0.220  0.00  0.00    -0.100 A 
ATOM     15  C   LIG    1        1.182   3.562  -0.002  0.00  0.00    +0.110 C 
ENDBRANCH   7   8
ENDBRANCH   5   7
ENDBRANCH   3   5
BRANCH   1  16
ATOM     16  C   LIG    1       -5.634   2.195  -1.893  0.00  0.00    +0.340 C 
BRANCH  16  22
ATOM     17  C   LIG    1       -7.781   1.309  -0.951  0.00  0.00    +0.150 A 
ATOM     18  C   LIG    1       -8.935   0.548  -1.058  0.00  0.00    -0.130 A 
ATOM     19  C   LIG    1       -9.188  -0.167  -2.217  0.00  0.00    +0.150 A 
ATOM     20  C   LIG    1       -8.285  -0.115  -3.275  0.00  0.00    +0.060 A 
ATOM     21  C   LIG    1       -7.136   0.650  -3.167  0.00  0.00    +0.040 A 
ATOM     22  C   LIG    1       -6.885   1.363  -2.009  0.00  0.00    -0.150 A 
BRANCH  17  24
ATOM     23  C   LIG    1       -8.495   1.905   1.237  0.00  0.00    +0.240 C 
ATOM     24  O   LIG    1       -7.530   2.007   0.188  0.00  0.00    -0.310 OA
ENDBRANCH  17  24
BRANCH  20  25
ATOM     25  O   LIG    1       -8.531  -0.816  -4.415  0.00  0.00    -0.310 OA
ATOM     26  C   LIG    1       -7.562  -0.717  -5.460  0.00  0.00    +0.230 C 
ENDBRANCH  20  25
BRANCH  19  27
ATOM     27  O   LIG    1      -10.317  -0.918  -2.322  0.00  0.00    -0.300 OA
ATOM     28  C   LIG    1      -11.198  -0.924  -1.198  0.00  0.00    +0.250 C 
ENDBRANCH  19  27
ENDBRANCH  16  22
ENDBRANCH   1  16
TORSDOF 8
