REMARK  Name = ZINCpk00000kGqCX.0
REMARK                            x       y       z     vdW  Elec       q    Type
REMARK                         _______ _______ _______ _____ _____    ______ ____
ROOT
ATOM      1  C   LIG    1        1.012   0.187  -4.588  0.00  0.00    +0.190 A 
ATOM      2  C   LIG    1       -0.109   1.011  -4.644  0.00  0.00    +0.270 A 
ATOM      3  N   LIG    1       -0.647   1.442  -3.515  0.00  0.00    -0.480 NA
ATOM      4  C   LIG    1       -0.133   1.100  -2.344  0.00  0.00    +0.330 A 
ATOM      5  N   LIG    1        0.935   0.322  -2.253  0.00  0.00    -0.500 NA
ATOM      6  C   LIG    1        1.524  -0.151  -3.339  0.00  0.00    +0.150 A 
ENDROOT
BRANCH   4   7
ATOM      7  N   LIG    1       -0.725   1.573  -1.182  0.00  0.00    -0.450 N 
ATOM      8  C   LIG    1       -0.013   1.086   0.008  0.00  0.00    +0.240 C 
ATOM      9  C   LIG    1       -0.730   1.580   1.266  0.00  0.00    +0.280 C 
ATOM     10  N   LIG    1       -0.768   3.048   1.264  0.00  0.00    -0.510 N 
ATOM     11  C   LIG    1       -1.503   3.519   0.083  0.00  0.00    +0.280 C 
ATOM     12  H   LIG    1       -1.230   3.374   2.099  0.00  0.00    +0.430 HD
ATOM     13  H   LIG    1        0.174   3.408   1.239  0.00  0.00    +0.430 HD
ATOM     14  C   LIG    1       -0.792   3.041  -1.185  0.00  0.00    +0.220 C 
ENDBRANCH   4   7
BRANCH   1  15
ATOM     15  N   LIG    1        1.610  -0.290  -5.761  0.00  0.00    -1.060 NA
BRANCH  15  16
ATOM     16  S   LIG    1        2.943  -1.269  -5.672  0.00  0.00    +2.610 S 
ATOM     17  O   LIG    1        2.509  -2.484  -5.076  0.00  0.00    -1.010 OA
ATOM     18  O   LIG    1        3.991  -0.472  -5.138  0.00  0.00    -1.010 OA
BRANCH  16  23
ATOM     19  C   LIG    1        4.548  -2.623 -11.330  0.00  0.00    +0.100 C 
ATOM     20  C   LIG    1        4.146  -2.286  -9.918  0.00  0.00    -0.010 A 
ATOM     21  C   LIG    1        4.671  -1.167  -9.298  0.00  0.00    -0.030 A 
ATOM     22  C   LIG    1        4.304  -0.857  -8.002  0.00  0.00    +0.050 A 
ATOM     23  C   LIG    1        3.411  -1.665  -7.324  0.00  0.00    -0.680 A 
ATOM     24  C   LIG    1        2.888  -2.788  -7.942  0.00  0.00    +0.200 A 
ATOM     25  F   LIG    1        2.019  -3.582  -7.278  0.00  0.00    -0.110 F 
ATOM     26  C   LIG    1        4.877   0.363  -7.328  0.00  0.00    +0.120 C 
ATOM     27  C   LIG    1        3.252  -3.095  -9.242  0.00  0.00    -0.050 A 
ENDBRANCH  16  23
ENDBRANCH  15  16
ENDBRANCH   1  15
TORSDOF 4
