REMARK  Name = ZINCvU00000007GW.0
REMARK                            x       y       z     vdW  Elec       q    Type
REMARK                         _______ _______ _______ _____ _____    ______ ____
ROOT
ATOM      1  C   LIG    1        2.296   1.508  -0.013  0.00  0.00    +0.400 A 
ATOM      2  N   LIG    1        1.141   2.141   0.003  0.00  0.00    -0.590 NA
ATOM      3  C   LIG    1       -0.018   1.473   0.010  0.00  0.00    +0.550 A 
ATOM      4  C   LIG    1        0.002  -0.004   0.002  0.00  0.00    -0.210 A 
ATOM      5  C   LIG    1        1.235  -0.626  -0.013  0.00  0.00    +0.060 A 
ATOM      6  S   LIG    1        1.030  -2.371  -0.021  0.00  0.00    +0.200 S 
ATOM      7  C   LIG    1       -0.718  -2.236  -0.003  0.00  0.00    -0.040 A 
ATOM      8  C   LIG    1       -1.098  -0.959   0.007  0.00  0.00    +0.010 A 
ATOM      9  O   LIG    1       -1.079   2.077   0.018  0.00  0.00    -0.480 OA
ATOM     10  N   LIG    1        2.376   0.153  -0.020  0.00  0.00    -0.580 N 
ATOM     11  H   LIG    1        3.247  -0.274  -0.031  0.00  0.00    +0.430 HD
ENDROOT
BRANCH   8  12
ATOM     12  C   LIG    1       -2.522  -0.544   0.024  0.00  0.00    -0.050 A 
ATOM     13  C   LIG    1       -2.968   0.386   0.961  0.00  0.00    +0.100 A 
ATOM     14  C   LIG    1       -4.293   0.773   0.969  0.00  0.00    -0.010 A 
ATOM     15  C   LIG    1       -5.180   0.231   0.054  0.00  0.00    +0.110 A 
ATOM     16  C   LIG    1       -4.742  -0.699  -0.876  0.00  0.00    -0.020 A 
ATOM     17  F   LIG    1       -6.477   0.609   0.069  0.00  0.00    -0.140 F 
ATOM     18  C   LIG    1       -3.419  -1.088  -0.895  0.00  0.00    +0.060 A 
ENDBRANCH   8  12
BRANCH   1  19
ATOM     19  S   LIG    1        3.784   2.451  -0.023  0.00  0.00    +0.080 S 
BRANCH  19  21
ATOM     20  C   LIG    1        2.351   4.359   1.307  0.00  0.00    +0.100 C 
ATOM     21  C   LIG    1        3.096   4.125  -0.009  0.00  0.00    +0.030 C 
BRANCH  21  22
ATOM     22  C   LIG    1        4.213   5.128  -0.139  0.00  0.00    +0.540 C 
ATOM     23  N   LIG    1        3.946   6.383  -0.551  0.00  0.00    -0.710 N 
ATOM     24  H   LIG    1        3.036   6.641  -0.765  0.00  0.00    +0.410 HD
ATOM     25  O   LIG    1        5.351   4.806   0.128  0.00  0.00    -0.520 OA
BRANCH  23  26
ATOM     26  C   LIG    1        5.032   7.359  -0.678  0.00  0.00    +0.340 C 
BRANCH  26  27
ATOM     27  C   LIG    1        4.472   8.675  -1.153  0.00  0.00    -0.110 A 
ATOM     28  C   LIG    1        4.335   9.727  -0.268  0.00  0.00    +0.050 A 
ATOM     29  C   LIG    1        3.821  10.934  -0.703  0.00  0.00    +0.010 A 
ATOM     30  C   LIG    1        3.445  11.090  -2.024  0.00  0.00    +0.040 A 
ATOM     31  C   LIG    1        3.581  10.038  -2.910  0.00  0.00    +0.030 A 
ATOM     32  C   LIG    1        4.101   8.831  -2.477  0.00  0.00    -0.020 A 
ATOM     33 CL   LIG    1        4.280   7.512  -3.591  0.00  0.00    -0.060 Cl
ENDBRANCH  26  27
ENDBRANCH  23  26
ENDBRANCH  21  22
ENDBRANCH  19  21
ENDBRANCH   1  19
TORSDOF 6
