REMARK  Name = ZINCnE000001TCHZ.0
REMARK                            x       y       z     vdW  Elec       q    Type
REMARK                         _______ _______ _______ _____ _____    ______ ____
ROOT
ATOM      1  C   LIG    1        2.188   9.488  -2.435  0.00  0.00    -0.210 A 
ATOM      2  C   LIG    1        2.821   8.667  -1.546  0.00  0.00    +0.020 A 
ATOM      3  C   LIG    1        1.968   8.002  -0.692  0.00  0.00    -0.100 A 
ATOM      4  C   LIG    1        0.657   8.284  -0.890  0.00  0.00    -0.260 A 
ATOM      5  C   LIG    1       -0.467   7.675  -0.075  0.00  0.00    +0.260 C 
ATOM      6  N   LIG    1        0.055   6.498   0.635  0.00  0.00    -0.530 NA
ATOM      7  C   LIG    1        1.279   6.831   1.377  0.00  0.00    +0.180 C 
ATOM      8  C   LIG    1        2.432   7.034   0.389  0.00  0.00    +0.100 C 
ATOM      9  S   LIG    1        0.455   9.401  -2.163  0.00  0.00    +0.190 S 
ENDROOT
BRANCH   1  11
ATOM     10  O   LIG    1        4.048  10.267  -3.522  0.00  0.00    -0.680 OA
ATOM     11  C   LIG    1        2.827  10.283  -3.420  0.00  0.00    +0.540 C 
ATOM     12  O   LIG    1        2.159  10.986  -4.168  0.00  0.00    -0.690 OA
ENDBRANCH   1  11
BRANCH   6  13
ATOM     13  C   LIG    1       -0.963   5.928   1.529  0.00  0.00    +0.260 C 
BRANCH  13  14
ATOM     14  C   LIG    1       -2.100   5.377   0.708  0.00  0.00    -0.220 A 
ATOM     15  C   LIG    1       -3.282   5.987   0.475  0.00  0.00    +0.250 A 
ATOM     16  N   LIG    1       -4.030   5.168  -0.296  0.00  0.00    -0.470 N 
ATOM     17  H   LIG    1       -4.928   5.350  -0.614  0.00  0.00    +0.440 HD
ATOM     18  N   LIG    1       -3.285   4.012  -0.556  0.00  0.00    -0.280 NA
ATOM     19  C   LIG    1       -2.118   4.133   0.043  0.00  0.00    +0.160 A 
BRANCH  19  20
ATOM     20  C   LIG    1       -1.023   3.138   0.028  0.00  0.00    -0.130 A 
ATOM     21  C   LIG    1       -1.187   1.801   0.017  0.00  0.00    +0.020 A 
ATOM     22  C   LIG    1       -0.013   1.076   0.008  0.00  0.00    +0.000 A 
ATOM     23  C   LIG    1        1.104   1.808   0.001  0.00  0.00    -0.080 A 
ATOM     24  S   LIG    1        0.694   3.518   0.014  0.00  0.00    +0.220 S 
ENDBRANCH  19  20
ENDBRANCH  13  14
ENDBRANCH   6  13
TORSDOF 4
