REMARK  Name = ZINCqH00000369E3.0
REMARK                            x       y       z     vdW  Elec       q    Type
REMARK                         _______ _______ _______ _____ _____    ______ ____
ROOT
ATOM      1  S   LIG    1       -2.680  -3.000   0.011  0.00  0.00    +2.690 S 
ATOM      2  O   LIG    1       -3.657  -2.131   0.567  0.00  0.00    -0.940 OA
ATOM      3  O   LIG    1       -2.384  -4.283   0.548  0.00  0.00    -0.930 OA
ENDROOT
BRANCH   1  12
ATOM      4  C   LIG    1       -1.552  -6.483  -3.679  0.00  0.00    +0.110 A 
ATOM      5  C   LIG    1       -0.997  -6.108  -2.465  0.00  0.00    -0.030 A 
ATOM      6  C   LIG    1       -1.519  -5.033  -1.773  0.00  0.00    +0.000 A 
ATOM      7  C   LIG    1       -2.599  -4.329  -2.291  0.00  0.00    +0.140 A 
ATOM      8  C   LIG    1       -3.155  -4.701  -3.505  0.00  0.00    -0.070 A 
ATOM      9  C   LIG    1       -4.322  -3.957  -4.098  0.00  0.00    +0.090 C 
ATOM     10  C   LIG    1       -5.062  -3.172  -3.015  0.00  0.00    +0.040 C 
ATOM     11  C   LIG    1       -4.053  -2.329  -2.234  0.00  0.00    +0.290 C 
ATOM     12  N   LIG    1       -3.115  -3.243  -1.568  0.00  0.00    -0.930 N 
ATOM     13  C   LIG    1       -2.629  -5.780  -4.196  0.00  0.00    +0.020 A 
BRANCH   4  15
ATOM     14  C   LIG    1        0.069  -8.221  -3.770  0.00  0.00    +0.250 C 
ATOM     15  O   LIG    1       -1.041  -7.542  -4.362  0.00  0.00    -0.320 OA
ENDBRANCH   4  15
ENDBRANCH   1  12
BRANCH   1  16
ATOM     16  C   LIG    1       -1.164  -2.103   0.002  0.00  0.00    -0.650 A 
ATOM     17  C   LIG    1        0.041  -2.782  -0.012  0.00  0.00    +0.110 A 
ATOM     18  C   LIG    1        1.232  -2.081  -0.020  0.00  0.00    +0.060 A 
ATOM     19  C   LIG    1        1.222  -0.700  -0.019  0.00  0.00    +0.010 A 
ATOM     20  C   LIG    1        0.015  -0.016   0.000  0.00  0.00    +0.090 A 
ATOM     21  C   LIG    1       -1.179  -0.722   0.008  0.00  0.00    +0.140 A 
BRANCH  20  22
ATOM     22  O   LIG    1        0.003   1.343   0.006  0.00  0.00    -0.310 OA
BRANCH  22  23
ATOM     23  C   LIG    1        1.270   2.004  -0.002  0.00  0.00    +0.600 C 
ATOM     24  F   LIG    1        1.998   1.630   1.132  0.00  0.00    -0.160 F 
ATOM     25  F   LIG    1        1.074   3.389   0.005  0.00  0.00    -0.130 F 
ATOM     26  F   LIG    1        1.978   1.639  -1.153  0.00  0.00    -0.160 F 
ENDBRANCH  22  23
ENDBRANCH  20  22
ENDBRANCH   1  16
TORSDOF 5
