REMARK  Name = ZINCrg00000SjSwI.0
REMARK                            x       y       z     vdW  Elec       q    Type
REMARK                         _______ _______ _______ _____ _____    ______ ____
ROOT
ATOM      1  O   LIG    1       -6.417   2.901  -0.336  0.00  0.00    -0.480 OA
ATOM      2  C   LIG    1       -5.259   2.541  -0.364  0.00  0.00    +0.520 C 
ATOM      3  C   LIG    1       -4.170   3.571  -0.521  0.00  0.00    +0.360 C 
ATOM      4  N   LIG    1       -2.927   3.022   0.046  0.00  0.00    -0.620 N 
ATOM      5  C   LIG    1       -2.534   1.669  -0.374  0.00  0.00    +0.170 C 
ATOM      6  C   LIG    1       -3.722   0.756  -0.228  0.00  0.00    +0.520 C 
ATOM      7  O   LIG    1       -3.544  -0.435  -0.086  0.00  0.00    -0.480 OA
ATOM      8  C   LIG    1       -2.082   1.701  -1.834  0.00  0.00    +0.040 C 
ATOM      9  C   LIG    1       -0.884   2.643  -1.976  0.00  0.00    +0.020 C 
ATOM     10  C   LIG    1        0.263   2.146  -1.095  0.00  0.00    +0.000 C 
ATOM     11  C   LIG    1       -0.191   2.116   0.366  0.00  0.00    +0.020 C 
ATOM     12  C   LIG    1       -1.389   1.174   0.509  0.00  0.00    +0.070 C 
ATOM     13  C   LIG    1       -2.179   3.731   0.915  0.00  0.00    +0.540 C 
ATOM     14  O   LIG    1       -1.538   3.160   1.771  0.00  0.00    -0.450 OA
ATOM     15  N   LIG    1       -4.974   1.236  -0.253  0.00  0.00    -0.670 N 
ATOM     16  H   LIG    1       -5.710   0.607  -0.188  0.00  0.00    +0.420 HD
ENDROOT
BRANCH  13  17
ATOM     17  C   LIG    1       -2.141   5.235   0.823  0.00  0.00    +0.120 C 
BRANCH  17  18
ATOM     18  S   LIG    1       -1.058   5.891   2.116  0.00  0.00    +0.110 S 
BRANCH  18  19
ATOM     19  C   LIG    1       -1.195   7.616   1.784  0.00  0.00    +0.190 A 
ATOM     20  N   LIG    1       -1.908   8.174   0.831  0.00  0.00    -0.340 NA
ATOM     21  N   LIG    1       -1.790   9.452   0.869  0.00  0.00    -0.030 NA
ATOM     22  N   LIG    1       -0.999   9.800   1.826  0.00  0.00    -0.070 NA
ATOM     23  N   LIG    1       -0.581   8.617   2.459  0.00  0.00    -0.350 N 
BRANCH  23  24
ATOM     24  C   LIG    1        0.324   8.492   3.604  0.00  0.00    +0.260 C 
ATOM     25  C   LIG    1       -0.231   9.285   4.806  0.00  0.00    +0.040 C 
ATOM     26  C   LIG    1        1.029   9.884   5.480  0.00  0.00    +0.040 C 
ATOM     27  C   LIG    1        1.921  10.256   4.270  0.00  0.00    +0.030 C 
ATOM     28  C   LIG    1        1.692   9.109   3.264  0.00  0.00    +0.040 C 
ENDBRANCH  23  24
ENDBRANCH  18  19
ENDBRANCH  17  18
ENDBRANCH  13  17
TORSDOF 4
