REMARK  Name = ZINCrH000004vJdg.0
REMARK                            x       y       z     vdW  Elec       q    Type
REMARK                         _______ _______ _______ _____ _____    ______ ____
ROOT
ATOM      1  N   LIG    1        2.422   1.112  -0.015  0.00  0.00    -0.730 N 
ATOM      2  H   LIG    1        3.262   1.598  -0.015  0.00  0.00    +0.410 HD
ENDROOT
BRANCH   1   9
ATOM      3  O   LIG    1       -4.592   3.881   0.382  0.00  0.00    -0.530 OA
ATOM      4  C   LIG    1       -3.545   3.269   0.394  0.00  0.00    +0.520 C 
ATOM      5  C   LIG    1       -3.532   1.825   0.819  0.00  0.00    +0.080 C 
ATOM      6  C   LIG    1       -2.495   1.052   0.004  0.00  0.00    +0.110 C 
ATOM      7  C   LIG    1       -1.190   1.804  -0.000  0.00  0.00    -0.080 A 
ATOM      8  C   LIG    1        0.007   1.115  -0.005  0.00  0.00    +0.020 A 
ATOM      9  C   LIG    1        1.208   1.811  -0.004  0.00  0.00    +0.160 A 
ATOM     10  C   LIG    1        1.206   3.201   0.006  0.00  0.00    +0.060 A 
ATOM     11  C   LIG    1        0.008   3.890   0.016  0.00  0.00    +0.000 A 
ATOM     12  F   LIG    1        2.375   3.879   0.007  0.00  0.00    -0.140 F 
ATOM     13  C   LIG    1       -1.193   3.193   0.016  0.00  0.00    +0.140 A 
ATOM     14  N   LIG    1       -2.409   3.888   0.025  0.00  0.00    -0.660 N 
ATOM     15  H   LIG    1       -2.432   4.822  -0.235  0.00  0.00    +0.410 HD
ENDBRANCH   1   9
BRANCH   1  16
ATOM     16  C   LIG    1        2.424  -0.353  -0.027  0.00  0.00    +0.250 C 
ATOM     17  C   LIG    1        3.777  -0.896   0.487  0.00  0.00    +0.080 C 
ATOM     18  C   LIG    1        4.560  -1.091  -0.830  0.00  0.00    +0.280 C 
ATOM     19  N   LIG    1        3.540  -1.282  -1.867  0.00  0.00    -0.550 N 
ATOM     20  C   LIG    1        2.331  -0.871  -1.445  0.00  0.00    +0.500 C 
ATOM     21  O   LIG    1        1.315  -0.910  -2.105  0.00  0.00    -0.490 OA
BRANCH  19  22
ATOM     22  C   LIG    1        3.792  -1.823  -3.134  0.00  0.00    +0.170 A 
ATOM     23  C   LIG    1        2.740  -2.081  -4.002  0.00  0.00    +0.050 A 
ATOM     24  C   LIG    1        2.991  -2.611  -5.253  0.00  0.00    +0.040 A 
ATOM     25  C   LIG    1        4.290  -2.894  -5.638  0.00  0.00    +0.090 A 
ATOM     26  C   LIG    1        5.342  -2.643  -4.771  0.00  0.00    -0.050 A 
ATOM     27 CL   LIG    1        6.970  -3.000  -5.256  0.00  0.00    -0.040 Cl
ATOM     28  F   LIG    1        4.532  -3.417  -6.860  0.00  0.00    -0.130 F 
ATOM     29  C   LIG    1        5.095  -2.108  -3.521  0.00  0.00    +0.030 A 
ENDBRANCH  19  22
ENDBRANCH   1  16
TORSDOF 3
