REMARK  Name = ZINCrg00000Brk9d.0
REMARK                            x       y       z     vdW  Elec       q    Type
REMARK                         _______ _______ _______ _____ _____    ______ ____
ROOT
ATOM      1  C   LIG    1       -6.093   1.999   0.043  0.00  0.00    +0.200 C 
ENDROOT
BRANCH   1   2
ATOM      2  O   LIG    1       -6.005   2.814   1.213  0.00  0.00    -0.550 OA
ATOM      3  H   LIG    1       -6.051   2.318   2.042  0.00  0.00    +0.380 HD
ENDBRANCH   1   2
BRANCH   1   4
ATOM      4  C   LIG    1       -7.424   1.244   0.045  0.00  0.00    +0.260 C 
BRANCH   4   7
ATOM      5  O   LIG    1      -10.035   0.570  -0.007  0.00  0.00    -0.520 OA
ATOM      6  C   LIG    1       -9.802   1.761  -0.082  0.00  0.00    +0.560 C 
ATOM      7  N   LIG    1       -8.528   2.201  -0.065  0.00  0.00    -0.720 N 
ATOM      8  H   LIG    1       -8.342   3.151  -0.125  0.00  0.00    +0.410 HD
BRANCH   6   9
ATOM      9  C   LIG    1      -10.916   2.727  -0.194  0.00  0.00    -0.090 A 
ATOM     10  C   LIG    1      -10.652   4.094  -0.275  0.00  0.00    +0.030 A 
ATOM     11  C   LIG    1      -11.698   4.992  -0.384  0.00  0.00    +0.110 A 
ATOM     12  C   LIG    1      -13.006   4.535  -0.401  0.00  0.00    +0.030 A 
ATOM     13  C   LIG    1      -13.273   3.180  -0.315  0.00  0.00    -0.020 A 
ATOM     14 CL   LIG    1      -14.915   2.618  -0.338  0.00  0.00    -0.040 Cl
ATOM     15  F   LIG    1      -11.444   6.316  -0.469  0.00  0.00    -0.120 F 
ATOM     16  C   LIG    1      -12.236   2.274  -0.212  0.00  0.00    +0.100 A 
ENDBRANCH   6   9
ENDBRANCH   4   7
ENDBRANCH   1   4
BRANCH   1  17
ATOM     17  C   LIG    1       -4.938   0.995   0.032  0.00  0.00    +0.260 C 
BRANCH  17  18
ATOM     18  N   LIG    1       -3.664   1.718   0.029  0.00  0.00    -0.710 N 
ATOM     19  H   LIG    1       -3.656   2.688   0.034  0.00  0.00    +0.420 HD
ATOM     20  C   LIG    1       -2.502   1.035   0.020  0.00  0.00    +0.570 C 
ATOM     21  O   LIG    1       -2.512  -0.181   0.014  0.00  0.00    -0.530 OA
BRANCH  20  22
ATOM     22  C   LIG    1       -1.221   1.761   0.017  0.00  0.00    -0.110 A 
ATOM     23  C   LIG    1       -0.013   1.076   0.008  0.00  0.00    +0.170 A 
ATOM     24  C   LIG    1        1.185   1.798   0.000  0.00  0.00    +0.020 A 
ATOM     25  C   LIG    1        1.187   3.149   0.007  0.00  0.00    +0.280 A 
ATOM     26  N   LIG    1        0.029   3.864   0.022  0.00  0.00    -0.400 N 
ATOM     27  C   LIG    1       -0.255   5.197   0.031  0.00  0.00    +0.360 A 
ATOM     28  N   LIG    1       -1.556   5.319   0.044  0.00  0.00    -0.240 NA
ATOM     29  N   LIG    1       -2.114   4.160   0.043  0.00  0.00    -0.300 NA
ATOM     30  C   LIG    1       -1.186   3.225   0.030  0.00  0.00    +0.210 A 
ENDBRANCH  20  22
ENDBRANCH  17  18
ENDBRANCH   1  17
TORSDOF 7
