REMARK  Name = ZINCpe000000SEGp.0
REMARK                            x       y       z     vdW  Elec       q    Type
REMARK                         _______ _______ _______ _____ _____    ______ ____
ROOT
ATOM      1  N   LIG    1        4.326   5.494  -1.486  0.00  0.00    -1.000 NA
ATOM      2  C   LIG    1        3.047   6.207  -1.360  0.00  0.00    +0.290 C 
ATOM      3  C   LIG    1        2.335   5.715  -0.094  0.00  0.00    +0.270 C 
ATOM      4  N   LIG    1        2.328   4.245  -0.100  0.00  0.00    -0.610 N 
ATOM      5  C   LIG    1        3.608   3.532  -0.220  0.00  0.00    +0.280 C 
ATOM      6  C   LIG    1        1.171   3.563   0.009  0.00  0.00    +0.570 C 
ATOM      7  O   LIG    1        1.184   2.349   0.073  0.00  0.00    -0.520 OA
ATOM      8  C   LIG    1        4.320   4.024  -1.492  0.00  0.00    +0.300 C 
ENDROOT
BRANCH   6   9
ATOM      9  C   LIG    1       -0.114   4.292   0.052  0.00  0.00    -0.140 A 
ATOM     10  C   LIG    1       -1.152   3.932  -0.810  0.00  0.00    +0.100 A 
ATOM     11  C   LIG    1       -2.349   4.615  -0.766  0.00  0.00    +0.000 A 
ATOM     12  C   LIG    1       -2.523   5.656   0.133  0.00  0.00    +0.120 A 
ATOM     13  C   LIG    1       -1.496   6.017   0.992  0.00  0.00    -0.020 A 
ATOM     14  F   LIG    1       -3.698   6.321   0.173  0.00  0.00    -0.130 F 
ATOM     15  C   LIG    1       -0.294   5.342   0.955  0.00  0.00    +0.080 A 
ENDBRANCH   6   9
BRANCH   1  16
ATOM     16  S   LIG    1        5.748   6.331  -1.620  0.00  0.00    +2.610 S 
ATOM     17  O   LIG    1        5.369   7.578  -2.187  0.00  0.00    -0.940 OA
ATOM     18  O   LIG    1        6.613   5.443  -2.315  0.00  0.00    -0.940 OA
BRANCH  16  19
ATOM     19  C   LIG    1        6.306   6.553   0.092  0.00  0.00    -0.350 C 
BRANCH  19  20
ATOM     20  C   LIG    1        7.628   7.323   0.102  0.00  0.00    +0.070 C 
BRANCH  20  21
ATOM     21  C   LIG    1        8.098   7.510   1.545  0.00  0.00    +0.230 C 
BRANCH  21  22
ATOM     22  O   LIG    1        9.353   8.241   1.555  0.00  0.00    -0.360 OA
BRANCH  22  24
ATOM     23  C   LIG    1       11.206   9.244   2.842  0.00  0.00    +0.150 C 
ATOM     24  C   LIG    1        9.904   8.490   2.753  0.00  0.00    +0.460 C 
ATOM     25  O   LIG    1        9.356   8.110   3.761  0.00  0.00    -0.510 OA
ENDBRANCH  22  24
ENDBRANCH  21  22
ENDBRANCH  20  21
ENDBRANCH  19  20
ENDBRANCH  16  19
ENDBRANCH   1  16
TORSDOF 7
