REMARK  Name = ZINCpk00001AZj9s.0
REMARK                            x       y       z     vdW  Elec       q    Type
REMARK                         _______ _______ _______ _____ _____    ______ ____
ROOT
ATOM      1  C   LIG    1        2.337   1.348  -0.120  0.00  0.00    +0.420 A 
ATOM      2  C   LIG    1        2.213   0.121   0.495  0.00  0.00    -0.100 A 
ATOM      3  C   LIG    1        0.948  -0.358   0.832  0.00  0.00    +0.140 A 
ATOM      4  C   LIG    1       -0.161   0.409   0.543  0.00  0.00    -0.110 A 
ATOM      5  C   LIG    1        0.002   1.650  -0.083  0.00  0.00    +0.520 A 
ATOM      6  O   LIG    1       -0.977   2.331  -0.346  0.00  0.00    -0.550 OA
ATOM      7  N   LIG    1        1.232   2.094  -0.400  0.00  0.00    -0.490 N 
ENDROOT
BRANCH   1  16
ATOM      8  O   LIG    1        5.971  -2.208  -1.186  0.00  0.00    -0.600 OA
ATOM      9  C   LIG    1        6.160  -1.017  -1.343  0.00  0.00    +0.710 C 
ATOM     10  N   LIG    1        7.366  -0.511  -1.042  0.00  0.00    -0.740 N 
ATOM     11  H   LIG    1        8.058  -1.103  -0.709  0.00  0.00    +0.420 HD
ATOM     12  C   LIG    1        7.660   0.914  -1.205  0.00  0.00    +0.270 C 
ATOM     13  C   LIG    1        6.361   1.712  -1.027  0.00  0.00    +0.000 C 
ATOM     14  C   LIG    1        5.845   1.497   0.399  0.00  0.00    +0.020 C 
ATOM     15  C   LIG    1        4.527   2.255   0.586  0.00  0.00    +0.290 C 
ATOM     16  N   LIG    1        3.584   1.822  -0.455  0.00  0.00    -0.660 N 
ATOM     17  C   LIG    1        4.006   1.902  -1.859  0.00  0.00    +0.280 C 
ATOM     18  C   LIG    1        5.335   1.175  -2.030  0.00  0.00    +0.210 C 
ATOM     19  N   LIG    1        5.154  -0.259  -1.809  0.00  0.00    -0.720 N 
ATOM     20  H   LIG    1        4.297  -0.669  -2.003  0.00  0.00    +0.410 HD
ENDBRANCH   1  16
BRANCH   7  21
ATOM     21  C   LIG    1        1.385   3.396  -1.055  0.00  0.00    +0.330 C 
BRANCH  21  22
ATOM     22  C   LIG    1        1.407   4.483  -0.011  0.00  0.00    -0.110 A 
ATOM     23  C   LIG    1        0.220   4.999   0.474  0.00  0.00    +0.040 A 
ATOM     24  C   LIG    1        0.240   5.993   1.435  0.00  0.00    +0.000 A 
ATOM     25  C   LIG    1        1.447   6.478   1.902  0.00  0.00    +0.010 A 
ATOM     26  C   LIG    1        2.634   5.966   1.413  0.00  0.00    -0.010 A 
ATOM     27  C   LIG    1        2.614   4.969   0.456  0.00  0.00    +0.020 A 
ENDBRANCH  21  22
ENDBRANCH   7  21
TORSDOF 3
