REMARK  Name = ZINCrD000000BRyc.0
REMARK                            x       y       z     vdW  Elec       q    Type
REMARK                         _______ _______ _______ _____ _____    ______ ____
ROOT
ATOM      1  O   LIG    1        3.912   1.693   0.884  0.00  0.00    -0.520 OA
ATOM      2  C   LIG    1        4.088   1.989  -0.282  0.00  0.00    +0.560 C 
ATOM      3  N   LIG    1        3.441   3.044  -0.815  0.00  0.00    -0.720 N 
ATOM      4  H   LIG    1        3.582   3.280  -1.745  0.00  0.00    +0.400 HD
ENDROOT
BRANCH   2   5
ATOM      5  C   LIG    1        5.014   1.190  -1.116  0.00  0.00    -0.090 A 
ATOM      6  C   LIG    1        5.209   1.531  -2.459  0.00  0.00    +0.030 A 
ATOM      7  C   LIG    1        6.064   0.809  -3.243  0.00  0.00    +0.110 A 
ATOM      8  C   LIG    1        6.739  -0.285  -2.707  0.00  0.00    -0.180 A 
ATOM      9  C   LIG    1        7.665  -1.099  -3.508  0.00  0.00    +0.550 A 
ATOM     10  N   LIG    1        8.280  -2.147  -2.901  0.00  0.00    -0.560 N 
ATOM     11  C   LIG    1        9.237  -3.107  -3.478  0.00  0.00    +0.280 C 
ATOM     12  C   LIG    1        9.935  -3.771  -2.273  0.00  0.00    +0.070 C 
ATOM     13  C   LIG    1        8.864  -3.631  -1.170  0.00  0.00    +0.160 C 
ATOM     14  C   LIG    1        8.043  -2.422  -1.590  0.00  0.00    +0.400 A 
ATOM     15  N   LIG    1        7.223  -1.713  -0.862  0.00  0.00    -0.520 NA
ATOM     16  O   LIG    1        7.873  -0.843  -4.679  0.00  0.00    -0.500 OA
ATOM     17  C   LIG    1        6.550  -0.647  -1.354  0.00  0.00    +0.170 A 
ATOM     18  C   LIG    1        5.679   0.102  -0.562  0.00  0.00    +0.110 A 
ENDBRANCH   2   5
BRANCH   3  19
ATOM     19  C   LIG    1        2.525   3.835   0.011  0.00  0.00    +0.300 C 
ATOM     20  C   LIG    1        2.506   5.259  -0.516  0.00  0.00    +0.050 C 
ATOM     21  C   LIG    1        1.577   6.105   0.365  0.00  0.00    +0.120 C 
ATOM     22  S   LIG    1       -0.128   5.608  -0.014  0.00  0.00    -0.120 S 
ATOM     23  C   LIG    1       -0.029   3.846   0.007  0.00  0.00    -0.070 A 
ATOM     24  C   LIG    1       -1.227   3.129   0.024  0.00  0.00    +0.030 A 
ATOM     25  C   LIG    1       -1.220   1.751   0.017  0.00  0.00    +0.030 A 
ATOM     26  C   LIG    1       -0.013   1.076   0.008  0.00  0.00    +0.010 A 
ATOM     27  C   LIG    1        1.171   1.781   0.000  0.00  0.00    +0.040 A 
ATOM     28  C   LIG    1        1.178   3.174   0.002  0.00  0.00    -0.100 A 
ENDBRANCH   3  19
TORSDOF 2
