REMARK  Name = ZINCrg00001JduX6.0
REMARK                            x       y       z     vdW  Elec       q    Type
REMARK                         _______ _______ _______ _____ _____    ______ ____
ROOT
ATOM      1  C   LIG    1       -1.584   3.211   0.328  0.00  0.00    +0.110 C 
ATOM      2  C   LIG    1       -1.467   1.886   0.108  0.00  0.00    -0.050 C 
ENDROOT
BRANCH   1   6
ATOM      3  C   LIG    1       -5.397   5.062   0.161  0.00  0.00    -0.670 A 
ATOM      4  C   LIG    1       -4.275   5.821   0.443  0.00  0.00    +0.130 A 
ATOM      5  C   LIG    1       -3.032   5.227   0.498  0.00  0.00    +0.020 A 
ATOM      6  C   LIG    1       -2.907   3.853   0.271  0.00  0.00    -0.020 A 
ATOM      7  C   LIG    1       -4.045   3.093  -0.018  0.00  0.00    +0.020 A 
ATOM      8  C   LIG    1       -5.282   3.701  -0.065  0.00  0.00    +0.120 A 
BRANCH   3   9
ATOM      9  S   LIG    1       -6.981   5.830   0.092  0.00  0.00    +2.700 S 
ATOM     10  O   LIG    1       -6.887   7.014   0.872  0.00  0.00    -0.960 OA
ATOM     11  O   LIG    1       -7.935   4.808   0.343  0.00  0.00    -0.950 OA
BRANCH   9  12
ATOM     12  N   LIG    1       -7.221   6.319  -1.472  0.00  0.00    -1.120 NA
ATOM     13  H   LIG    1       -7.290   7.264  -1.680  0.00  0.00    +0.420 HD
BRANCH  12  15
ATOM     14  C   LIG    1       -7.909   5.983  -3.795  0.00  0.00    +0.040 C 
ATOM     15  C   LIG    1       -7.328   5.324  -2.542  0.00  0.00    +0.260 C 
ENDBRANCH  12  15
ENDBRANCH   9  12
ENDBRANCH   3   9
ENDBRANCH   1   6
BRANCH   2  16
ATOM     16  C   LIG    1       -0.151   1.247   0.165  0.00  0.00    +0.550 C 
ATOM     17  N   LIG    1       -0.034  -0.077  -0.055  0.00  0.00    -0.590 N 
ATOM     18  C   LIG    1       -1.226  -0.879  -0.345  0.00  0.00    +0.310 C 
ATOM     19  O   LIG    1        0.839   1.913   0.406  0.00  0.00    -0.540 OA
BRANCH  17  20
ATOM     20  C   LIG    1        1.283  -0.715  -0.004  0.00  0.00    +0.310 C 
BRANCH  20  21
ATOM     21  C   LIG    1        1.525  -1.472  -1.284  0.00  0.00    +0.460 C 
ATOM     22  O   LIG    1        0.683  -1.478  -2.151  0.00  0.00    -0.490 OA
BRANCH  21  23
ATOM     23  O   LIG    1        2.676  -2.140  -1.462  0.00  0.00    -0.360 OA
ATOM     24  C   LIG    1        2.840  -2.847  -2.720  0.00  0.00    +0.260 C 
ENDBRANCH  21  23
ENDBRANCH  20  21
BRANCH  20  25
ATOM     25  C   LIG    1        1.335  -1.684   1.179  0.00  0.00    +0.210 C 
BRANCH  25  26
ATOM     26  O   LIG    1        0.422  -2.760   0.954  0.00  0.00    -0.390 OA
BRANCH  26  27
ATOM     27  C   LIG    1        0.393  -3.727   2.005  0.00  0.00    +0.160 C 
ATOM     28  C   LIG    1       -0.613  -4.827   1.659  0.00  0.00    +0.040 C 
ENDBRANCH  26  27
ENDBRANCH  25  26
ENDBRANCH  20  25
ENDBRANCH  17  20
ENDBRANCH   2  16
TORSDOF 11
