REMARK  Name = ZINCrH000004vH7l.0
REMARK                            x       y       z     vdW  Elec       q    Type
REMARK                         _______ _______ _______ _____ _____    ______ ____
ROOT
ATOM      1  C   LIG    1        4.611  -0.247  -2.611  0.00  0.00    +0.390 A 
ATOM      2  N   LIG    1        5.093  -1.167  -3.412  0.00  0.00    -0.510 NA
ATOM      3  C   LIG    1        5.064  -2.475  -3.079  0.00  0.00    +0.090 A 
ATOM      4  C   LIG    1        4.515  -2.862  -1.866  0.00  0.00    -0.220 A 
ATOM      5  C   LIG    1        4.561  -4.312  -1.658  0.00  0.00    -0.050 A 
ATOM      6  C   LIG    1        5.114  -4.980  -2.660  0.00  0.00    -0.230 A 
ATOM      7  C   LIG    1        5.122  -6.477  -2.366  0.00  0.00    +0.120 C 
ATOM      8  C   LIG    1        4.091  -6.662  -1.234  0.00  0.00    +0.050 C 
ATOM      9  C   LIG    1        4.125  -5.278  -0.557  0.00  0.00    +0.100 C 
ATOM     10  C   LIG    1        3.999  -1.849  -1.002  0.00  0.00    +0.570 A 
ATOM     11  O   LIG    1        3.512  -2.141   0.076  0.00  0.00    -0.500 OA
ATOM     12  S   LIG    1        5.629  -3.891  -3.948  0.00  0.00    +0.210 S 
ATOM     13  N   LIG    1        4.058  -0.564  -1.405  0.00  0.00    -0.510 N 
ENDROOT
BRANCH   1  14
ATOM     14  S   LIG    1        4.680   1.443  -3.106  0.00  0.00    +0.030 S 
BRANCH  14  21
ATOM     15  O   LIG    1        3.565  -0.027  -5.249  0.00  0.00    -0.430 OA
ATOM     16  C   LIG    1        4.571   0.502  -5.657  0.00  0.00    +0.370 C 
ATOM     17  C   LIG    1        4.954   0.417  -7.118  0.00  0.00    +0.030 C 
ATOM     18  C   LIG    1        5.237   1.834  -7.630  0.00  0.00    +0.030 C 
ATOM     19  C   LIG    1        6.290   2.495  -6.739  0.00  0.00    +0.030 C 
ATOM     20  C   LIG    1        5.744   2.651  -5.319  0.00  0.00    +0.070 C 
ATOM     21  C   LIG    1        5.480   1.266  -4.720  0.00  0.00    +0.010 C 
ENDBRANCH  14  21
ENDBRANCH   1  14
BRANCH  13  22
ATOM     22  C   LIG    1        3.532   0.496  -0.541  0.00  0.00    +0.320 C 
BRANCH  22  23
ATOM     23  C   LIG    1        2.056   0.734  -0.867  0.00  0.00    +0.140 C 
ATOM     24  C   LIG    1        1.494   1.890  -0.002  0.00  0.00    +0.020 C 
ATOM     25  C   LIG    1       -0.019   1.540   0.011  0.00  0.00    +0.020 C 
ATOM     26  C   LIG    1        0.002  -0.004   0.002  0.00  0.00    +0.190 C 
ATOM     27  O   LIG    1        1.275  -0.417  -0.510  0.00  0.00    -0.360 OA
ENDBRANCH  22  23
ENDBRANCH  13  22
TORSDOF 4
