REMARK  Name = ZINCrD0000070Zgr.0
REMARK                            x       y       z     vdW  Elec       q    Type
REMARK                         _______ _______ _______ _____ _____    ______ ____
ROOT
ATOM      1  C   LIG    1        8.616   1.825  -0.079  0.00  0.00    +0.270 C 
ENDROOT
BRANCH   1   4
ATOM      2  N   LIG    1       11.063   1.466  -0.098  0.00  0.00    -0.670 N 
ATOM      3  H   LIG    1       11.174   2.427  -0.168  0.00  0.00    +0.420 HD
ATOM      4  C   LIG    1        9.827   0.929  -0.087  0.00  0.00    +0.510 C 
ATOM      5  O   LIG    1        9.690  -0.276  -0.083  0.00  0.00    -0.490 OA
BRANCH   2  10
ATOM      6  C   LIG    1       13.302  -1.436  -0.513  0.00  0.00    -0.150 A 
ATOM      7  C   LIG    1       14.431  -0.991   0.182  0.00  0.00    +0.050 A 
ATOM      8  C   LIG    1       14.430   0.256   0.773  0.00  0.00    +0.030 A 
ATOM      9  C   LIG    1       13.318   1.071   0.676  0.00  0.00    +0.020 A 
ATOM     10  C   LIG    1       12.188   0.637  -0.008  0.00  0.00    +0.130 A 
ATOM     11  C   LIG    1       12.176  -0.612  -0.606  0.00  0.00    +0.090 A 
BRANCH   6  13
ATOM     12  C   LIG    1       14.514  -3.650  -1.043  0.00  0.00    +0.080 C 
ATOM     13  C   LIG    1       13.299  -2.765  -1.144  0.00  0.00    +0.390 C 
ATOM     14  O   LIG    1       12.318  -3.148  -1.746  0.00  0.00    -0.450 OA
ENDBRANCH   6  13
ENDBRANCH   2  10
ENDBRANCH   1   4
BRANCH   1  15
ATOM     15  O   LIG    1        7.413   1.012  -0.067  0.00  0.00    -0.330 OA
BRANCH  15  16
ATOM     16  C   LIG    1        6.238   1.663  -0.059  0.00  0.00    +0.470 C 
ATOM     17  O   LIG    1        6.217   2.871  -0.061  0.00  0.00    -0.510 OA
BRANCH  16  18
ATOM     18  C   LIG    1        4.947   0.886  -0.047  0.00  0.00    +0.130 C 
BRANCH  18  19
ATOM     19  C   LIG    1        3.767   1.859  -0.039  0.00  0.00    +0.060 C 
BRANCH  19  20
ATOM     20  C   LIG    1        2.475   1.082  -0.027  0.00  0.00    +0.400 C 
ATOM     21  O   LIG    1        2.497  -0.130  -0.025  0.00  0.00    -0.450 OA
BRANCH  20  22
ATOM     22  C   LIG    1        1.188   1.795  -0.018  0.00  0.00    -0.180 A 
ATOM     23  C   LIG    1       -0.013   1.077  -0.007  0.00  0.00    +0.080 A 
ATOM     24  C   LIG    1       -1.215   1.752  -0.005  0.00  0.00    -0.010 A 
ATOM     25  C   LIG    1       -1.236   3.136  -0.002  0.00  0.00    -0.050 A 
ATOM     26  C   LIG    1       -0.052   3.853  -0.013  0.00  0.00    -0.010 A 
ATOM     27  C   LIG    1       -2.554   3.866   0.007  0.00  0.00    +0.100 C 
ATOM     28  C   LIG    1        1.158   3.193  -0.021  0.00  0.00    +0.060 A 
ENDBRANCH  20  22
ENDBRANCH  19  20
ENDBRANCH  18  19
ENDBRANCH  16  18
ENDBRANCH  15  16
ENDBRANCH   1  15
TORSDOF 9
