REMARK  Name = ZINCpe000027pH09.0
REMARK                            x       y       z     vdW  Elec       q    Type
REMARK                         _______ _______ _______ _____ _____    ______ ____
ROOT
ATOM      1  C   LIG    1        1.801   1.918   1.464  0.00  0.00    +0.010 C 
ATOM      2  C   LIG    1        1.425   1.645  -0.003  0.00  0.00    +0.060 C 
ATOM      3  C   LIG    1       -0.013   1.086   0.008  0.00  0.00    +0.100 C 
ATOM      4  C   LIG    1       -0.615   1.613   1.334  0.00  0.00    +0.030 C 
ATOM      5  C   LIG    1        0.579   1.515   2.315  0.00  0.00    +0.170 C 
ENDROOT
BRANCH   3   6
ATOM      6  C   LIG    1       -0.791   1.608  -1.172  0.00  0.00    +0.280 A 
ATOM      7  N   LIG    1       -0.528   2.692  -1.827  0.00  0.00    -0.280 NA
ATOM      8  N   LIG    1       -1.478   2.827  -2.849  0.00  0.00    -0.450 N 
ATOM      9  C   LIG    1       -2.312   1.770  -2.762  0.00  0.00    +0.640 A 
ATOM     10  O   LIG    1       -3.266   1.543  -3.485  0.00  0.00    -0.550 OA
ATOM     11  C   LIG    1       -1.552   3.914  -3.828  0.00  0.00    +0.390 C 
ATOM     12  N   LIG    1       -1.892   1.008  -1.733  0.00  0.00    -0.560 N 
ATOM     13  C   LIG    1       -2.506  -0.245  -1.286  0.00  0.00    +0.340 C 
ENDBRANCH   3   6
BRANCH   5  14
ATOM     14  O   LIG    1        0.724   0.177   2.796  0.00  0.00    -0.550 OA
ATOM     15  H   LIG    1       -0.017  -0.129   3.337  0.00  0.00    +0.380 HD
ENDBRANCH   5  14
BRANCH   1  16
ATOM     16  C   LIG    1        3.016   1.076   1.859  0.00  0.00    +0.280 C 
BRANCH  16  17
ATOM     17  N   LIG    1        3.437   1.432   3.216  0.00  0.00    -0.710 N 
ATOM     18  H   LIG    1        2.954   2.112   3.711  0.00  0.00    +0.410 HD
BRANCH  17  22
ATOM     19  C   LIG    1        6.627  -0.386   4.998  0.00  0.00    +0.010 A 
ATOM     20  C   LIG    1        6.305  -0.790   3.710  0.00  0.00    +0.070 A 
ATOM     21  C   LIG    1        5.224  -0.185   3.088  0.00  0.00    -0.040 A 
ATOM     22  C   LIG    1        4.528   0.794   3.796  0.00  0.00    +0.340 A 
ATOM     23  N   LIG    1        4.915   1.117   5.021  0.00  0.00    -0.310 NA
ATOM     24  N   LIG    1        5.913   0.548   5.593  0.00  0.00    -0.200 NA
BRANCH  19  25
ATOM     25  C   LIG    1        7.793  -1.015   5.715  0.00  0.00    +0.100 C 
BRANCH  25  27
ATOM     26  C   LIG    1        9.942  -0.560   6.906  0.00  0.00    +0.020 C 
ATOM     27  C   LIG    1        8.758   0.079   6.178  0.00  0.00    +0.010 C 
ENDBRANCH  25  27
ENDBRANCH  19  25
ENDBRANCH  17  22
ENDBRANCH  16  17
ENDBRANCH   1  16
TORSDOF 7
