REMARK  Name = ZINCkj00000dDrki.1
REMARK                            x       y       z     vdW  Elec       q    Type
REMARK                         _______ _______ _______ _____ _____    ______ ____
ROOT
ATOM      1  N   LIG    1        1.119   2.214   0.361  0.00  0.00    -0.760 N 
ATOM      2  H   LIG    1        2.025   1.869   0.340  0.00  0.00    +0.390 HD
ATOM      3  C   LIG    1        0.900   3.517   0.630  0.00  0.00    +0.710 C 
ATOM      4  N   LIG    1        1.940   4.339   0.870  0.00  0.00    -0.670 N 
ATOM      5  H   LIG    1        2.841   3.982   0.916  0.00  0.00    +0.410 HD
ATOM      6  O   LIG    1       -0.236   3.949   0.656  0.00  0.00    -0.560 OA
ENDROOT
BRANCH   4   7
ATOM      7  C   LIG    1        1.721   5.710   1.054  0.00  0.00    +0.100 A 
ATOM      8  C   LIG    1        0.585   6.160   1.722  0.00  0.00    +0.080 A 
ATOM      9  C   LIG    1        0.412   7.526   1.878  0.00  0.00    -0.010 A 
ATOM     10  C   LIG    1        1.364   8.389   1.371  0.00  0.00    +0.250 A 
ATOM     11  N   LIG    1        2.429   7.931   0.742  0.00  0.00    -0.460 NA
ATOM     12  C   LIG    1        2.635   6.639   0.577  0.00  0.00    +0.240 A 
ENDBRANCH   4   7
BRANCH   1  13
ATOM     13  C   LIG    1       -0.012   1.320   0.100  0.00  0.00    +0.340 C 
BRANCH  13  18
ATOM     14  N   LIG    1        1.210   0.073  -1.639  0.00  0.00    -0.400 N 
ATOM     15  C   LIG    1        0.909  -1.185  -2.376  0.00  0.00    +0.270 C 
ATOM     16  C   LIG    1       -0.574  -1.461  -2.024  0.00  0.00    +0.080 C 
ATOM     17  C   LIG    1       -0.666  -1.020  -0.545  0.00  0.00    +0.090 C 
ATOM     18  C   LIG    1        0.512  -0.049  -0.341  0.00  0.00    +0.170 C 
ATOM     19  H   LIG    1        0.857   0.868  -2.151  0.00  0.00    +0.430 HD
BRANCH  14  20
ATOM     20  C   LIG    1        2.657   0.207  -1.426  0.00  0.00    +0.280 C 
BRANCH  20  21
ATOM     21  C   LIG    1        3.354   0.414  -2.772  0.00  0.00    +0.210 C 
BRANCH  21  23
ATOM     22  C   LIG    1        3.534   1.950  -4.603  0.00  0.00    +0.240 C 
ATOM     23  O   LIG    1        2.938   1.659  -3.337  0.00  0.00    -0.400 OA
ENDBRANCH  21  23
ENDBRANCH  20  21
ENDBRANCH  14  20
ENDBRANCH  13  18
ENDBRANCH   1  13
TORSDOF 6
