REMARK  Name = ZINCkj00000dDrki.0
REMARK                            x       y       z     vdW  Elec       q    Type
REMARK                         _______ _______ _______ _____ _____    ______ ____
ROOT
ATOM      1  N   LIG    1       -2.942   5.048   5.823  0.00  0.00    -0.740 N 
ATOM      2  H   LIG    1       -2.400   5.030   6.627  0.00  0.00    +0.400 HD
ATOM      3  C   LIG    1       -4.083   5.766   5.795  0.00  0.00    +0.710 C 
ATOM      4  N   LIG    1       -4.469   6.459   6.884  0.00  0.00    -0.670 N 
ATOM      5  H   LIG    1       -3.967   6.384   7.710  0.00  0.00    +0.410 HD
ATOM      6  O   LIG    1       -4.763   5.787   4.787  0.00  0.00    -0.560 OA
ENDROOT
BRANCH   4   7
ATOM      7  C   LIG    1       -5.595   7.289   6.822  0.00  0.00    +0.100 A 
ATOM      8  C   LIG    1       -6.690   6.936   6.038  0.00  0.00    +0.070 A 
ATOM      9  C   LIG    1       -7.782   7.789   6.010  0.00  0.00    -0.010 A 
ATOM     10  C   LIG    1       -7.748   8.953   6.754  0.00  0.00    +0.250 A 
ATOM     11  N   LIG    1       -6.694   9.259   7.486  0.00  0.00    -0.460 NA
ATOM     12  C   LIG    1       -5.638   8.473   7.546  0.00  0.00    +0.240 A 
ENDBRANCH   4   7
BRANCH   1  13
ATOM     13  C   LIG    1       -2.522   4.293   4.639  0.00  0.00    +0.310 C 
BRANCH  13  18
ATOM     14  N   LIG    1       -0.808   2.757   3.772  0.00  0.00    -0.380 N 
ATOM     15  C   LIG    1       -0.868   1.304   4.037  0.00  0.00    +0.280 C 
ATOM     16  C   LIG    1       -0.786   1.180   5.579  0.00  0.00    +0.080 C 
ATOM     17  C   LIG    1       -1.614   2.409   6.037  0.00  0.00    +0.070 C 
ATOM     18  C   LIG    1       -1.274   3.474   4.973  0.00  0.00    +0.160 C 
ATOM     19  H   LIG    1        0.143   3.024   3.565  0.00  0.00    +0.430 HD
BRANCH  14  20
ATOM     20  C   LIG    1       -1.674   3.088   2.632  0.00  0.00    +0.270 C 
BRANCH  20  21
ATOM     21  C   LIG    1       -1.104   2.460   1.359  0.00  0.00    +0.200 C 
BRANCH  21  23
ATOM     22  C   LIG    1       -0.637   0.348   0.325  0.00  0.00    +0.240 C 
ATOM     23  O   LIG    1       -1.150   1.036   1.468  0.00  0.00    -0.400 OA
ENDBRANCH  21  23
ENDBRANCH  20  21
ENDBRANCH  14  20
ENDBRANCH  13  18
ENDBRANCH   1  13
TORSDOF 6
