REMARK  Name = ZINCqH0000036Hrc.0
REMARK                            x       y       z     vdW  Elec       q    Type
REMARK                         _______ _______ _______ _____ _____    ______ ____
ROOT
ATOM      1  N   LIG    1        1.696  -4.479   2.813  0.00  0.00    -0.730 N 
ATOM      2  H   LIG    1        1.833  -3.853   3.542  0.00  0.00    +0.400 HD
ATOM      3  C   LIG    1        1.465  -4.021   1.567  0.00  0.00    +0.710 C 
ATOM      4  N   LIG    1        1.424  -2.695   1.333  0.00  0.00    -0.740 N 
ATOM      5  H   LIG    1        1.561  -2.069   2.061  0.00  0.00    +0.390 HD
ATOM      6  O   LIG    1        1.294  -4.805   0.653  0.00  0.00    -0.590 OA
ENDROOT
BRANCH   1   8
ATOM      7  C   LIG    1        0.321  -6.442   3.298  0.00  0.00    +0.030 C 
ATOM      8  C   LIG    1        1.741  -5.920   3.068  0.00  0.00    +0.280 C 
BRANCH   8   9
ATOM      9  C   LIG    1        2.592  -6.193   4.310  0.00  0.00    +0.240 C 
ATOM     10  O   LIG    1        1.972  -5.605   5.457  0.00  0.00    -0.370 OA
ATOM     11  C   LIG    1        2.775  -5.640   6.641  0.00  0.00    +0.240 C 
ATOM     12  C   LIG    1        3.937  -4.649   6.488  0.00  0.00    +0.100 C 
ATOM     13  C   LIG    1        4.563  -4.873   5.128  0.00  0.00    -0.180 A 
ATOM     14  S   LIG    1        6.132  -4.290   4.599  0.00  0.00    +0.110 S 
ATOM     15  C   LIG    1        5.910  -5.030   3.020  0.00  0.00    -0.040 A 
ATOM     16  C   LIG    1        4.730  -5.644   2.976  0.00  0.00    +0.030 A 
ATOM     17  C   LIG    1        3.969  -5.567   4.136  0.00  0.00    -0.140 A 
ENDBRANCH   8   9
ENDBRANCH   1   8
BRANCH   4  18
ATOM     18  C   LIG    1        1.173  -2.197  -0.022  0.00  0.00    +0.340 C 
BRANCH  18  19
ATOM     19  C   LIG    1        1.177  -0.690  -0.013  0.00  0.00    -0.090 A 
ATOM     20  C   LIG    1        0.002  -0.004   0.002  0.00  0.00    +0.050 A 
ATOM     21  C   LIG    1       -0.017   1.389   0.010  0.00  0.00    +0.010 A 
ATOM     22  C   LIG    1        1.142   2.104   0.003  0.00  0.00    +0.040 A 
ATOM     23  C   LIG    1        2.373   1.429  -0.013  0.00  0.00    -0.110 A 
ATOM     24  C   LIG    1        3.594   2.130  -0.021  0.00  0.00    +0.080 A 
ATOM     25  C   LIG    1        4.752   1.407  -0.036  0.00  0.00    -0.040 A 
ATOM     26  C   LIG    1        4.703   0.015  -0.044  0.00  0.00    +0.290 A 
ATOM     27  N   LIG    1        3.564  -0.635  -0.037  0.00  0.00    -0.470 NA
ATOM     28  C   LIG    1        2.395   0.012  -0.021  0.00  0.00    +0.140 A 
ENDBRANCH  18  19
ENDBRANCH   4  18
TORSDOF 4
