REMARK  Name = ZINCrD00000l75f8.0
REMARK                            x       y       z     vdW  Elec       q    Type
REMARK                         _______ _______ _______ _____ _____    ______ ____
ROOT
ATOM      1  O   LIG    1        1.349   1.588  -0.002  0.00  0.00    -0.320 OA
ENDROOT
BRANCH   1   2
ATOM      2  C   LIG    1        2.289   0.821   0.585  0.00  0.00    +0.550 C 
ATOM      3  O   LIG    1        1.979  -0.239   1.092  0.00  0.00    -0.490 OA
BRANCH   2   4
ATOM      4  C   LIG    1        3.691   1.267   0.613  0.00  0.00    +0.040 A 
ATOM      5  C   LIG    1        4.673   0.541   1.192  0.00  0.00    -0.020 A 
ATOM      6  S   LIG    1        6.159   1.370   1.026  0.00  0.00    +0.180 S 
ATOM      7  C   LIG    1        5.354   2.683   0.173  0.00  0.00    +0.150 A 
ATOM      8  N   LIG    1        4.087   2.420   0.073  0.00  0.00    -0.430 NA
BRANCH   7   9
ATOM      9  C   LIG    1        6.019   3.897  -0.348  0.00  0.00    -0.190 A 
ATOM     10  C   LIG    1        7.350   4.194  -0.254  0.00  0.00    +0.270 A 
ATOM     11  N   LIG    1        7.545   5.385  -0.852  0.00  0.00    -0.360 N 
ATOM     12  N   LIG    1        6.312   5.843  -1.330  0.00  0.00    -0.290 NA
ATOM     13  C   LIG    1        8.828   6.081  -0.980  0.00  0.00    +0.370 C 
ATOM     14  C   LIG    1        5.397   4.958  -1.038  0.00  0.00    +0.300 A 
ENDBRANCH   7   9
ENDBRANCH   2   4
ENDBRANCH   1   2
BRANCH   1  15
ATOM     15  C   LIG    1       -0.013   1.086   0.008  0.00  0.00    +0.240 C 
BRANCH  15  16
ATOM     16  C   LIG    1       -0.718   1.572   1.248  0.00  0.00    -0.120 A 
ATOM     17  C   LIG    1       -0.511   2.861   1.700  0.00  0.00    +0.040 A 
ATOM     18  C   LIG    1       -1.161   3.308   2.836  0.00  0.00    +0.010 A 
ATOM     19  C   LIG    1       -2.012   2.463   3.523  0.00  0.00    +0.010 A 
ATOM     20  C   LIG    1       -2.215   1.172   3.073  0.00  0.00    +0.010 A 
ATOM     21  C   LIG    1       -1.568   0.726   1.936  0.00  0.00    +0.030 A 
ENDBRANCH  15  16
BRANCH  15  22
ATOM     22  C   LIG    1       -0.753   1.593  -1.232  0.00  0.00    +0.140 C 
BRANCH  22  23
ATOM     23  C   LIG    1       -0.121   1.007  -2.468  0.00  0.00    +0.460 C 
ATOM     24  O   LIG    1        0.824   0.261  -2.368  0.00  0.00    -0.500 OA
BRANCH  23  25
ATOM     25  O   LIG    1       -0.608   1.314  -3.680  0.00  0.00    -0.360 OA
BRANCH  25  27
ATOM     26  C   LIG    1       -0.640   1.178  -6.112  0.00  0.00    +0.070 C 
ATOM     27  C   LIG    1        0.050   0.714  -4.827  0.00  0.00    +0.200 C 
ENDBRANCH  25  27
ENDBRANCH  23  25
ENDBRANCH  22  23
ENDBRANCH  15  22
ENDBRANCH   1  15
TORSDOF 9
