REMARK  Name = ZINCpe00000gMqiL.2
REMARK                            x       y       z     vdW  Elec       q    Type
REMARK                         _______ _______ _______ _____ _____    ______ ____
ROOT
ATOM      1  N   LIG    1       -0.847   5.477   8.128  0.00  0.00    -0.550 NA
ATOM      2  C   LIG    1       -0.351   4.151   7.764  0.00  0.00    +0.180 C 
ATOM      3  C   LIG    1       -1.500   3.168   7.790  0.00  0.00    +0.040 C 
ATOM      4  C   LIG    1       -2.133   3.068   6.388  0.00  0.00    +0.250 C 
ATOM      5  N   LIG    1       -2.206   4.393   5.742  0.00  0.00    -0.600 N 
ATOM      6  C   LIG    1       -2.605   5.587   6.459  0.00  0.00    +0.300 C 
ATOM      7  C   LIG    1       -1.895   4.495   4.435  0.00  0.00    +0.520 C 
ATOM      8  O   LIG    1       -1.953   5.572   3.880  0.00  0.00    -0.530 OA
ATOM      9  C   LIG    1       -1.358   6.268   7.073  0.00  0.00    +0.180 C 
ENDROOT
BRANCH   7  10
ATOM     10  C   LIG    1       -1.477   3.271   3.662  0.00  0.00    +0.000 C 
ATOM     11  C   LIG    1       -2.656   2.283   3.510  0.00  0.00    +0.080 C 
ATOM     12  C   LIG    1       -2.488   1.714   2.118  0.00  0.00    +0.520 C 
ATOM     13  N   LIG    1       -1.643   2.478   1.405  0.00  0.00    -0.620 N 
ATOM     14  O   LIG    1       -3.034   0.712   1.707  0.00  0.00    -0.520 OA
ATOM     15  C   LIG    1       -1.171   3.625   2.190  0.00  0.00    +0.310 C 
BRANCH  13  16
ATOM     16  C   LIG    1       -1.250   2.205   0.020  0.00  0.00    +0.430 C 
BRANCH  16  17
ATOM     17  C   LIG    1       -0.016   1.341   0.009  0.00  0.00    -0.050 A 
ATOM     18  C   LIG    1        0.002  -0.004   0.002  0.00  0.00    -0.030 A 
ATOM     19  C   LIG    1        1.361  -0.395  -0.013  0.00  0.00    -0.070 A 
ATOM     20  C   LIG    1        2.091   0.734  -0.014  0.00  0.00    +0.170 A 
ATOM     21  O   LIG    1        1.252   1.783  -0.000  0.00  0.00    -0.170 OA
ENDBRANCH  16  17
ENDBRANCH  13  16
ENDBRANCH   7  10
BRANCH   1  22
ATOM     22  C   LIG    1        0.156   6.220   8.904  0.00  0.00    +0.190 C 
BRANCH  22  23
ATOM     23  C   LIG    1       -0.518   7.391   9.621  0.00  0.00    +0.160 C 
BRANCH  23  25
ATOM     24  C   LIG    1       -2.135   7.907  11.314  0.00  0.00    +0.200 C 
ATOM     25  O   LIG    1       -1.446   6.889  10.585  0.00  0.00    -0.370 OA
ENDBRANCH  23  25
ENDBRANCH  22  23
ENDBRANCH   1  22
TORSDOF 6
