REMARK  Name = ZINCb80000002obC.0
REMARK                            x       y       z     vdW  Elec       q    Type
REMARK                         _______ _______ _______ _____ _____    ______ ____
ROOT
ATOM      1  C   LIG    1       -1.343   1.910   0.019  0.00  0.00    +0.140 C 
ATOM      2  N   LIG    1       -1.167   3.309   0.439  0.00  0.00    -0.680 NA
ATOM      3  H   LIG    1       -2.031   3.822   0.357  0.00  0.00    +0.350 HD
ATOM      4  C   LIG    1       -0.100   3.942  -0.353  0.00  0.00    +0.180 C 
ATOM      5  C   LIG    1        1.241   3.322   0.044  0.00  0.00    +0.270 C 
ATOM      6  N   LIG    1        1.151   1.865   0.001  0.00  0.00    -0.600 N 
ATOM      7  C   LIG    1       -0.014   1.209   0.009  0.00  0.00    +0.520 C 
ATOM      8  O   LIG    1        0.002  -0.004   0.002  0.00  0.00    -0.540 OA
ENDROOT
BRANCH   1  10
ATOM      9  C   LIG    1       -3.673   1.838   0.918  0.00  0.00    +0.020 C 
ATOM     10  C   LIG    1       -2.283   1.204   0.997  0.00  0.00    +0.040 C 
ENDBRANCH   1  10
BRANCH   6  11
ATOM     11  C   LIG    1        2.391   1.088  -0.053  0.00  0.00    +0.270 C 
ATOM     12  C   LIG    1        2.788   0.863  -1.514  0.00  0.00    +0.010 C 
ENDBRANCH   6  11
TORSDOF 2
