REMARK  Name = ZINCnE000008Jg4D.1
REMARK                            x       y       z     vdW  Elec       q    Type
REMARK                         _______ _______ _______ _____ _____    ______ ____
ROOT
ATOM      1  C   LIG    1        2.292   1.456  -0.012  0.00  0.00    +0.180 A 
ATOM      2  C   LIG    1        2.372   0.093  -0.020  0.00  0.00    -0.240 A 
ATOM      3  C   LIG    1        1.183  -0.658  -0.013  0.00  0.00    +0.500 A 
ATOM      4  N   LIG    1        0.002  -0.004   0.002  0.00  0.00    -0.630 NA
ATOM      5  C   LIG    1       -0.016   1.358   0.009  0.00  0.00    +0.340 A 
ATOM      6  O   LIG    1        1.218  -1.878  -0.020  0.00  0.00    -0.620 OA
ATOM      7  N   LIG    1        1.104   2.055   0.003  0.00  0.00    -0.620 NA
ENDROOT
BRANCH   1   8
ATOM      8  C   LIG    1        3.551   2.283  -0.020  0.00  0.00    +0.170 C 
BRANCH   8   9
ATOM      9  C   LIG    1        3.889   2.670  -1.437  0.00  0.00    +0.460 C 
ATOM     10  O   LIG    1        3.179   2.311  -2.347  0.00  0.00    -0.490 OA
BRANCH   9  12
ATOM     11  C   LIG    1        5.241   3.749  -3.076  0.00  0.00    +0.260 C 
ATOM     12  O   LIG    1        4.978   3.414  -1.688  0.00  0.00    -0.370 OA
ENDBRANCH   9  12
ENDBRANCH   8   9
ENDBRANCH   1   8
BRANCH   5  13
ATOM     13  S   LIG    1       -1.562   2.203   0.021  0.00  0.00    -0.030 S 
BRANCH  13  14
ATOM     14  C   LIG    1       -0.983   3.918   0.028  0.00  0.00    +0.110 C 
BRANCH  14  15
ATOM     15  C   LIG    1       -2.187   4.862   0.039  0.00  0.00    +0.100 C 
BRANCH  15  16
ATOM     16  S   LIG    1       -1.606   6.581   0.045  0.00  0.00    -0.080 S 
BRANCH  16  17
ATOM     17  C   LIG    1       -3.106   7.506   0.058  0.00  0.00    -0.080 A 
ATOM     18  C   LIG    1       -4.330   6.848   0.054  0.00  0.00    +0.020 A 
ATOM     19  C   LIG    1       -5.503   7.575   0.068  0.00  0.00    +0.050 A 
ATOM     20  C   LIG    1       -5.461   8.959   0.075  0.00  0.00    -0.050 A 
ATOM     21  C   LIG    1       -4.244   9.617   0.074  0.00  0.00    +0.050 A 
ATOM     22 CL   LIG    1       -6.939   9.870   0.085  0.00  0.00    -0.070 Cl
ATOM     23  C   LIG    1       -3.067   8.895   0.065  0.00  0.00    +0.050 A 
ENDBRANCH  16  17
ENDBRANCH  15  16
ENDBRANCH  14  15
ENDBRANCH  13  14
ENDBRANCH   5  13
TORSDOF 8
