REMARK  Name = ZINCtV000002BIKj.0
REMARK                            x       y       z     vdW  Elec       q    Type
REMARK                         _______ _______ _______ _____ _____    ______ ____
ROOT
ATOM      1  N   LIG    1        7.738  -0.085  -1.450  0.00  0.00    -0.510 NA
ATOM      2  C   LIG    1        6.946   1.018  -2.008  0.00  0.00    +0.190 C 
ATOM      3  C   LIG    1        7.290   1.198  -3.488  0.00  0.00    +0.020 C 
ATOM      4  C   LIG    1        8.785   1.498  -3.627  0.00  0.00    +0.010 C 
ATOM      5  C   LIG    1        9.587   0.356  -2.995  0.00  0.00    +0.050 C 
ATOM      6  C   LIG    1        9.176   0.200  -1.529  0.00  0.00    +0.220 C 
ENDROOT
BRANCH   6   7
ATOM      7  C   LIG    1        9.948  -0.935  -0.909  0.00  0.00    +0.090 A 
ATOM      8  N   LIG    1        9.704  -2.173  -1.122  0.00  0.00    -0.430 NA
ATOM      9  C   LIG    1       10.479  -3.083  -0.502  0.00  0.00    +0.080 A 
ATOM     10  C   LIG    1       10.435  -4.490  -0.558  0.00  0.00    +0.070 A 
ATOM     11  C   LIG    1       11.319  -5.237   0.160  0.00  0.00    +0.030 A 
ATOM     12  C   LIG    1       12.277  -4.630   0.959  0.00  0.00    +0.040 A 
ATOM     13  C   LIG    1       12.344  -3.256   1.033  0.00  0.00    +0.060 A 
ATOM     14  C   LIG    1       11.448  -2.477   0.305  0.00  0.00    -0.180 A 
ATOM     15  S   LIG    1       11.254  -0.732   0.170  0.00  0.00    +0.090 S 
ENDBRANCH   6   7
BRANCH   1  16
ATOM     16  C   LIG    1        7.334  -0.377  -0.068  0.00  0.00    +0.270 C 
BRANCH  16  19
ATOM     17  C   LIG    1        3.705  -0.675  -0.036  0.00  0.00    +0.110 A 
ATOM     18  N   LIG    1        4.879  -0.111  -0.044  0.00  0.00    -0.460 NA
ATOM     19  C   LIG    1        5.924  -0.908  -0.058  0.00  0.00    +0.080 A 
ATOM     20  C   LIG    1        5.658  -2.217  -0.062  0.00  0.00    -0.070 A 
ATOM     21  S   LIG    1        3.908  -2.425  -0.040  0.00  0.00    +0.140 S 
BRANCH  17  27
ATOM     22  C   LIG    1        1.210  -0.682  -0.013  0.00  0.00    +0.150 A 
ATOM     23  C   LIG    1        0.002  -0.004   0.002  0.00  0.00    -0.070 A 
ATOM     24  C   LIG    1       -0.017   1.378   0.010  0.00  0.00    +0.070 A 
ATOM     25  C   LIG    1        1.168   2.094   0.002  0.00  0.00    -0.030 A 
ATOM     26  C   LIG    1        2.379   1.433  -0.013  0.00  0.00    +0.100 A 
ATOM     27  C   LIG    1        2.411   0.038  -0.021  0.00  0.00    -0.060 A 
BRANCH  22  29
ATOM     28  C   LIG    1       -0.034  -2.707  -0.011  0.00  0.00    +0.250 C 
ATOM     29  O   LIG    1        1.230  -2.040  -0.020  0.00  0.00    -0.310 OA
ENDBRANCH  22  29
ENDBRANCH  17  27
ENDBRANCH  16  19
ENDBRANCH   1  16
TORSDOF 5
