REMARK  Name = ZINCpe00000yMZg4.0
REMARK                            x       y       z     vdW  Elec       q    Type
REMARK                         _______ _______ _______ _____ _____    ______ ____
ROOT
ATOM      1  C   LIG    1        4.890   5.733  -1.712  0.00  0.00    +0.420 A 
ATOM      2  C   LIG    1        4.212   4.871  -0.833  0.00  0.00    -0.060 A 
ATOM      3  N   LIG    1        4.541   4.229   0.314  0.00  0.00    -0.450 NA
ATOM      4  C   LIG    1        3.519   3.541   0.733  0.00  0.00    +0.480 A 
ATOM      5  N   LIG    1        2.469   3.699  -0.122  0.00  0.00    -0.460 N 
ATOM      6  C   LIG    1        2.881   4.535  -1.129  0.00  0.00    +0.300 A 
ATOM      7  N   LIG    1        2.312   5.047  -2.216  0.00  0.00    -0.530 NA
ATOM      8  C   LIG    1        2.986   5.850  -3.011  0.00  0.00    +0.550 A 
ATOM      9  N   LIG    1        4.240   6.191  -2.776  0.00  0.00    -0.560 NA
ENDROOT
BRANCH   1  15
ATOM     10  C   LIG    1        9.430   9.527  -1.471  0.00  0.00    +0.140 A 
ATOM     11  C   LIG    1        9.199   9.460  -0.105  0.00  0.00    -0.080 A 
ATOM     12  C   LIG    1        8.209   8.632   0.388  0.00  0.00    +0.080 A 
ATOM     13  C   LIG    1        7.448   7.871  -0.478  0.00  0.00    -0.150 A 
ATOM     14  C   LIG    1        6.318   6.896  -0.234  0.00  0.00    +0.280 C 
ATOM     15  N   LIG    1        6.205   6.096  -1.474  0.00  0.00    -0.440 N 
ATOM     16  C   LIG    1        6.703   7.005  -2.531  0.00  0.00    +0.280 C 
ATOM     17  C   LIG    1        7.676   7.936  -1.843  0.00  0.00    -0.060 A 
ATOM     18  C   LIG    1        8.665   8.761  -2.340  0.00  0.00    +0.000 A 
BRANCH  10  20
ATOM     19  C   LIG    1       11.151  11.100  -1.006  0.00  0.00    +0.250 C 
ATOM     20  O   LIG    1       10.403  10.341  -1.958  0.00  0.00    -0.320 OA
ENDBRANCH  10  20
ENDBRANCH   1  15
BRANCH   5  21
ATOM     21  C   LIG    1        1.145   3.085   0.008  0.00  0.00    +0.260 C 
BRANCH  21  22
ATOM     22  C   LIG    1        0.503   3.530   1.324  0.00  0.00    +0.200 C 
BRANCH  22  23
ATOM     23  O   LIG    1        0.264   4.938   1.285  0.00  0.00    -0.570 OA
ATOM     24  H   LIG    1       -0.142   5.290   2.089  0.00  0.00    +0.390 HD
ENDBRANCH  22  23
ENDBRANCH  21  22
BRANCH  21  25
ATOM     25  C   LIG    1        1.286   1.562  -0.002  0.00  0.00    +0.190 C 
BRANCH  25  26
ATOM     26  O   LIG    1       -0.011   0.963   0.007  0.00  0.00    -0.560 OA
ATOM     27  H   LIG    1        0.002  -0.004   0.002  0.00  0.00    +0.390 HD
ENDBRANCH  25  26
ENDBRANCH  21  25
ENDBRANCH   5  21
TORSDOF 7
