REMARK  Name = ZINCqH0000002RZx.0
REMARK                            x       y       z     vdW  Elec       q    Type
REMARK                         _______ _______ _______ _____ _____    ______ ____
ROOT
ATOM      1  C   LIG    1        0.315   7.959  -0.100  0.00  0.00    +0.240 C 
ENDROOT
BRANCH   1   4
ATOM      2  N   LIG    1       -0.754  10.187  -0.210  0.00  0.00    -0.670 N 
ATOM      3  H   LIG    1        0.133  10.579  -0.227  0.00  0.00    +0.410 HD
ATOM      4  C   LIG    1       -0.898   8.846  -0.204  0.00  0.00    +0.510 C 
ATOM      5  O   LIG    1       -2.004   8.355  -0.282  0.00  0.00    -0.490 OA
BRANCH   2   9
ATOM      6  C   LIG    1       -4.118  12.644  -0.157  0.00  0.00    -0.090 A 
ATOM      7  C   LIG    1       -4.130  11.443   0.529  0.00  0.00    +0.030 A 
ATOM      8  C   LIG    1       -3.016  10.626   0.513  0.00  0.00    +0.010 A 
ATOM      9  C   LIG    1       -1.884  11.012  -0.192  0.00  0.00    +0.140 A 
ATOM     10  C   LIG    1       -1.874  12.220  -0.876  0.00  0.00    -0.010 A 
ATOM     11  C   LIG    1       -2.993  13.030  -0.861  0.00  0.00    +0.030 A 
BRANCH   6  12
ATOM     12  C   LIG    1       -5.335  13.533  -0.137  0.00  0.00    +0.060 C 
BRANCH  12  14
ATOM     13  C   LIG    1       -6.476  15.403   1.064  0.00  0.00    +0.010 C 
ATOM     14  C   LIG    1       -5.241  14.500   1.044  0.00  0.00    +0.000 C 
ENDBRANCH  12  14
ENDBRANCH   6  12
ENDBRANCH   2   9
ENDBRANCH   1   4
BRANCH   1  15
ATOM     15  O   LIG    1       -0.094   6.590  -0.113  0.00  0.00    -0.290 OA
BRANCH  15  16
ATOM     16  C   LIG    1        0.886   5.652  -0.026  0.00  0.00    +0.160 A 
ATOM     17  C   LIG    1        2.214   6.043   0.071  0.00  0.00    -0.110 A 
ATOM     18  C   LIG    1        3.212   5.090   0.160  0.00  0.00    +0.080 A 
ATOM     19  C   LIG    1        2.890   3.747   0.159  0.00  0.00    -0.060 A 
ATOM     20  C   LIG    1        1.562   3.350   0.056  0.00  0.00    +0.210 A 
ATOM     21  C   LIG    1        0.559   4.305  -0.034  0.00  0.00    -0.030 A 
BRANCH  20  22
ATOM     22  N   LIG    1        1.237   1.989   0.048  0.00  0.00    -0.560 N 
ATOM     23  C   LIG    1        2.223   0.902   0.025  0.00  0.00    +0.260 C 
ATOM     24  C   LIG    1        1.451  -0.363   0.460  0.00  0.00    +0.060 C 
ATOM     25  C   LIG    1        0.002  -0.003   0.058  0.00  0.00    +0.070 C 
ATOM     26  C   LIG    1       -0.019   1.510   0.062  0.00  0.00    +0.510 C 
ATOM     27  O   LIG    1       -1.022   2.191   0.070  0.00  0.00    -0.500 OA
ENDBRANCH  20  22
ENDBRANCH  15  16
ENDBRANCH   1  15
TORSDOF 7
