REMARK  Name = ZINCrD000000AcDI.0
REMARK                            x       y       z     vdW  Elec       q    Type
REMARK                         _______ _______ _______ _____ _____    ______ ____
ROOT
ATOM      1  O   LIG    1       -7.276  -3.845   0.756  0.00  0.00    -0.540 OA
ATOM      2  C   LIG    1       -6.570  -3.483   1.673  0.00  0.00    +0.510 C 
ATOM      3  N   LIG    1       -5.400  -2.864   1.419  0.00  0.00    -0.730 N 
ATOM      4  H   LIG    1       -4.835  -2.574   2.153  0.00  0.00    +0.400 HD
ENDROOT
BRANCH   3   5
ATOM      5  C   LIG    1       -4.981  -2.629   0.035  0.00  0.00    +0.320 C 
BRANCH   5   6
ATOM      6  C   LIG    1       -3.648  -1.927   0.026  0.00  0.00    -0.140 A 
ATOM      7  C   LIG    1       -2.479  -2.665   0.011  0.00  0.00    +0.080 A 
ATOM      8  C   LIG    1       -1.255  -2.024   0.003  0.00  0.00    +0.000 A 
ATOM      9  C   LIG    1       -1.200  -0.637   0.010  0.00  0.00    +0.110 A 
ATOM     10  C   LIG    1       -2.374   0.101   0.031  0.00  0.00    -0.050 A 
ATOM     11  C   LIG    1       -3.595  -0.545   0.034  0.00  0.00    +0.070 A 
BRANCH   9  12
ATOM     12  O   LIG    1        0.002  -0.004   0.002  0.00  0.00    -0.320 OA
BRANCH  12  13
ATOM     13  C   LIG    1       -0.017   1.425   0.010  0.00  0.00    +0.590 C 
ATOM     14  F   LIG    1       -0.672   1.876   1.161  0.00  0.00    -0.200 F 
ATOM     15  F   LIG    1       -0.694   1.888  -1.123  0.00  0.00    -0.200 F 
ENDBRANCH  12  13
ENDBRANCH   9  12
ENDBRANCH   5   6
ENDBRANCH   3   5
BRANCH   2  16
ATOM     16  C   LIG    1       -7.001  -3.725   3.097  0.00  0.00    +0.060 C 
BRANCH  16  17
ATOM     17  C   LIG    1       -8.354  -4.438   3.106  0.00  0.00    +0.040 C 
BRANCH  17  18
ATOM     18  C   LIG    1       -8.792  -4.683   4.552  0.00  0.00    +0.280 C 
BRANCH  18  19
ATOM     19  N   LIG    1      -10.088  -5.366   4.560  0.00  0.00    -0.750 N 
ATOM     20  H   LIG    1      -10.525  -5.588   3.723  0.00  0.00    +0.400 HD
ATOM     21  C   LIG    1      -10.673  -5.686   5.731  0.00  0.00    +0.700 C 
ATOM     22  N   LIG    1      -11.866  -6.315   5.739  0.00  0.00    -0.740 N 
ATOM     23  H   LIG    1      -12.303  -6.536   4.902  0.00  0.00    +0.400 HD
ATOM     24  O   LIG    1      -10.125  -5.409   6.781  0.00  0.00    -0.590 OA
BRANCH  22  25
ATOM     25  C   LIG    1      -12.502  -6.663   7.012  0.00  0.00    +0.250 C 
ATOM     26  C   LIG    1      -11.957  -8.005   7.505  0.00  0.00    +0.000 C 
ATOM     27  C   LIG    1      -12.621  -8.369   8.834  0.00  0.00    +0.000 C 
ATOM     28  C   LIG    1      -14.134  -8.475   8.636  0.00  0.00    +0.000 C 
ATOM     29  C   LIG    1      -14.679  -7.133   8.144  0.00  0.00    +0.020 C 
ATOM     30  C   LIG    1      -14.015  -6.769   6.814  0.00  0.00    +0.010 C 
ENDBRANCH  22  25
ENDBRANCH  18  19
ENDBRANCH  17  18
ENDBRANCH  16  17
ENDBRANCH   2  16
TORSDOF 9
