REMARK  Name = ZINCrD000000gUpS.0
REMARK                            x       y       z     vdW  Elec       q    Type
REMARK                         _______ _______ _______ _____ _____    ______ ____
ROOT
ATOM      1  C   LIG    1       -1.585  -1.190  -1.431  0.00  0.00    +0.110 C 
ATOM      2  C   LIG    1       -2.878  -2.010  -1.425  0.00  0.00    +0.050 C 
ATOM      3  C   LIG    1       -3.281  -2.340  -2.864  0.00  0.00    +0.030 C 
ATOM      4  C   LIG    1       -3.538  -1.038  -3.629  0.00  0.00    +0.280 C 
ATOM      5  N   LIG    1       -2.350  -0.181  -3.517  0.00  0.00    -0.590 N 
ATOM      6  C   LIG    1       -1.755   0.316  -4.620  0.00  0.00    +0.650 C 
ATOM      7  O   LIG    1       -0.773   1.023  -4.513  0.00  0.00    -0.570 OA
ATOM      8  C   LIG    1       -1.823   0.125  -2.180  0.00  0.00    +0.280 C 
ENDROOT
BRANCH   1   9
ATOM      9  O   LIG    1       -0.553  -1.931  -2.084  0.00  0.00    -0.540 OA
ATOM     10  H   LIG    1        0.296  -1.471  -2.126  0.00  0.00    +0.380 HD
ENDBRANCH   1   9
BRANCH   1  11
ATOM     11  C   LIG    1       -1.165  -0.889   0.009  0.00  0.00    +0.300 C 
BRANCH  11  14
ATOM     12  C   LIG    1        2.053   0.735  -0.014  0.00  0.00    +0.020 A 
ATOM     13  C   LIG    1        1.315  -0.391  -0.013  0.00  0.00    +0.110 A 
ATOM     14  N   LIG    1        0.002  -0.004   0.002  0.00  0.00    -0.460 N 
ATOM     15  C   LIG    1       -0.016   1.346   0.009  0.00  0.00    +0.380 A 
ATOM     16  N   LIG    1        1.214   1.781   0.000  0.00  0.00    -0.480 NA
BRANCH  12  18
ATOM     17  C   LIG    1        4.073   0.466  -1.427  0.00  0.00    +0.030 C 
ATOM     18  C   LIG    1        3.558   0.807  -0.027  0.00  0.00    +0.010 C 
ATOM     19  C   LIG    1        4.126  -0.192   0.983  0.00  0.00    +0.030 C 
ATOM     20  C   LIG    1        4.005   2.222   0.350  0.00  0.00    +0.030 C 
ENDBRANCH  12  18
ENDBRANCH  11  14
ENDBRANCH   1  11
BRANCH   6  21
ATOM     21  O   LIG    1       -2.248   0.028  -5.839  0.00  0.00    -0.360 OA
BRANCH  21  22
ATOM     22  C   LIG    1       -1.556   0.596  -6.981  0.00  0.00    +0.290 C 
BRANCH  22  23
ATOM     23  C   LIG    1       -2.246   0.168  -8.251  0.00  0.00    -0.100 A 
ATOM     24  C   LIG    1       -1.856  -0.993  -8.892  0.00  0.00    +0.030 A 
ATOM     25  C   LIG    1       -2.491  -1.388 -10.054  0.00  0.00    +0.010 A 
ATOM     26  C   LIG    1       -3.511  -0.617 -10.580  0.00  0.00    +0.020 A 
ATOM     27  C   LIG    1       -3.898   0.546  -9.942  0.00  0.00    +0.010 A 
ATOM     28  C   LIG    1       -3.265   0.939  -8.777  0.00  0.00    +0.030 A 
ENDBRANCH  22  23
ENDBRANCH  21  22
ENDBRANCH   6  21
TORSDOF 7
