REMARK  Name = ZINCvU0000000HLD.0
REMARK                            x       y       z     vdW  Elec       q    Type
REMARK                         _______ _______ _______ _____ _____    ______ ____
ROOT
ATOM      1  N   LIG    1       -4.220  -0.360   0.333  0.00  0.00    -0.520 N 
ATOM      2  C   LIG    1       -5.166   0.260   1.087  0.00  0.00    +0.610 A 
ATOM      3  N   LIG    1       -6.434   0.072   0.898  0.00  0.00    -0.500 NA
ATOM      4  C   LIG    1       -6.899  -0.769  -0.080  0.00  0.00    +0.180 A 
ATOM      5  C   LIG    1       -5.967  -1.428  -0.879  0.00  0.00    -0.340 A 
ATOM      6  S   LIG    1       -6.799  -2.442  -2.049  0.00  0.00    +0.250 S 
ATOM      7  C   LIG    1       -8.366  -1.950  -1.428  0.00  0.00    -0.110 A 
ATOM      8  C   LIG    1       -8.216  -1.084  -0.415  0.00  0.00    +0.040 A 
ATOM      9  C   LIG    1       -4.588  -1.200  -0.656  0.00  0.00    +0.570 A 
ATOM     10  O   LIG    1       -3.747  -1.758  -1.342  0.00  0.00    -0.530 OA
ENDROOT
BRANCH   7  11
ATOM     11  C   LIG    1       -9.666  -2.422  -1.949  0.00  0.00    -0.010 A 
ATOM     12  C   LIG    1      -10.857  -1.970  -1.377  0.00  0.00    +0.050 A 
ATOM     13  C   LIG    1      -12.067  -2.411  -1.871  0.00  0.00    +0.060 A 
ATOM     14  C   LIG    1      -12.102  -3.308  -2.925  0.00  0.00    -0.080 A 
ATOM     15  C   LIG    1      -10.925  -3.764  -3.493  0.00  0.00    +0.060 A 
ATOM     16 BR   LIG    1      -13.766  -3.913  -3.591  0.00  0.00    -0.040 Br
ATOM     17  C   LIG    1       -9.709  -3.327  -3.011  0.00  0.00    +0.030 A 
ENDBRANCH   7  11
BRANCH   1  18
ATOM     18  C   LIG    1       -2.800  -0.110   0.590  0.00  0.00    +0.210 C 
ATOM     19  C   LIG    1       -2.461  -0.524   2.023  0.00  0.00    +0.080 C 
BRANCH  18  20
ATOM     20  C   LIG    1       -2.507   1.357   0.408  0.00  0.00    +0.420 C 
ATOM     21  O   LIG    1       -3.410   2.167   0.456  0.00  0.00    -0.440 OA
BRANCH  20  26
ATOM     22  C   LIG    1        0.625   3.065  -0.197  0.00  0.00    -0.260 A 
ATOM     23  C   LIG    1        1.019   1.736  -0.126  0.00  0.00    +0.130 A 
ATOM     24  N   LIG    1       -0.064   0.981   0.104  0.00  0.00    -0.520 N 
ATOM     25  H   LIG    1       -0.064   0.015   0.197  0.00  0.00    +0.420 HD
ATOM     26  C   LIG    1       -1.179   1.791   0.181  0.00  0.00    -0.100 A 
ATOM     27  C   LIG    1        2.429   1.228  -0.282  0.00  0.00    +0.160 C 
ATOM     28  C   LIG    1       -0.773   3.095   0.003  0.00  0.00    -0.000 A 
ATOM     29  C   LIG    1       -1.653   4.319   0.014  0.00  0.00    +0.140 C 
BRANCH  22  31
ATOM     30  C   LIG    1        1.798   4.659  -1.845  0.00  0.00    +0.070 C 
ATOM     31  C   LIG    1        1.497   4.220  -0.435  0.00  0.00    +0.430 C 
ATOM     32  O   LIG    1        1.976   4.823   0.503  0.00  0.00    -0.450 OA
ENDBRANCH  22  31
ENDBRANCH  20  26
ENDBRANCH  18  20
ENDBRANCH   1  18
TORSDOF 5
