REMARK  Name = ZINCrD00000eKVY7.0
REMARK                            x       y       z     vdW  Elec       q    Type
REMARK                         _______ _______ _______ _____ _____    ______ ____
ROOT
ATOM      1  N   LIG    1        3.403   6.341  -2.636  0.00  0.00    -0.710 N 
ATOM      2  H   LIG    1        3.178   6.659  -3.525  0.00  0.00    +0.410 HD
ATOM      3  C   LIG    1        2.425   6.019  -1.767  0.00  0.00    +0.610 C 
ATOM      4  O   LIG    1        2.708   5.622  -0.653  0.00  0.00    -0.550 OA
ENDROOT
BRANCH   3   5
ATOM      5  C   LIG    1        1.012   6.148  -2.167  0.00  0.00    -0.300 A 
ATOM      6  C   LIG    1       -0.090   5.857  -1.388  0.00  0.00    +0.170 A 
ATOM      7  N   LIG    1       -1.182   6.105  -2.128  0.00  0.00    -0.360 N 
ATOM      8  N   LIG    1       -0.772   6.567  -3.384  0.00  0.00    -0.290 NA
ATOM      9  C   LIG    1       -2.570   5.926  -1.693  0.00  0.00    +0.360 C 
ATOM     10  C   LIG    1        0.532   6.593  -3.419  0.00  0.00    +0.280 A 
BRANCH   6  11
ATOM     11  C   LIG    1       -0.070   5.347   0.030  0.00  0.00    +0.180 C 
BRANCH  11  12
ATOM     12  C   LIG    1       -0.050   3.840   0.022  0.00  0.00    -0.080 A 
ATOM     13  C   LIG    1        1.156   3.165   0.008  0.00  0.00    +0.040 A 
ATOM     14  C   LIG    1        1.175   1.783   0.000  0.00  0.00    +0.000 A 
ATOM     15  C   LIG    1       -0.013   1.076   0.008  0.00  0.00    +0.000 A 
ATOM     16  C   LIG    1       -1.219   1.751   0.017  0.00  0.00    +0.000 A 
ATOM     17  C   LIG    1       -1.238   3.133   0.029  0.00  0.00    +0.000 A 
ENDBRANCH  11  12
ENDBRANCH   6  11
ENDBRANCH   3   5
BRANCH   1  19
ATOM     18  C   LIG    1        5.275   4.775  -2.473  0.00  0.00    +0.060 C 
ATOM     19  C   LIG    1        4.808   6.213  -2.239  0.00  0.00    +0.340 C 
BRANCH  19  20
ATOM     20  C   LIG    1        5.650   7.155  -3.060  0.00  0.00    +0.280 A 
ATOM     21  N   LIG    1        5.333   7.603  -4.239  0.00  0.00    -0.480 NA
ATOM     22  C   LIG    1        6.312   8.428  -4.693  0.00  0.00    +0.050 A 
ATOM     23  C   LIG    1        6.484   9.163  -5.868  0.00  0.00    +0.070 A 
ATOM     24  C   LIG    1        7.608   9.922  -6.038  0.00  0.00    +0.000 A 
ATOM     25  C   LIG    1        8.584   9.971  -5.053  0.00  0.00    +0.030 A 
ATOM     26  C   LIG    1        8.435   9.252  -3.886  0.00  0.00    +0.010 A 
ATOM     27  C   LIG    1        7.300   8.477  -3.696  0.00  0.00    +0.050 A 
ATOM     28  N   LIG    1        6.850   7.666  -2.673  0.00  0.00    -0.590 N 
ATOM     29  H   LIG    1        7.306   7.491  -1.834  0.00  0.00    +0.420 HD
ENDBRANCH  19  20
ENDBRANCH   1  19
TORSDOF 5
