REMARK  Name = ZINCqH0000037FLg.0
REMARK                            x       y       z     vdW  Elec       q    Type
REMARK                         _______ _______ _______ _____ _____    ______ ____
ROOT
ATOM      1  N   LIG    1       -6.763   0.407   1.355  0.00  0.00    -0.720 N 
ATOM      2  H   LIG    1       -6.121   0.299   2.074  0.00  0.00    +0.410 HD
ENDROOT
BRANCH   1   6
ATOM      3  C   LIG    1      -11.616   1.445   0.783  0.00  0.00    +0.140 C 
ATOM      4  C   LIG    1      -10.262   1.176   1.389  0.00  0.00    +0.110 A 
ATOM      5  C   LIG    1       -9.125   0.902   0.710  0.00  0.00    -0.140 A 
ATOM      6  C   LIG    1       -8.097   0.713   1.649  0.00  0.00    +0.350 A 
ATOM      7  N   LIG    1       -8.602   0.879   2.849  0.00  0.00    -0.330 NA
ATOM      8  N   LIG    1       -9.965   1.171   2.714  0.00  0.00    -0.330 N 
BRANCH   8   9
ATOM      9  C   LIG    1      -10.864   1.416   3.761  0.00  0.00    +0.120 A 
ATOM     10  C   LIG    1      -11.713   2.513   3.707  0.00  0.00    +0.040 A 
ATOM     11  C   LIG    1      -12.602   2.749   4.738  0.00  0.00    +0.030 A 
ATOM     12  C   LIG    1      -12.640   1.900   5.829  0.00  0.00    +0.050 A 
ATOM     13  C   LIG    1      -11.792   0.809   5.890  0.00  0.00    +0.000 A 
ATOM     14  C   LIG    1      -10.904   0.564   4.859  0.00  0.00    +0.110 A 
ATOM     15  F   LIG    1      -10.076  -0.502   4.919  0.00  0.00    -0.120 F 
ENDBRANCH   8   9
ENDBRANCH   1   6
BRANCH   1  16
ATOM     16  C   LIG    1       -6.338   0.251  -0.038  0.00  0.00    +0.370 C 
BRANCH  16  17
ATOM     17  C   LIG    1       -4.867  -0.074  -0.080  0.00  0.00    +0.070 A 
ATOM     18  C   LIG    1       -3.862   0.815  -0.239  0.00  0.00    -0.060 A 
ATOM     19  C   LIG    1       -2.648   0.100  -0.224  0.00  0.00    +0.110 A 
ATOM     20  N   LIG    1       -2.930  -1.174  -0.052  0.00  0.00    -0.260 NA
ATOM     21  N   LIG    1       -4.321  -1.303   0.041  0.00  0.00    -0.460 N 
ATOM     22  H   LIG    1       -4.809  -2.132   0.170  0.00  0.00    +0.440 HD
BRANCH  19  23
ATOM     23  C   LIG    1       -1.291   0.682  -0.371  0.00  0.00    +0.030 A 
ATOM     24  C   LIG    1       -0.154  -0.130  -0.335  0.00  0.00    -0.010 A 
ATOM     25  C   LIG    1        1.089   0.451  -0.481  0.00  0.00    +0.260 A 
ATOM     26  N   LIG    1        1.212   1.754  -0.648  0.00  0.00    -0.480 NA
ATOM     27  C   LIG    1        0.165   2.556  -0.683  0.00  0.00    +0.260 A 
ATOM     28  C   LIG    1       -1.114   2.058  -0.545  0.00  0.00    -0.010 A 
ENDBRANCH  19  23
ENDBRANCH  16  17
ENDBRANCH   1  16
TORSDOF 5
