REMARK  Name = ZINCpe000000UIhk.0
REMARK                            x       y       z     vdW  Elec       q    Type
REMARK                         _______ _______ _______ _____ _____    ______ ____
ROOT
ATOM      1  C   LIG    1       -0.059  -0.552   1.405  0.00  0.00    +0.520 C 
ATOM      2  N   LIG    1       -1.127  -0.291   2.184  0.00  0.00    -0.730 N 
ATOM      3  H   LIG    1       -1.856   0.249   1.843  0.00  0.00    +0.400 HD
ATOM      4  O   LIG    1        0.853  -1.228   1.832  0.00  0.00    -0.520 OA
ENDROOT
BRANCH   1   7
ATOM      5  N   LIG    1        2.199   0.884  -0.367  0.00  0.00    -0.610 N 
ATOM      6  C   LIG    1        1.373  -0.297  -0.647  0.00  0.00    +0.300 C 
ATOM      7  C   LIG    1        0.002  -0.004   0.002  0.00  0.00    +0.000 C 
ATOM      8  C   LIG    1       -0.019   1.542   0.011  0.00  0.00    +0.080 C 
ATOM      9  C   LIG    1        1.442   1.933  -0.001  0.00  0.00    +0.520 C 
ATOM     10  O   LIG    1        1.869   3.033   0.278  0.00  0.00    -0.520 OA
BRANCH   5  14
ATOM     11  C   LIG    1        5.428   3.714  -0.380  0.00  0.00    +0.170 C 
ATOM     12  N   LIG    1        5.220   2.264  -0.481  0.00  0.00    -0.480 NA
ATOM     13  C   LIG    1        4.185   1.945  -1.489  0.00  0.00    +0.160 C 
ATOM     14  C   LIG    1        3.660   0.915  -0.474  0.00  0.00    +0.250 C 
ATOM     15  C   LIG    1        4.341   1.776   0.604  0.00  0.00    +0.170 C 
ENDBRANCH   5  14
ENDBRANCH   1   7
BRANCH   2  16
ATOM     16  C   LIG    1       -1.186  -0.824   3.548  0.00  0.00    +0.340 C 
BRANCH  16  17
ATOM     17  C   LIG    1       -2.473  -0.391   4.201  0.00  0.00    -0.060 A 
ATOM     18  C   LIG    1       -2.540   0.793   4.920  0.00  0.00    +0.030 A 
ATOM     19  C   LIG    1       -3.740   1.160   5.501  0.00  0.00    +0.290 A 
ATOM     20  N   LIG    1       -4.807   0.395   5.386  0.00  0.00    -0.440 NA
ATOM     21  C   LIG    1       -4.778  -0.740   4.714  0.00  0.00    +0.040 A 
ATOM     22  C   LIG    1       -3.616  -1.169   4.102  0.00  0.00    +0.050 A 
BRANCH  21  23
ATOM     23  C   LIG    1       -6.027  -1.577   4.613  0.00  0.00    +0.520 C 
ATOM     24  F   LIG    1       -6.017  -2.284   3.405  0.00  0.00    -0.170 F 
ATOM     25  F   LIG    1       -7.151  -0.746   4.658  0.00  0.00    -0.160 F 
ATOM     26  F   LIG    1       -6.071  -2.479   5.681  0.00  0.00    -0.170 F 
ENDBRANCH  21  23
ENDBRANCH  16  17
ENDBRANCH   2  16
TORSDOF 5
