REMARK  Name = ZINCpk00000xJ5rV.0
REMARK                            x       y       z     vdW  Elec       q    Type
REMARK                         _______ _______ _______ _____ _____    ______ ____
ROOT
ATOM      1  C   LIG    1       -0.019   1.527   0.010  0.00  0.00    +0.050 C 
ATOM      2  C   LIG    1        1.397   2.044  -0.000  0.00  0.00    +0.270 C 
ATOM      3  N   LIG    1        2.343   1.385   0.582  0.00  0.00    -0.480 NA
ATOM      4  C   LIG    1        2.115   0.214   1.196  0.00  0.00    +0.490 C 
ATOM      5  N   LIG    1        0.979  -0.475   0.989  0.00  0.00    -0.660 N 
ATOM      6  H   LIG    1        0.805  -1.285   1.494  0.00  0.00    +0.430 HD
ATOM      7  S   LIG    1        3.294  -0.416   2.265  0.00  0.00    -0.490 S 
ATOM      8  C   LIG    1        1.712   3.342  -0.698  0.00  0.00    +0.190 C 
ATOM      9  C   LIG    1        0.002  -0.004   0.002  0.00  0.00    +0.310 C 
ENDROOT
BRANCH   9  10
ATOM     10  C   LIG    1        0.393  -0.495  -1.368  0.00  0.00    -0.090 A 
ATOM     11  C   LIG    1        1.725  -0.504  -1.742  0.00  0.00    +0.010 A 
ATOM     12  C   LIG    1        2.090  -0.958  -2.993  0.00  0.00    +0.100 A 
ATOM     13  C   LIG    1        1.111  -1.398  -3.886  0.00  0.00    -0.110 A 
ATOM     14  C   LIG    1       -0.232  -1.381  -3.503  0.00  0.00    +0.100 A 
ATOM     15  C   LIG    1       -0.582  -0.930  -2.248  0.00  0.00    +0.030 A 
BRANCH  13  16
ATOM     16  C   LIG    1        1.495  -1.880  -5.228  0.00  0.00    +0.510 C 
ATOM     17  O   LIG    1        0.641  -2.263  -6.003  0.00  0.00    -0.500 OA
BRANCH  16  18
ATOM     18  O   LIG    1        2.791  -1.895  -5.594  0.00  0.00    -0.350 OA
ATOM     19  C   LIG    1        3.094  -2.381  -6.928  0.00  0.00    +0.290 C 
ENDBRANCH  16  18
ENDBRANCH  13  16
ENDBRANCH   9  10
BRANCH   1  20
ATOM     20  C   LIG    1       -0.723   2.014   1.251  0.00  0.00    +0.470 C 
ATOM     21  O   LIG    1       -1.163   1.219   2.047  0.00  0.00    -0.480 OA
BRANCH  20  22
ATOM     22  O   LIG    1       -0.861   3.330   1.471  0.00  0.00    -0.340 OA
BRANCH  22  23
ATOM     23  C   LIG    1       -1.549   3.727   2.686  0.00  0.00    +0.250 C 
BRANCH  23  24
ATOM     24  C   LIG    1       -1.609   5.254   2.764  0.00  0.00    +0.210 C 
BRANCH  24  26
ATOM     25  C   LIG    1       -2.534   7.178   1.674  0.00  0.00    +0.210 C 
ATOM     26  O   LIG    1       -2.413   5.754   1.693  0.00  0.00    -0.390 OA
ENDBRANCH  24  26
ENDBRANCH  23  24
ENDBRANCH  22  23
ENDBRANCH  20  22
ENDBRANCH   1  20
TORSDOF 8
