REMARK  Name = ZINC650000002oBW.1
REMARK                            x       y       z     vdW  Elec       q    Type
REMARK                         _______ _______ _______ _____ _____    ______ ____
ROOT
ATOM      1  C   LIG    1       -0.018   1.465   0.010  0.00  0.00    +0.180 C 
ENDROOT
BRANCH   1   2
ATOM      2  N   LIG    1        0.002  -0.004   0.002  0.00  0.00    -0.650 N 
ATOM      3  H   LIG    1        0.474  -0.330  -0.828  0.00  0.00    +0.460 HD
ATOM      4  H   LIG    1       -0.945  -0.353   0.009  0.00  0.00    +0.420 HD
ATOM      5  H   LIG    1        0.490  -0.338   0.820  0.00  0.00    +0.450 HD
ENDBRANCH   1   2
BRANCH   1   7
ATOM      6  C   LIG    1        2.095   1.606  -1.317  0.00  0.00    +0.060 C 
ATOM      7  C   LIG    1        1.417   1.994  -0.001  0.00  0.00    +0.080 C 
ENDBRANCH   1   7
BRANCH   1   8
ATOM      8  C   LIG    1       -0.734   1.958   1.269  0.00  0.00    +0.310 C 
BRANCH   8   9
ATOM      9  N   LIG    1       -2.071   1.354   1.340  0.00  0.00    -0.650 N 
ATOM     10  H   LIG    1       -1.985   0.349   1.375  0.00  0.00    +0.420 HD
ATOM     11  H   LIG    1       -2.603   1.618   0.525  0.00  0.00    +0.450 HD
ATOM     12  H   LIG    1       -2.543   1.679   2.171  0.00  0.00    +0.460 HD
ENDBRANCH   8   9
ENDBRANCH   1   8
TORSDOF 4
