REMARK  Name = ZINCpe000000YTSH.0
REMARK                            x       y       z     vdW  Elec       q    Type
REMARK                         _______ _______ _______ _____ _____    ______ ____
ROOT
ATOM      1  N   LIG    1       -0.499   0.999   6.068  0.00  0.00    -0.520 NA
ATOM      2  C   LIG    1       -1.184   2.273   6.327  0.00  0.00    +0.190 C 
ATOM      3  C   LIG    1       -2.125   2.110   7.523  0.00  0.00    +0.190 C 
ATOM      4  N   LIG    1       -1.351   1.684   8.697  0.00  0.00    -0.540 NA
ATOM      5  C   LIG    1       -0.665   0.410   8.438  0.00  0.00    +0.190 C 
ATOM      6  C   LIG    1        0.276   0.573   7.242  0.00  0.00    +0.190 C 
ENDROOT
BRANCH   1   7
ATOM      7  C   LIG    1        0.358   1.095   4.879  0.00  0.00    +0.220 C 
BRANCH   7   9
ATOM      8  O   LIG    1       -1.707   1.346   3.764  0.00  0.00    -0.510 OA
ATOM      9  C   LIG    1       -0.500   1.291   3.656  0.00  0.00    +0.520 C 
ATOM     10  N   LIG    1        0.073   1.405   2.441  0.00  0.00    -0.730 N 
ATOM     11  H   LIG    1        1.039   1.361   2.354  0.00  0.00    +0.400 HD
BRANCH  10  12
ATOM     12  C   LIG    1       -0.761   1.596   1.252  0.00  0.00    +0.270 C 
ATOM     13  C   LIG    1       -0.013   1.086   0.008  0.00  0.00    +0.070 C 
ATOM     14  C   LIG    1       -0.790   1.613  -1.226  0.00  0.00    -0.310 C 
ATOM     15  S   LIG    1       -1.180   3.338  -0.744  0.00  0.00    +2.390 S 
ATOM     16  O   LIG    1       -2.525   3.633  -1.097  0.00  0.00    -0.930 OA
ATOM     17  O   LIG    1       -0.131   4.195  -1.172  0.00  0.00    -0.930 OA
ATOM     18  C   LIG    1       -1.064   3.096   1.066  0.00  0.00    -0.320 C 
ENDBRANCH  10  12
ENDBRANCH   7   9
ENDBRANCH   1   7
BRANCH   4  19
ATOM     19  C   LIG    1       -2.207   1.589   9.886  0.00  0.00    +0.230 C 
BRANCH  19  20
ATOM     20  C   LIG    1       -2.697   2.963  10.263  0.00  0.00    -0.070 A 
ATOM     21  C   LIG    1       -1.967   3.740  11.143  0.00  0.00    +0.050 A 
ATOM     22  C   LIG    1       -2.414   5.003  11.486  0.00  0.00    +0.020 A 
ATOM     23  C   LIG    1       -3.596   5.485  10.957  0.00  0.00    +0.040 A 
ATOM     24  C   LIG    1       -4.330   4.706  10.081  0.00  0.00    -0.090 A 
ATOM     25 BR   LIG    1       -5.948   5.365   9.357  0.00  0.00    -0.050 Br
ATOM     26  C   LIG    1       -3.880   3.445   9.734  0.00  0.00    +0.040 A 
ENDBRANCH  19  20
ENDBRANCH   4  19
TORSDOF 5
