REMARK  Name = ZINCqH0000008uPH.0
REMARK                            x       y       z     vdW  Elec       q    Type
REMARK                         _______ _______ _______ _____ _____    ______ ____
ROOT
ATOM      1  C   LIG    1       -1.629   4.857   0.283  0.00  0.00    +0.520 C 
ATOM      2  N   LIG    1       -1.951   6.150   0.079  0.00  0.00    -0.730 N 
ATOM      3  H   LIG    1       -1.385   6.853   0.434  0.00  0.00    +0.400 HD
ATOM      4  O   LIG    1       -2.337   3.978  -0.161  0.00  0.00    -0.510 OA
ENDROOT
BRANCH   1   6
ATOM      5  C   LIG    1       -0.545   4.979   2.510  0.00  0.00    +0.060 C 
ATOM      6  C   LIG    1       -0.390   4.504   1.064  0.00  0.00    +0.170 C 
BRANCH   6   7
ATOM      7  O   LIG    1       -0.203   3.087   1.045  0.00  0.00    -0.290 OA
BRANCH   7   8
ATOM      8  C   LIG    1        1.056   2.628   1.272  0.00  0.00    +0.120 A 
ATOM      9  C   LIG    1        2.079   3.519   1.562  0.00  0.00    -0.080 A 
ATOM     10  C   LIG    1        3.359   3.050   1.786  0.00  0.00    +0.050 A 
ATOM     11  C   LIG    1        3.621   1.694   1.722  0.00  0.00    -0.110 A 
ATOM     12  C   LIG    1        2.603   0.803   1.433  0.00  0.00    +0.060 A 
ATOM     13  C   LIG    1        1.321   1.267   1.208  0.00  0.00    -0.010 A 
BRANCH  11  14
ATOM     14  C   LIG    1        5.018   1.185   1.967  0.00  0.00    -0.030 C 
ATOM     15  C   LIG    1        5.011   0.230   3.162  0.00  0.00    +0.040 C 
ATOM     16  C   LIG    1        5.946   2.365   2.262  0.00  0.00    +0.030 C 
ATOM     17  C   LIG    1        5.516   0.443   0.724  0.00  0.00    +0.040 C 
ENDBRANCH  11  14
ENDBRANCH   7   8
ENDBRANCH   6   7
ENDBRANCH   1   6
BRANCH   2  18
ATOM     18  C   LIG    1       -3.156   6.493  -0.680  0.00  0.00    +0.260 C 
BRANCH  18  19
ATOM     19  C   LIG    1       -3.288   8.015  -0.766  0.00  0.00    +0.030 C 
BRANCH  19  20
ATOM     20  C   LIG    1       -4.547   8.374  -1.558  0.00  0.00    +0.180 C 
BRANCH  20  21
ATOM     21  N   LIG    1       -4.673   9.835  -1.641  0.00  0.00    -0.540 NA
ATOM     22  C   LIG    1       -3.736  10.390  -2.626  0.00  0.00    +0.210 C 
BRANCH  21  23
ATOM     23  C   LIG    1       -6.055  10.227  -1.950  0.00  0.00    +0.220 C 
BRANCH  23  24
ATOM     24  C   LIG    1       -6.913  10.107  -0.689  0.00  0.00    +0.460 C 
ATOM     25  F   LIG    1       -7.005   8.762  -0.314  0.00  0.00    -0.180 F 
ATOM     26  F   LIG    1       -8.194  10.607  -0.947  0.00  0.00    -0.180 F 
ATOM     27  F   LIG    1       -6.326  10.841   0.347  0.00  0.00    -0.170 F 
ENDBRANCH  23  24
ENDBRANCH  21  23
ENDBRANCH  20  21
ENDBRANCH  19  20
ENDBRANCH  18  19
ENDBRANCH   2  18
TORSDOF 10
