REMARK  Name = ZINCvU0000000Bym.0
REMARK                            x       y       z     vdW  Elec       q    Type
REMARK                         _______ _______ _______ _____ _____    ______ ____
ROOT
ATOM      1  N   LIG    1        0.073   0.592   0.244  0.00  0.00    -0.670 N 
ATOM      2  H   LIG    1        0.909   0.915   0.614  0.00  0.00    +0.410 HD
ATOM      3  C   LIG    1        0.028  -0.605  -0.375  0.00  0.00    +0.510 C 
ATOM      4  O   LIG    1       -1.032  -1.045  -0.767  0.00  0.00    -0.500 OA
ENDROOT
BRANCH   1   8
ATOM      5  C   LIG    1       -3.387   2.894   0.584  0.00  0.00    +0.070 A 
ATOM      6  C   LIG    1       -3.465   1.511   0.655  0.00  0.00    +0.020 A 
ATOM      7  C   LIG    1       -2.320   0.748   0.543  0.00  0.00    +0.050 A 
ATOM      8  C   LIG    1       -1.090   1.365   0.358  0.00  0.00    +0.140 A 
ATOM      9  C   LIG    1       -1.011   2.750   0.293  0.00  0.00    +0.010 A 
ATOM     10  C   LIG    1       -2.158   3.512   0.400  0.00  0.00    +0.040 A 
BRANCH   5  11
ATOM     11  O   LIG    1       -4.515   3.645   0.694  0.00  0.00    -0.260 OA
BRANCH  11  15
ATOM     12  C   LIG    1       -6.183   4.098   4.443  0.00  0.00    +0.100 A 
ATOM     13  C   LIG    1       -6.831   4.611   3.329  0.00  0.00    +0.030 A 
ATOM     14  C   LIG    1       -6.273   4.460   2.075  0.00  0.00    +0.040 A 
ATOM     15  C   LIG    1       -5.064   3.795   1.929  0.00  0.00    +0.080 A 
ATOM     16  C   LIG    1       -4.419   3.277   3.042  0.00  0.00    -0.020 A 
ATOM     17  C   LIG    1       -4.975   3.433   4.297  0.00  0.00    -0.040 A 
BRANCH  12  18
ATOM     18  O   LIG    1       -6.732   4.247   5.678  0.00  0.00    -0.320 OA
BRANCH  18  20
ATOM     19  C   LIG    1       -6.779   3.959   8.077  0.00  0.00    +0.070 C 
ATOM     20  C   LIG    1       -6.011   3.694   6.780  0.00  0.00    +0.170 C 
ENDBRANCH  18  20
ENDBRANCH  12  18
ENDBRANCH  11  15
ENDBRANCH   5  11
ENDBRANCH   1   8
BRANCH   3  21
ATOM     21  C   LIG    1        1.294  -1.395  -0.581  0.00  0.00    +0.080 C 
BRANCH  21  22
ATOM     22  C   LIG    1        0.967  -2.704  -1.302  0.00  0.00    +0.310 C 
BRANCH  22  23
ATOM     23  C   LIG    1        2.246  -3.437  -1.617  0.00  0.00    -0.100 A 
ATOM     24  C   LIG    1        2.937  -4.085  -0.611  0.00  0.00    +0.010 A 
ATOM     25  C   LIG    1        4.108  -4.761  -0.900  0.00  0.00    +0.000 A 
ATOM     26  C   LIG    1        4.592  -4.781  -2.195  0.00  0.00    +0.000 A 
ATOM     27  C   LIG    1        3.904  -4.129  -3.200  0.00  0.00    +0.000 A 
ATOM     28  C   LIG    1        2.731  -3.456  -2.912  0.00  0.00    +0.020 A 
ENDBRANCH  22  23
BRANCH  22  29
ATOM     29  N   LIG    1        0.125  -3.538  -0.442  0.00  0.00    -0.720 N 
ATOM     30  H   LIG    1        0.104  -3.381   0.515  0.00  0.00    +0.400 HD
ATOM     31  C   LIG    1       -0.620  -4.524  -0.980  0.00  0.00    +0.520 C 
ATOM     32  O   LIG    1       -0.525  -4.780  -2.162  0.00  0.00    -0.540 OA
ATOM     33  C   LIG    1       -1.571  -5.309  -0.113  0.00  0.00    +0.090 C 
ENDBRANCH  22  29
ENDBRANCH  21  22
ENDBRANCH   3  21
TORSDOF 9
