REMARK  Name = ZINCvU00000007TT.0
REMARK                            x       y       z     vdW  Elec       q    Type
REMARK                         _______ _______ _______ _____ _____    ______ ____
ROOT
ATOM      1  N   LIG    1       -1.252   3.570  -2.300  0.00  0.00    -0.480 N 
ATOM      2  C   LIG    1       -1.335   3.874  -3.615  0.00  0.00    +0.560 A 
ATOM      3  C   LIG    1       -2.114   2.973  -4.474  0.00  0.00    -0.200 A 
ATOM      4  C   LIG    1       -2.257   3.202  -5.842  0.00  0.00    +0.100 A 
ATOM      5  C   LIG    1       -2.998   2.326  -6.604  0.00  0.00    -0.010 A 
ATOM      6  C   LIG    1       -3.603   1.220  -6.021  0.00  0.00    +0.070 A 
ATOM      7  C   LIG    1       -3.475   0.974  -4.673  0.00  0.00    +0.030 A 
ATOM      8  C   LIG    1       -2.728   1.848  -3.878  0.00  0.00    +0.170 A 
ATOM      9  N   LIG    1       -2.578   1.642  -2.549  0.00  0.00    -0.530 NA
ATOM     10  O   LIG    1       -0.783   4.859  -4.071  0.00  0.00    -0.490 OA
ATOM     11  C   LIG    1       -1.878   2.460  -1.803  0.00  0.00    +0.370 A 
ENDROOT
BRANCH   1  18
ATOM     12  C   LIG    1       -2.610   5.726  -1.030  0.00  0.00    +0.110 C 
ATOM     13  C   LIG    1       -1.144   5.462  -0.800  0.00  0.00    -0.050 A 
ATOM     14  C   LIG    1       -0.420   6.277   0.048  0.00  0.00    +0.020 A 
ATOM     15  C   LIG    1        0.925   6.035   0.260  0.00  0.00    +0.040 A 
ATOM     16  C   LIG    1        1.549   4.978  -0.376  0.00  0.00    +0.010 A 
ATOM     17  C   LIG    1        0.829   4.155  -1.220  0.00  0.00    +0.040 A 
ATOM     18  C   LIG    1       -0.520   4.399  -1.439  0.00  0.00    +0.080 A 
ENDBRANCH   1  18
BRANCH  11  19
ATOM     19  S   LIG    1       -1.742   2.119  -0.080  0.00  0.00    +0.080 S 
BRANCH  19  20
ATOM     20  C   LIG    1       -2.845   0.689   0.046  0.00  0.00    +0.050 C 
BRANCH  20  21
ATOM     21  C   LIG    1       -4.266   1.129  -0.195  0.00  0.00    +0.480 C 
ATOM     22  O   LIG    1       -4.568   2.292  -0.070  0.00  0.00    -0.490 OA
BRANCH  21  23
ATOM     23  O   LIG    1       -5.196   0.228  -0.549  0.00  0.00    -0.340 OA
BRANCH  23  24
ATOM     24  C   LIG    1       -6.544   0.723  -0.765  0.00  0.00    +0.120 C 
ATOM     25  C   LIG    1       -7.064   1.365   0.522  0.00  0.00    +0.030 C 
ATOM     26  C   LIG    1       -7.457  -0.440  -1.159  0.00  0.00    +0.080 C 
ATOM     27  C   LIG    1       -6.532   1.764  -1.887  0.00  0.00    +0.030 C 
ENDBRANCH  23  24
ENDBRANCH  21  23
ENDBRANCH  20  21
BRANCH  20  28
ATOM     28  C   LIG    1       -2.730   0.078   1.444  0.00  0.00    +0.080 C 
BRANCH  28  29
ATOM     29  C   LIG    1       -1.323  -0.490   1.638  0.00  0.00    -0.020 C 
ATOM     30  C   LIG    1       -1.113  -1.671   0.688  0.00  0.00    +0.030 C 
ATOM     31  C   LIG    1       -1.159  -0.964   3.084  0.00  0.00    +0.030 C 
ENDBRANCH  28  29
ENDBRANCH  20  28
ENDBRANCH  19  20
ENDBRANCH  11  19
TORSDOF 8
