REMARK  Name = ZINCqH0000005h9B.0
REMARK                            x       y       z     vdW  Elec       q    Type
REMARK                         _______ _______ _______ _____ _____    ______ ____
ROOT
ATOM      1  C   LIG    1       -3.761   1.662   2.101  0.00  0.00    +0.290 C 
ATOM      2  N   LIG    1       -2.900   0.706   1.401  0.00  0.00    -0.610 N 
ATOM      3  C   LIG    1       -2.487  -0.413   2.028  0.00  0.00    +0.520 C 
ATOM      4  O   LIG    1       -1.774  -1.205   1.449  0.00  0.00    -0.510 OA
ENDROOT
BRANCH   3   5
ATOM      5  C   LIG    1       -2.910  -0.681   3.450  0.00  0.00    +0.240 C 
BRANCH   5   6
ATOM      6  O   LIG    1       -2.348  -1.919   3.889  0.00  0.00    -0.280 OA
BRANCH   6   7
ATOM      7  C   LIG    1       -2.635  -2.310   5.159  0.00  0.00    +0.180 A 
ATOM      8  C   LIG    1       -3.436  -1.516   5.966  0.00  0.00    -0.060 A 
ATOM      9  C   LIG    1       -3.730  -1.919   7.255  0.00  0.00    +0.150 A 
ATOM     10  C   LIG    1       -3.217  -3.106   7.743  0.00  0.00    -0.080 A 
ATOM     11  C   LIG    1       -2.414  -3.897   6.942  0.00  0.00    +0.150 A 
ATOM     12  C   LIG    1       -2.122  -3.501   5.651  0.00  0.00    +0.010 A 
BRANCH  10  13
ATOM     13  N   LIG    1       -3.529  -3.532   9.126  0.00  0.00    +0.030 N 
ATOM     14  O   LIG    1       -4.237  -2.837   9.832  0.00  0.00    -0.160 OA
ATOM     15  O   LIG    1       -3.078  -4.578   9.557  0.00  0.00    -0.160 OA
ENDBRANCH  10  13
ENDBRANCH   6   7
ENDBRANCH   5   6
ENDBRANCH   3   5
BRANCH   2  16
ATOM     16  C   LIG    1       -2.489   0.965   0.019  0.00  0.00    +0.350 C 
BRANCH  16  17
ATOM     17  C   LIG    1       -1.198   1.744   0.017  0.00  0.00    -0.120 A 
ATOM     18  C   LIG    1       -0.013   1.076   0.008  0.00  0.00    +0.060 A 
ATOM     19  C   LIG    1        1.193   1.799   0.000  0.00  0.00    -0.060 A 
ATOM     20  C   LIG    1        2.436   1.145  -0.015  0.00  0.00    +0.030 A 
ATOM     21  C   LIG    1        3.583   1.878  -0.022  0.00  0.00    +0.000 A 
ATOM     22  C   LIG    1        3.544   3.271  -0.015  0.00  0.00    +0.010 A 
ATOM     23  C   LIG    1        2.358   3.938  -0.000  0.00  0.00    +0.020 A 
ATOM     24  C   LIG    1        1.153   3.216   0.008  0.00  0.00    -0.050 A 
ATOM     25  C   LIG    1       -0.090   3.870   0.023  0.00  0.00    +0.020 A 
ATOM     26  C   LIG    1       -1.237   3.137   0.030  0.00  0.00    +0.020 A 
ENDBRANCH  16  17
ENDBRANCH   2  16
TORSDOF 6
