REMARK  Name = ZINCqH0000035DMQ.0
REMARK                            x       y       z     vdW  Elec       q    Type
REMARK                         _______ _______ _______ _____ _____    ______ ____
ROOT
ATOM      1  C   LIG    1       -2.501   1.005   0.019  0.00  0.00    +0.560 C 
ATOM      2  N   LIG    1       -3.676   1.665   0.028  0.00  0.00    -0.630 N 
ATOM      3  H   LIG    1       -3.687   2.635   0.034  0.00  0.00    +0.420 HD
ATOM      4  O   LIG    1       -2.486  -0.210   0.012  0.00  0.00    -0.490 OA
ENDROOT
BRANCH   2   5
ATOM      5  C   LIG    1       -4.868   0.957   0.029  0.00  0.00    +0.050 A 
ATOM      6  C   LIG    1       -6.110   1.528   0.044  0.00  0.00    -0.110 A 
ATOM      7  C   LIG    1       -7.189   0.558   0.038  0.00  0.00    -0.040 A 
ATOM      8  C   LIG    1       -6.741  -0.704   0.029  0.00  0.00    -0.240 A 
ATOM      9  C   LIG    1       -7.635  -1.929   0.026  0.00  0.00    +0.120 C 
ATOM     10  C   LIG    1       -9.046  -1.509   0.448  0.00  0.00    +0.020 C 
ATOM     11  C   LIG    1       -9.478  -0.298  -0.384  0.00  0.00    +0.020 C 
ATOM     12  C   LIG    1       -8.665   0.924   0.047  0.00  0.00    +0.100 C 
ATOM     13  S   LIG    1       -4.986  -0.741   0.021  0.00  0.00    +0.330 S 
BRANCH   6  14
ATOM     14  C   LIG    1       -6.325   2.943   0.059  0.00  0.00    +0.270 C 
ATOM     15  N   LIG    1       -6.495   4.066   0.071  0.00  0.00    -0.420 NA
ENDBRANCH   6  14
ENDBRANCH   2   5
BRANCH   1  18
ATOM     16  C   LIG    1        1.175   1.784   0.000  0.00  0.00    +0.150 A 
ATOM     17  C   LIG    1       -0.013   1.076   0.008  0.00  0.00    +0.000 A 
ATOM     18  C   LIG    1       -1.232   1.759   0.017  0.00  0.00    -0.070 A 
ATOM     19  C   LIG    1       -1.247   3.156   0.031  0.00  0.00    -0.060 A 
ATOM     20  C   LIG    1       -0.057   3.859   0.023  0.00  0.00    +0.150 A 
ATOM     21  C   LIG    1        1.156   3.176   0.008  0.00  0.00    +0.070 A 
BRANCH  16  23
ATOM     22  C   LIG    1        2.306  -0.308  -0.023  0.00  0.00    +0.250 C 
ATOM     23  O   LIG    1        2.361   1.120  -0.015  0.00  0.00    -0.300 OA
ENDBRANCH  16  23
BRANCH  20  24
ATOM     24  O   LIG    1       -0.071   5.219   0.031  0.00  0.00    -0.300 OA
ATOM     25  C   LIG    1       -1.351   5.854   0.047  0.00  0.00    +0.250 C 
ENDBRANCH  20  24
BRANCH  21  26
ATOM     26  O   LIG    1        2.325   3.870   0.000  0.00  0.00    -0.310 OA
ATOM     27  C   LIG    1        2.870   4.208  -1.277  0.00  0.00    +0.240 C 
ENDBRANCH  21  26
ENDBRANCH   1  18
TORSDOF 6
