REMARK  Name = ZINCb80000003Wdf.0
REMARK                            x       y       z     vdW  Elec       q    Type
REMARK                         _______ _______ _______ _____ _____    ______ ____
ROOT
ATOM      1  C   LIG    1        4.734   0.922  -0.037  0.00  0.00    +0.170 C 
ATOM      2  C   LIG    1        3.437   1.689  -0.021  0.00  0.00    +0.430 A 
ATOM      3  N   LIG    1        2.317   1.008  -0.009  0.00  0.00    -0.630 NA
ATOM      4  C   LIG    1        1.121   1.640   0.000  0.00  0.00    +0.430 A 
ATOM      5  C   LIG    1        1.137   3.115   0.008  0.00  0.00    -0.300 A 
ATOM      6  C   LIG    1        0.168   4.094   0.022  0.00  0.00    +0.460 A 
ATOM      7  N   LIG    1        0.775   5.298   0.023  0.00  0.00    -0.450 N 
ATOM      8  H   LIG    1        0.324   6.156   0.032  0.00  0.00    +0.460 HD
ATOM      9  N   LIG    1        2.164   5.107   0.009  0.00  0.00    -0.470 N 
ATOM     10  H   LIG    1        2.836   5.807   0.006  0.00  0.00    +0.460 HD
ATOM     11  C   LIG    1        2.404   3.758  -0.001  0.00  0.00    +0.470 A 
ATOM     12  N   LIG    1       -0.011   0.966   0.007  0.00  0.00    -0.730 NA
ATOM     13  H   LIG    1        0.002  -0.004   0.002  0.00  0.00    +0.340 HD
ATOM     14  N   LIG    1        3.496   3.011  -0.015  0.00  0.00    -0.630 NA
ENDROOT
TORSDOF 0
