REMARK  Name = ZINCpk00000l0N2a.0
REMARK                            x       y       z     vdW  Elec       q    Type
REMARK                         _______ _______ _______ _____ _____    ______ ____
ROOT
ATOM      1  O   LIG    1        6.551  -3.582  -4.589  0.00  0.00    -0.520 OA
ATOM      2  C   LIG    1        5.374  -3.303  -4.502  0.00  0.00    +0.540 C 
ATOM      3  N   LIG    1        4.980  -2.284  -3.714  0.00  0.00    -0.600 N 
ATOM      4  C   LIG    1        5.960  -1.497  -2.950  0.00  0.00    +0.300 C 
ATOM      5  C   LIG    1        5.506  -1.439  -1.488  0.00  0.00    +0.170 C 
ATOM      6  N   LIG    1        4.125  -0.940  -1.427  0.00  0.00    -0.530 NA
ATOM      7  C   LIG    1        3.198  -1.854  -2.107  0.00  0.00    +0.170 C 
ATOM      8  C   LIG    1        3.558  -1.928  -3.594  0.00  0.00    +0.290 C 
ENDROOT
BRANCH   6   9
ATOM      9  C   LIG    1        3.711  -0.707  -0.037  0.00  0.00    +0.230 C 
BRANCH   9  10
ATOM     10  C   LIG    1        2.396   0.029  -0.021  0.00  0.00    -0.080 A 
ATOM     11  C   LIG    1        1.208  -0.679  -0.013  0.00  0.00    +0.000 A 
ATOM     12  C   LIG    1        0.002  -0.004   0.002  0.00  0.00    +0.000 A 
ATOM     13  C   LIG    1       -0.017   1.378   0.010  0.00  0.00    +0.000 A 
ATOM     14  C   LIG    1        1.171   2.086   0.002  0.00  0.00    +0.000 A 
ATOM     15  C   LIG    1        2.377   1.411  -0.015  0.00  0.00    +0.020 A 
ENDBRANCH   9  10
ENDBRANCH   6   9
BRANCH   2  16
ATOM     16  C   LIG    1        4.353  -4.096  -5.276  0.00  0.00    +0.100 C 
BRANCH  16  17
ATOM     17  S   LIG    1        5.188  -5.386  -6.232  0.00  0.00    +0.120 S 
BRANCH  17  18
ATOM     18  C   LIG    1        3.798  -6.136  -7.014  0.00  0.00    +0.200 A 
ATOM     19  N   LIG    1        2.539  -5.782  -6.876  0.00  0.00    -0.340 NA
ATOM     20  N   LIG    1        1.780  -6.536  -7.586  0.00  0.00    -0.030 NA
ATOM     21  N   LIG    1        2.483  -7.412  -8.219  0.00  0.00    -0.080 NA
ATOM     22  N   LIG    1        3.826  -7.181  -7.875  0.00  0.00    -0.330 N 
BRANCH  22  23
ATOM     23  C   LIG    1        5.004  -7.915  -8.345  0.00  0.00    +0.210 C 
ATOM     24  C   LIG    1        4.801  -8.929  -9.472  0.00  0.00    +0.090 C 
ATOM     25  C   LIG    1        5.067  -9.414  -8.045  0.00  0.00    +0.070 C 
ENDBRANCH  22  23
ENDBRANCH  17  18
ENDBRANCH  16  17
ENDBRANCH   2  16
TORSDOF 6
