REMARK  Name = ZINCkj000005lgoD.0
REMARK                            x       y       z     vdW  Elec       q    Type
REMARK                         _______ _______ _______ _____ _____    ______ ____
ROOT
ATOM      1  N   LIG    1        1.878  -2.833  -0.973  0.00  0.00    -0.340 N 
ATOM      2  H   LIG    1        1.706  -2.270  -1.793  0.00  0.00    +0.440 HD
ENDROOT
BRANCH   1   3
ATOM      3  C   LIG    1        0.858  -2.542   0.043  0.00  0.00    +0.230 C 
ATOM      4  C   LIG    1       -0.546  -2.909  -0.484  0.00  0.00    +0.070 C 
ATOM      5  C   LIG    1       -1.435  -1.824   0.159  0.00  0.00    +0.110 C 
ATOM      6  C   LIG    1       -0.517  -0.642   0.387  0.00  0.00    -0.070 A 
ATOM      7  C   LIG    1       -0.810   0.688   0.632  0.00  0.00    +0.030 A 
ATOM      8  C   LIG    1        0.209   1.604   0.809  0.00  0.00    +0.060 A 
ATOM      9  C   LIG    1        1.526   1.191   0.745  0.00  0.00    +0.030 A 
ATOM     10  C   LIG    1        1.821  -0.136   0.499  0.00  0.00    +0.040 A 
ATOM     11  C   LIG    1        0.801  -1.055   0.320  0.00  0.00    -0.160 A 
ENDBRANCH   1   3
BRANCH   1  12
ATOM     12  C   LIG    1        3.208  -2.521  -0.435  0.00  0.00    +0.100 C 
ATOM     13  C   LIG    1        4.233  -3.657  -0.381  0.00  0.00    +0.090 C 
ATOM     14  C   LIG    1        3.590  -3.144   0.910  0.00  0.00    +0.110 C 
ENDBRANCH   1  12
BRANCH   1  15
ATOM     15  C   LIG    1        1.817  -4.255  -1.335  0.00  0.00    +0.290 C 
BRANCH  15  22
ATOM     16  N   LIG    1        3.890  -7.254  -4.470  0.00  0.00    -0.850 N 
ATOM     17  H   LIG    1        4.459  -7.417  -5.238  0.00  0.00    +0.430 HD
ATOM     18  H   LIG    1        3.463  -7.997  -4.016  0.00  0.00    +0.400 HD
ATOM     19  C   LIG    1        3.692  -5.994  -4.033  0.00  0.00    +0.700 C 
ATOM     20  N   LIG    1        2.900  -5.768  -2.966  0.00  0.00    -0.680 N 
ATOM     21  H   LIG    1        2.473  -6.511  -2.512  0.00  0.00    +0.420 HD
ATOM     22  C   LIG    1        2.702  -4.508  -2.529  0.00  0.00    +0.510 C 
ATOM     23  O   LIG    1        3.236  -3.579  -3.095  0.00  0.00    -0.440 OA
ATOM     24  O   LIG    1        4.227  -5.063  -4.601  0.00  0.00    -0.520 OA
ENDBRANCH  15  22
ENDBRANCH   1  15
TORSDOF 4
