REMARK  Name = ZINCkj000005lgoD.1
REMARK                            x       y       z     vdW  Elec       q    Type
REMARK                         _______ _______ _______ _____ _____    ______ ____
ROOT
ATOM      1  N   LIG    1       -0.680   2.033   1.225  0.00  0.00    -0.340 N 
ATOM      2  H   LIG    1       -0.218   1.817   2.095  0.00  0.00    +0.430 HD
ENDROOT
BRANCH   1   3
ATOM      3  C   LIG    1        0.026   1.376   0.118  0.00  0.00    +0.240 C 
ATOM      4  C   LIG    1        1.525   1.744   0.146  0.00  0.00    +0.060 C 
ATOM      5  C   LIG    1        1.880   1.800  -1.355  0.00  0.00    +0.110 C 
ATOM      6  C   LIG    1        0.582   2.136  -2.057  0.00  0.00    -0.070 A 
ATOM      7  C   LIG    1        0.351   2.617  -3.335  0.00  0.00    +0.040 A 
ATOM      8  C   LIG    1       -0.940   2.854  -3.765  0.00  0.00    +0.060 A 
ATOM      9  C   LIG    1       -2.005   2.610  -2.919  0.00  0.00    +0.030 A 
ATOM     10  C   LIG    1       -1.777   2.130  -1.644  0.00  0.00    +0.030 A 
ATOM     11  C   LIG    1       -0.484   1.892  -1.210  0.00  0.00    -0.160 A 
ENDBRANCH   1   3
BRANCH   1  12
ATOM     12  C   LIG    1       -2.067   1.552   1.275  0.00  0.00    +0.080 C 
ATOM     13  C   LIG    1       -2.548   0.916   2.582  0.00  0.00    +0.120 C 
ATOM     14  C   LIG    1       -2.288   0.040   1.353  0.00  0.00    +0.090 C 
ENDBRANCH   1  12
BRANCH   1  15
ATOM     15  C   LIG    1       -0.674   3.487   1.016  0.00  0.00    +0.290 C 
BRANCH  15  22
ATOM     16  N   LIG    1       -1.971   7.471   3.373  0.00  0.00    -0.850 N 
ATOM     17  H   LIG    1       -2.347   7.912   4.151  0.00  0.00    +0.430 HD
ATOM     18  H   LIG    1       -1.664   7.998   2.618  0.00  0.00    +0.400 HD
ATOM     19  C   LIG    1       -1.875   6.128   3.340  0.00  0.00    +0.700 C 
ATOM     20  N   LIG    1       -1.353   5.516   2.258  0.00  0.00    -0.680 N 
ATOM     21  H   LIG    1       -1.047   6.042   1.504  0.00  0.00    +0.420 HD
ATOM     22  C   LIG    1       -1.258   4.172   2.225  0.00  0.00    +0.510 C 
ATOM     23  O   LIG    1       -1.641   3.513   3.168  0.00  0.00    -0.440 OA
ATOM     24  O   LIG    1       -2.260   5.468   4.285  0.00  0.00    -0.520 OA
ENDBRANCH  15  22
ENDBRANCH   1  15
TORSDOF 4
