REMARK  Name = ZINCrH000004sKFY.0
REMARK                            x       y       z     vdW  Elec       q    Type
REMARK                         _______ _______ _______ _____ _____    ______ ____
ROOT
ATOM      1  C   LIG    1        2.333   4.631   0.004  0.00  0.00    +0.180 C 
ATOM      2  C   LIG    1        1.175   3.667   0.011  0.00  0.00    +0.140 A 
ATOM      3  N   LIG    1       -0.083   3.992   0.025  0.00  0.00    -0.260 NA
ATOM      4  N   LIG    1       -0.863   2.832   0.030  0.00  0.00    -0.340 N 
ATOM      5  C   LIG    1       -0.022   1.755   0.012  0.00  0.00    +0.040 A 
ATOM      6  S   LIG    1        0.002  -0.004   0.002  0.00  0.00    +0.190 S 
ATOM      7  C   LIG    1        1.758  -0.025  -0.015  0.00  0.00    -0.280 A 
ATOM      8  C   LIG    1        2.241   1.226  -0.013  0.00  0.00    +0.200 A 
ATOM      9  C   LIG    1        1.275   2.241   0.002  0.00  0.00    -0.230 A 
ENDROOT
BRANCH   7  10
ATOM     10  C   LIG    1        2.579  -1.239  -0.029  0.00  0.00    +0.600 C 
ATOM     11  N   LIG    1        1.990  -2.451  -0.031  0.00  0.00    -0.720 N 
ATOM     12  H   LIG    1        1.023  -2.521  -0.022  0.00  0.00    +0.410 HD
ATOM     13  O   LIG    1        3.793  -1.152  -0.040  0.00  0.00    -0.510 OA
BRANCH  11  14
ATOM     14  C   LIG    1        2.812  -3.665  -0.045  0.00  0.00    +0.290 C 
ATOM     15  C   LIG    1        1.894  -4.881  -0.043  0.00  0.00    +0.070 C 
ATOM     16  C   LIG    1        2.131  -5.800   1.173  0.00  0.00    +0.150 C 
ATOM     17  S   LIG    1        2.855  -4.648   2.411  0.00  0.00    -0.260 S 
ATOM     18  C   LIG    1        3.762  -3.638   1.170  0.00  0.00    +0.170 C 
BRANCH  14  19
ATOM     19  C   LIG    1        3.618  -3.678  -1.277  0.00  0.00    +0.190 C 
ATOM     20  N   LIG    1        4.240  -3.689  -2.227  0.00  0.00    -0.390 NA
ENDBRANCH  14  19
ENDBRANCH  11  14
ENDBRANCH   7  10
BRANCH   4  21
ATOM     21  C   LIG    1       -2.327   2.781   0.052  0.00  0.00    +0.400 C 
BRANCH  21  22
ATOM     22  C   LIG    1       -2.807   2.755   1.480  0.00  0.00    -0.140 A 
ATOM     23  C   LIG    1       -2.991   1.546   2.126  0.00  0.00    +0.060 A 
ATOM     24  C   LIG    1       -3.426   1.522   3.437  0.00  0.00    -0.010 A 
ATOM     25  C   LIG    1       -3.690   2.708   4.101  0.00  0.00    +0.110 A 
ATOM     26  C   LIG    1       -3.511   3.918   3.451  0.00  0.00    -0.020 A 
ATOM     27  F   LIG    1       -4.121   2.685   5.381  0.00  0.00    -0.130 F 
ATOM     28  C   LIG    1       -3.070   3.940   2.142  0.00  0.00    +0.080 A 
ENDBRANCH  21  22
ENDBRANCH   4  21
TORSDOF 5
