REMARK  Name = ZINCpe000000XSGg.1
REMARK                            x       y       z     vdW  Elec       q    Type
REMARK                         _______ _______ _______ _____ _____    ______ ____
ROOT
ATOM      1  N   LIG    1        0.288   0.713  -7.356  0.00  0.00    -0.490 N 
ATOM      2  C   LIG    1       -0.950   1.452  -7.073  0.00  0.00    +0.190 C 
ATOM      3  C   LIG    1       -0.684   2.484  -5.972  0.00  0.00    +0.300 C 
ATOM      4  N   LIG    1       -0.095   1.793  -4.816  0.00  0.00    -0.620 N 
ATOM      5  C   LIG    1        1.072   0.927  -5.043  0.00  0.00    +0.280 C 
ATOM      6  C   LIG    1       -0.607   1.953  -3.579  0.00  0.00    +0.520 C 
ATOM      7  O   LIG    1       -1.567   2.675  -3.409  0.00  0.00    -0.510 OA
ATOM      8  C   LIG    1        0.734  -0.049  -6.181  0.00  0.00    +0.190 C 
ENDROOT
BRANCH   1  14
ATOM      9  C   LIG    1        2.177  -2.591 -10.466  0.00  0.00    +0.090 C 
ATOM     10  C   LIG    1        1.029  -1.736  -9.994  0.00  0.00    -0.060 A 
ATOM     11  C   LIG    1       -0.182  -1.778 -10.659  0.00  0.00    -0.030 A 
ATOM     12  C   LIG    1       -1.238  -0.994 -10.230  0.00  0.00    +0.030 A 
ATOM     13  C   LIG    1       -1.085  -0.168  -9.134  0.00  0.00    -0.050 A 
ATOM     14  C   LIG    1        0.130  -0.123  -8.464  0.00  0.00    +0.110 A 
ATOM     15  C   LIG    1        1.190  -0.906  -8.901  0.00  0.00    -0.020 A 
ENDBRANCH   1  14
BRANCH   6  16
ATOM     16  C   LIG    1        0.013   1.235  -2.408  0.00  0.00    +0.210 C 
BRANCH  16  17
ATOM     17  N   LIG    1       -0.723   1.572  -1.182  0.00  0.00    -0.520 NA
ATOM     18  C   LIG    1       -0.013   1.086   0.008  0.00  0.00    +0.180 C 
ATOM     19  C   LIG    1       -0.729   1.579   1.267  0.00  0.00    +0.040 C 
ATOM     20  C   LIG    1       -2.170   1.064   1.264  0.00  0.00    -0.020 C 
ATOM     21  C   LIG    1       -2.873   1.544  -0.009  0.00  0.00    +0.060 C 
ATOM     22  C   LIG    1       -2.095   1.052  -1.231  0.00  0.00    +0.180 C 
BRANCH  20  23
ATOM     23  C   LIG    1       -2.898   1.596   2.472  0.00  0.00    +0.520 C 
ATOM     24  O   LIG    1       -3.882   2.291   2.330  0.00  0.00    -0.540 OA
ATOM     25  N   LIG    1       -2.455   1.299   3.710  0.00  0.00    -0.860 N 
ATOM     26  H   LIG    1       -2.924   1.642   4.488  0.00  0.00    +0.400 HD
ATOM     27  H   LIG    1       -1.669   0.744   3.824  0.00  0.00    +0.400 HD
ENDBRANCH  20  23
ENDBRANCH  16  17
ENDBRANCH   6  16
TORSDOF 4
