REMARK  Name = ZINCqH0000002aw6.0
REMARK                            x       y       z     vdW  Elec       q    Type
REMARK                         _______ _______ _______ _____ _____    ______ ____
ROOT
ATOM      1  N   LIG    1       -5.952  -1.414  -0.175  0.00  0.00    -0.670 N 
ATOM      2  H   LIG    1       -5.837  -2.377  -0.188  0.00  0.00    +0.410 HD
ATOM      3  C   LIG    1       -4.873  -0.606  -0.175  0.00  0.00    +0.560 C 
ATOM      4  O   LIG    1       -5.017   0.599  -0.244  0.00  0.00    -0.510 OA
ENDROOT
BRANCH   1   8
ATOM      5  C   LIG    1       -9.785   0.225  -0.118  0.00  0.00    +0.130 A 
ATOM      6  C   LIG    1       -8.766   0.865  -0.812  0.00  0.00    +0.000 A 
ATOM      7  C   LIG    1       -7.497   0.323  -0.830  0.00  0.00    +0.040 A 
ATOM      8  C   LIG    1       -7.239  -0.864  -0.156  0.00  0.00    +0.130 A 
ATOM      9  C   LIG    1       -8.259  -1.507   0.533  0.00  0.00    +0.010 A 
ATOM     10  C   LIG    1       -9.527  -0.961   0.556  0.00  0.00    +0.040 A 
BRANCH   5  12
ATOM     11  C   LIG    1      -11.838   0.664   1.005  0.00  0.00    +0.510 C 
ATOM     12  N   LIG    1      -11.073   0.776  -0.099  0.00  0.00    -0.680 N 
ATOM     13  H   LIG    1      -11.414   1.238  -0.881  0.00  0.00    +0.410 HD
ATOM     14  O   LIG    1      -11.445   0.015   1.951  0.00  0.00    -0.520 OA
BRANCH  11  16
ATOM     15  C   LIG    1      -13.838   1.060   2.415  0.00  0.00    +0.040 C 
ATOM     16  C   LIG    1      -13.181   1.345   1.063  0.00  0.00    +0.060 C 
ENDBRANCH  11  16
ENDBRANCH   5  12
ENDBRANCH   1   8
BRANCH   3  17
ATOM     17  C   LIG    1       -3.516  -1.185  -0.091  0.00  0.00    -0.110 A 
ATOM     18  C   LIG    1       -3.348  -2.569  -0.012  0.00  0.00    +0.030 A 
ATOM     19  C   LIG    1       -2.080  -3.107   0.066  0.00  0.00    +0.050 A 
ATOM     20  C   LIG    1       -0.972  -2.280   0.067  0.00  0.00    +0.020 A 
ATOM     21  C   LIG    1       -1.129  -0.901  -0.012  0.00  0.00    +0.160 A 
ATOM     22  C   LIG    1       -2.398  -0.350  -0.085  0.00  0.00    +0.090 A 
BRANCH  21  23
ATOM     23  N   LIG    1       -0.002  -0.067  -0.011  0.00  0.00    -0.330 N 
ATOM     24  C   LIG    1        1.288  -0.471  -0.034  0.00  0.00    +0.230 A 
ATOM     25  C   LIG    1        2.067   0.635  -0.025  0.00  0.00    -0.090 A 
ATOM     26  C   LIG    1        1.227   1.753   0.005  0.00  0.00    +0.080 A 
ATOM     27  C   LIG    1        1.672   3.193   0.024  0.00  0.00    +0.160 C 
ATOM     28  N   LIG    1       -0.013   1.334   0.013  0.00  0.00    -0.290 NA
ENDBRANCH  21  23
ENDBRANCH   3  17
TORSDOF 5
