REMARK  Name = ZINCqH0000003dij.0
REMARK                            x       y       z     vdW  Elec       q    Type
REMARK                         _______ _______ _______ _____ _____    ______ ____
ROOT
ATOM      1  C   LIG    1        7.222  -0.080   0.119  0.00  0.00    +0.270 A 
ATOM      2  C   LIG    1        8.432  -0.752   0.194  0.00  0.00    -0.060 A 
ATOM      3  C   LIG    1        8.457  -2.135   0.180  0.00  0.00    +0.180 A 
ATOM      4  C   LIG    1        7.277  -2.850   0.092  0.00  0.00    -0.700 A 
ATOM      5  C   LIG    1        6.065  -2.188   0.024  0.00  0.00    +0.190 A 
ATOM      6  C   LIG    1        6.031  -0.802   0.031  0.00  0.00    +0.050 A 
ENDROOT
BRANCH   6   7
ATOM      7  N   LIG    1        4.805  -0.129  -0.044  0.00  0.00    -0.660 N 
ATOM      8  H   LIG    1        4.743   0.713  -0.522  0.00  0.00    +0.400 HD
ATOM      9  C   LIG    1        3.712  -0.651   0.547  0.00  0.00    +0.560 C 
ATOM     10  O   LIG    1        3.771  -1.745   1.074  0.00  0.00    -0.480 OA
BRANCH   9  11
ATOM     11  C   LIG    1        2.443   0.105   0.553  0.00  0.00    -0.180 A 
ATOM     12  C   LIG    1        2.363   1.366  -0.051  0.00  0.00    +0.110 A 
ATOM     13  C   LIG    1        1.151   2.033  -0.017  0.00  0.00    -0.030 A 
ATOM     14  C   LIG    1        0.068   1.440   0.606  0.00  0.00    +0.330 A 
ATOM     15  N   LIG    1        0.171   0.251   1.168  0.00  0.00    -0.480 NA
ATOM     16  C   LIG    1        1.303  -0.425   1.162  0.00  0.00    +0.230 A 
ATOM     17 CL   LIG    1        1.377  -1.986   1.918  0.00  0.00    +0.020 Cl
ENDBRANCH   9  11
ENDBRANCH   6   7
BRANCH   4  18
ATOM     18  S   LIG    1        7.317  -4.612   0.077  0.00  0.00    +2.490 S 
ATOM     19  O   LIG    1        8.600  -4.928  -0.447  0.00  0.00    -0.860 OA
ATOM     20  O   LIG    1        6.132  -4.983  -0.614  0.00  0.00    -0.860 OA
BRANCH  18  21
ATOM     21  C   LIG    1        7.209  -5.083   1.825  0.00  0.00    -0.020 C 
ATOM     22  F   LIG    1        8.295  -4.542   2.522  0.00  0.00    -0.160 F 
ATOM     23  F   LIG    1        7.233  -6.477   1.935  0.00  0.00    -0.160 F 
ATOM     24  F   LIG    1        6.016  -4.593   2.367  0.00  0.00    -0.150 F 
ENDBRANCH  18  21
ENDBRANCH   4  18
BRANCH   1  25
ATOM     25  N   LIG    1        7.194   1.319   0.133  0.00  0.00    -0.730 N 
ATOM     26  H   LIG    1        6.347   1.788   0.081  0.00  0.00    +0.400 HD
BRANCH  25  28
ATOM     27  C   LIG    1        8.137   3.574   0.221  0.00  0.00    +0.030 C 
ATOM     28  C   LIG    1        8.446   2.075   0.226  0.00  0.00    +0.250 C 
ENDBRANCH  25  28
ENDBRANCH   1  25
TORSDOF 6
