REMARK  Name = ZINCqH0000002pJs.0
REMARK                            x       y       z     vdW  Elec       q    Type
REMARK                         _______ _______ _______ _____ _____    ______ ____
ROOT
ATOM      1  N   LIG    1       -3.977  -3.863  -1.653  0.00  0.00    -0.710 N 
ATOM      2  H   LIG    1       -4.505  -4.201  -0.912  0.00  0.00    +0.410 HD
ATOM      3  C   LIG    1       -2.850  -3.164  -1.412  0.00  0.00    +0.520 C 
ATOM      4  O   LIG    1       -2.189  -2.742  -2.337  0.00  0.00    -0.520 OA
ENDROOT
BRANCH   1   5
ATOM      5  C   LIG    1       -4.404  -4.113  -3.031  0.00  0.00    +0.240 C 
BRANCH   5   7
ATOM      6  N   LIG    1       -6.513  -4.583  -4.235  0.00  0.00    -0.610 N 
ATOM      7  C   LIG    1       -5.894  -4.333  -3.064  0.00  0.00    +0.520 C 
ATOM      8  O   LIG    1       -6.536  -4.287  -2.036  0.00  0.00    -0.530 OA
ATOM      9  C   LIG    1       -5.737  -4.639  -5.476  0.00  0.00    +0.300 C 
BRANCH   6  10
ATOM     10  C   LIG    1       -7.962  -4.797  -4.266  0.00  0.00    +0.280 C 
BRANCH  10  11
ATOM     11  C   LIG    1       -8.672  -3.457  -4.470  0.00  0.00    -0.010 C 
BRANCH  11  13
ATOM     12  C   LIG    1      -10.894  -2.341  -4.706  0.00  0.00    +0.010 C 
ATOM     13  C   LIG    1      -10.185  -3.681  -4.502  0.00  0.00    +0.000 C 
ENDBRANCH  11  13
ENDBRANCH  10  11
ENDBRANCH   6  10
ENDBRANCH   5   7
BRANCH   5  14
ATOM     14  C   LIG    1       -3.692  -5.357  -3.568  0.00  0.00    -0.020 C 
ATOM     15  C   LIG    1       -4.048  -6.563  -2.697  0.00  0.00    +0.020 C 
ATOM     16  C   LIG    1       -2.179  -5.133  -3.535  0.00  0.00    +0.040 C 
ENDBRANCH   5  14
ENDBRANCH   1   5
BRANCH   3  17
ATOM     17  C   LIG    1       -2.410  -2.907   0.006  0.00  0.00    +0.120 C 
BRANCH  17  18
ATOM     18  C   LIG    1       -1.131  -2.110  -0.001  0.00  0.00    -0.060 A 
ATOM     19  C   LIG    1       -1.189  -0.750   0.008  0.00  0.00    +0.030 A 
ATOM     20  C   LIG    1        0.002  -0.004   0.002  0.00  0.00    -0.050 A 
ATOM     21  C   LIG    1       -0.017   1.401   0.010  0.00  0.00    +0.020 A 
ATOM     22  C   LIG    1        1.157   2.090   0.002  0.00  0.00    +0.000 A 
ATOM     23  C   LIG    1        2.380   1.424  -0.012  0.00  0.00    +0.000 A 
ATOM     24  C   LIG    1        2.437   0.064  -0.020  0.00  0.00    +0.020 A 
ATOM     25  C   LIG    1        1.247  -0.682  -0.013  0.00  0.00    -0.050 A 
ATOM     26  C   LIG    1        1.266  -2.087  -0.022  0.00  0.00    +0.030 A 
ATOM     27  C   LIG    1        0.092  -2.777  -0.015  0.00  0.00    +0.020 A 
ENDBRANCH  17  18
ENDBRANCH   3  17
TORSDOF 8
