REMARK  Name = ZINCpk00000y0sFU.0
REMARK                            x       y       z     vdW  Elec       q    Type
REMARK                         _______ _______ _______ _____ _____    ______ ____
ROOT
ATOM      1  C   LIG    1       -3.147   8.916   0.173  0.00  0.00    +0.520 C 
ATOM      2  N   LIG    1       -3.757   7.718   0.077  0.00  0.00    -0.670 N 
ATOM      3  H   LIG    1       -4.725   7.669   0.024  0.00  0.00    +0.420 HD
ATOM      4  O   LIG    1       -1.937   8.983   0.156  0.00  0.00    -0.510 OA
ENDROOT
BRANCH   1  10
ATOM      5  C   LIG    1       -3.716  13.532   1.353  0.00  0.00    +0.520 C 
ATOM      6  N   LIG    1       -3.855  12.608   0.382  0.00  0.00    -0.620 N 
ATOM      7  C   LIG    1       -4.824  12.804  -0.705  0.00  0.00    +0.260 C 
ATOM      8  C   LIG    1       -5.735  11.575  -0.781  0.00  0.00    +0.030 C 
ATOM      9  C   LIG    1       -4.875  10.317  -0.925  0.00  0.00    +0.040 C 
ATOM     10  C   LIG    1       -3.970  10.172   0.300  0.00  0.00    -0.010 C 
ATOM     11  C   LIG    1       -3.039  11.386   0.390  0.00  0.00    +0.310 C 
ATOM     12  O   LIG    1       -2.853  13.402   2.195  0.00  0.00    -0.530 OA
BRANCH   5  14
ATOM     13  C   LIG    1       -5.923  14.356   2.127  0.00  0.00    +0.050 C 
ATOM     14  C   LIG    1       -4.633  14.728   1.393  0.00  0.00    -0.030 C 
ATOM     15  C   LIG    1       -3.940  15.877   2.128  0.00  0.00    +0.050 C 
ENDBRANCH   5  14
ENDBRANCH   1  10
BRANCH   2  16
ATOM     16  C   LIG    1       -2.995   6.544   0.056  0.00  0.00    +0.090 A 
ATOM     17  C   LIG    1       -1.750   6.523  -0.570  0.00  0.00    +0.110 A 
ATOM     18  C   LIG    1       -1.029   5.342  -0.561  0.00  0.00    +0.020 A 
ATOM     19  C   LIG    1       -1.570   4.222   0.057  0.00  0.00    +0.340 A 
ATOM     20  N   LIG    1       -2.756   4.278   0.642  0.00  0.00    -0.480 NA
ATOM     21  C   LIG    1       -3.469   5.386   0.657  0.00  0.00    +0.290 A 
BRANCH  19  22
ATOM     22  N   LIG    1       -0.850   3.022   0.067  0.00  0.00    -0.330 N 
ATOM     23  C   LIG    1       -1.231   1.855   0.625  0.00  0.00    +0.520 A 
ATOM     24  N   LIG    1       -0.282   0.979   0.419  0.00  0.00    -0.540 NA
ATOM     25  C   LIG    1        0.714   1.543  -0.263  0.00  0.00    +0.450 A 
ATOM     26  N   LIG    1        0.415   2.794  -0.497  0.00  0.00    -0.310 NA
ENDBRANCH  19  22
ENDBRANCH   2  16
TORSDOF 4
