REMARK  Name = ZINCqH00000339jl.0
REMARK                            x       y       z     vdW  Elec       q    Type
REMARK                         _______ _______ _______ _____ _____    ______ ____
ROOT
ATOM      1  C   LIG    1       -0.027   1.343  -0.007  0.00  0.00    +0.060 A 
ATOM      2  C   LIG    1        1.255   1.790  -0.017  0.00  0.00    +0.010 A 
ATOM      3  C   LIG    1        2.100   0.670  -0.011  0.00  0.00    +0.280 A 
ATOM      4  N   LIG    1        1.358  -0.407   0.002  0.00  0.00    -0.270 NA
ATOM      5  N   LIG    1        0.013  -0.017   0.004  0.00  0.00    -0.330 N 
ENDROOT
BRANCH   5   6
ATOM      6  C   LIG    1       -1.095  -0.875   0.017  0.00  0.00    +0.190 A 
ATOM      7  C   LIG    1       -2.176  -0.627  -0.818  0.00  0.00    +0.000 A 
ATOM      8  C   LIG    1       -3.268  -1.474  -0.805  0.00  0.00    +0.080 A 
ATOM      9  C   LIG    1       -3.285  -2.568   0.040  0.00  0.00    -0.010 A 
ATOM     10  C   LIG    1       -2.209  -2.819   0.874  0.00  0.00    +0.120 A 
ATOM     11  F   LIG    1       -2.228  -3.890   1.698  0.00  0.00    -0.130 F 
ATOM     12  C   LIG    1       -1.111  -1.978   0.860  0.00  0.00    +0.000 A 
ENDBRANCH   5   6
BRANCH   2  13
ATOM     13  N   LIG    1        1.663   3.137  -0.030  0.00  0.00    -0.640 N 
ATOM     14  H   LIG    1        1.000   3.844  -0.034  0.00  0.00    +0.410 HD
ATOM     15  C   LIG    1        2.975   3.443  -0.039  0.00  0.00    +0.500 C 
ATOM     16  O   LIG    1        3.805   2.558  -0.034  0.00  0.00    -0.500 OA
BRANCH  15  17
ATOM     17  C   LIG    1        3.412   4.885  -0.053  0.00  0.00    +0.380 C 
BRANCH  17  18
ATOM     18  N   LIG    1        4.876   4.952  -0.060  0.00  0.00    -0.360 N 
ATOM     19  N   LIG    1        5.704   5.006   1.069  0.00  0.00    -0.270 NA
ATOM     20  C   LIG    1        6.947   5.053   0.663  0.00  0.00    +0.270 A 
ATOM     21  C   LIG    1        6.950   5.041  -0.737  0.00  0.00    -0.190 A 
ATOM     22 CL   LIG    1        8.355   5.097  -1.755  0.00  0.00    -0.040 Cl
ATOM     23  C   LIG    1        5.665   4.978  -1.156  0.00  0.00    +0.110 A 
ATOM     24  C   LIG    1        5.198   4.944  -2.588  0.00  0.00    +0.150 C 
ENDBRANCH  17  18
ENDBRANCH  15  17
ENDBRANCH   2  13
BRANCH   1  25
ATOM     25  C   LIG    1       -1.268   2.198  -0.015  0.00  0.00    +0.120 C 
BRANCH  25  27
ATOM     26  C   LIG    1       -3.088   3.155   1.405  0.00  0.00    +0.030 C 
ATOM     27  C   LIG    1       -1.761   2.394   1.421  0.00  0.00    +0.010 C 
ENDBRANCH  25  27
ENDBRANCH   1  25
TORSDOF 6
