REMARK  Name = ZINCrH000004k6sH.1
REMARK                            x       y       z     vdW  Elec       q    Type
REMARK                         _______ _______ _______ _____ _____    ______ ____
ROOT
ATOM      1  N   LIG    1        4.529  -7.218  -0.082  0.00  0.00    -0.670 NA
ATOM      2  C   LIG    1        4.350  -5.899  -0.073  0.00  0.00    +0.340 A 
ATOM      3  N   LIG    1        5.309  -4.943  -0.077  0.00  0.00    -0.400 NA
ATOM      4  N   LIG    1        4.873  -3.636  -0.070  0.00  0.00    -0.230 NA
ATOM      5  C   LIG    1        3.586  -3.439  -0.051  0.00  0.00    +0.020 A 
ATOM      6  S   LIG    1        2.851  -5.051  -0.053  0.00  0.00    -0.000 S 
ENDROOT
BRANCH   5   7
ATOM      7  C   LIG    1        2.885  -2.143  -0.038  0.00  0.00    +0.140 A 
ATOM      8  C   LIG    1        3.490  -0.929  -0.037  0.00  0.00    +0.000 A 
ATOM      9  C   LIG    1        2.412   0.061  -0.021  0.00  0.00    -0.120 A 
ATOM     10  C   LIG    1        2.373   1.456  -0.013  0.00  0.00    +0.060 A 
ATOM     11  C   LIG    1        1.166   2.100   0.002  0.00  0.00    -0.010 A 
ATOM     12  C   LIG    1       -0.017   1.375   0.010  0.00  0.00    +0.030 A 
ATOM     13  C   LIG    1        0.002  -0.004   0.002  0.00  0.00    +0.030 A 
ATOM     14  C   LIG    1        1.216  -0.679  -0.013  0.00  0.00    +0.060 A 
ATOM     15  O   LIG    1        1.546  -1.986  -0.024  0.00  0.00    -0.190 OA
ENDBRANCH   5   7
BRANCH   1  18
ATOM     16  C   LIG    1        4.787  -9.956  -0.100  0.00  0.00    +0.270 C 
ATOM     17  N   LIG    1        5.946  -9.060  -0.106  0.00  0.00    -0.620 N 
ATOM     18  C   LIG    1        5.765  -7.724  -0.097  0.00  0.00    +0.670 C 
ATOM     19  O   LIG    1        6.729  -6.979  -0.103  0.00  0.00    -0.610 OA
BRANCH  17  20
ATOM     20  C   LIG    1        7.301  -9.616  -0.123  0.00  0.00    +0.310 C 
BRANCH  20  21
ATOM     21  C   LIG    1        7.787  -9.817   1.313  0.00  0.00    -0.030 C 
ATOM     22  C   LIG    1        6.925 -10.879   2.001  0.00  0.00    +0.050 C 
ATOM     23  C   LIG    1        7.470 -11.130   3.410  0.00  0.00    +0.050 C 
ATOM     24  C   LIG    1        8.939 -11.546   3.318  0.00  0.00    +0.260 C 
ATOM     25  N   LIG    1        9.714 -10.477   2.676  0.00  0.00    -0.380 N 
ATOM     26  C   LIG    1       11.136 -10.847   2.660  0.00  0.00    +0.310 C 
ATOM     27  H   LIG    1        9.597  -9.620   3.195  0.00  0.00    +0.430 HD
ATOM     28  C   LIG    1        9.246 -10.281   1.299  0.00  0.00    +0.260 C 
ENDBRANCH  20  21
ENDBRANCH  17  20
ENDBRANCH   1  18
TORSDOF 4
