REMARK  Name = ZINCrH000004q8SR.0
REMARK                            x       y       z     vdW  Elec       q    Type
REMARK                         _______ _______ _______ _____ _____    ______ ____
ROOT
ATOM      1  C   LIG    1       -0.843   3.297   1.437  0.00  0.00    +0.590 C 
ATOM      2  N   LIG    1       -0.704   1.975   1.216  0.00  0.00    -0.730 N 
ATOM      3  H   LIG    1       -1.058   1.337   1.854  0.00  0.00    +0.390 HD
ATOM      4  O   LIG    1       -0.399   4.098   0.636  0.00  0.00    -0.520 OA
ENDROOT
BRANCH   1   7
ATOM      5  C   LIG    1       -1.296   6.292   2.209  0.00  0.00    +0.130 C 
ATOM      6  C   LIG    1       -1.732   5.079   2.989  0.00  0.00    +0.010 A 
ATOM      7  C   LIG    1       -1.530   3.771   2.646  0.00  0.00    -0.080 A 
ATOM      8  N   LIG    1       -2.078   2.970   3.630  0.00  0.00    -0.510 N 
ATOM      9  H   LIG    1       -2.070   2.000   3.633  0.00  0.00    +0.420 HD
ATOM     10  C   LIG    1       -2.618   3.740   4.575  0.00  0.00    +0.120 A 
ATOM     11  C   LIG    1       -3.323   3.336   5.845  0.00  0.00    +0.130 C 
ATOM     12  C   LIG    1       -3.306   4.512   6.826  0.00  0.00    +0.050 C 
ATOM     13  C   LIG    1       -3.856   5.779   6.163  0.00  0.00    +0.040 C 
ATOM     14  C   LIG    1       -2.912   6.181   5.039  0.00  0.00    +0.430 C 
ATOM     15  O   LIG    1       -2.585   7.333   4.845  0.00  0.00    -0.460 OA
ATOM     16  C   LIG    1       -2.426   5.071   4.205  0.00  0.00    -0.270 A 
ENDBRANCH   1   7
BRANCH   2  17
ATOM     17  C   LIG    1       -0.018   1.503   0.010  0.00  0.00    +0.330 C 
BRANCH  17  18
ATOM     18  C   LIG    1        0.002  -0.004   0.002  0.00  0.00    -0.070 A 
ATOM     19  C   LIG    1        1.057  -0.684   0.582  0.00  0.00    +0.000 A 
ATOM     20  C   LIG    1        1.076  -2.066   0.580  0.00  0.00    +0.050 A 
ATOM     21  C   LIG    1        0.046  -2.772  -0.011  0.00  0.00    -0.070 A 
ATOM     22  C   LIG    1       -1.011  -2.092  -0.598  0.00  0.00    +0.120 A 
ATOM     23  C   LIG    1       -1.031  -0.705  -0.590  0.00  0.00    +0.020 A 
BRANCH  22  24
ATOM     24  O   LIG    1       -2.025  -2.784  -1.181  0.00  0.00    -0.300 OA
BRANCH  24  25
ATOM     25  C   LIG    1       -1.939  -4.210  -1.151  0.00  0.00    +0.230 C 
BRANCH  25  26
ATOM     26  C   LIG    1       -3.161  -4.810  -1.849  0.00  0.00    +0.470 C 
ATOM     27  F   LIG    1       -4.324  -4.399  -1.189  0.00  0.00    -0.170 F 
ATOM     28  F   LIG    1       -3.076  -6.206  -1.821  0.00  0.00    -0.170 F 
ATOM     29  F   LIG    1       -3.200  -4.372  -3.178  0.00  0.00    -0.170 F 
ENDBRANCH  25  26
ENDBRANCH  24  25
ENDBRANCH  22  24
ENDBRANCH  17  18
ENDBRANCH   2  17
TORSDOF 6
