REMARK  Name = ZINCrH00000No4W3.0
REMARK                            x       y       z     vdW  Elec       q    Type
REMARK                         _______ _______ _______ _____ _____    ______ ____
ROOT
ATOM      1  C   LIG    1       -0.250   3.792   0.872  0.00  0.00    +0.120 A 
ATOM      2  C   LIG    1       -1.264   4.670   1.075  0.00  0.00    +0.090 A 
ATOM      3  N   LIG    1       -1.688   4.548   2.338  0.00  0.00    -0.460 NA
ATOM      4  C   LIG    1       -0.974   3.616   2.949  0.00  0.00    +0.220 A 
ATOM      5  C   LIG    1       -1.006   3.102   4.261  0.00  0.00    +0.120 A 
ATOM      6  C   LIG    1       -0.130   2.125   4.616  0.00  0.00    +0.030 A 
ATOM      7  C   LIG    1        0.790   1.635   3.673  0.00  0.00    +0.080 A 
ATOM      8  C   LIG    1        0.817   2.137   2.422  0.00  0.00    -0.010 A 
ATOM      9  N   LIG    1       -0.058   3.121   2.049  0.00  0.00    -0.380 N 
ENDROOT
BRANCH   2  10
ATOM     10  C   LIG    1       -1.820   5.625   0.049  0.00  0.00    +0.100 C 
ATOM     11  C   LIG    1       -1.643   7.084   0.518  0.00  0.00    +0.030 C 
ATOM     12  C   LIG    1       -2.907   7.843   0.077  0.00  0.00    +0.040 C 
ATOM     13  C   LIG    1       -3.808   6.819  -0.644  0.00  0.00    +0.030 C 
ATOM     14  C   LIG    1       -3.354   5.450  -0.079  0.00  0.00    +0.080 C 
BRANCH  13  15
ATOM     15  C   LIG    1       -5.257   7.069  -0.318  0.00  0.00    +0.470 C 
ATOM     16  O   LIG    1       -5.906   6.219   0.245  0.00  0.00    -0.500 OA
BRANCH  15  17
ATOM     17  O   LIG    1       -5.829   8.237  -0.652  0.00  0.00    -0.360 OA
ATOM     18  C   LIG    1       -7.228   8.409  -0.307  0.00  0.00    +0.250 C 
ENDBRANCH  15  17
ENDBRANCH  13  15
ENDBRANCH   2  10
BRANCH   8  19
ATOM     19  C   LIG    1        1.813   1.605   1.425  0.00  0.00    +0.460 C 
ATOM     20  F   LIG    1        1.133   0.994   0.365  0.00  0.00    -0.180 F 
ATOM     21  F   LIG    1        2.590   2.660   0.933  0.00  0.00    -0.190 F 
ENDBRANCH   8  19
BRANCH   1  22
ATOM     22  N   LIG    1        0.465   3.608  -0.318  0.00  0.00    -0.580 N 
ATOM     23  H   LIG    1        0.836   2.671  -0.375  0.00  0.00    +0.350 HD
BRANCH  22  24
ATOM     24  C   LIG    1        1.535   4.606  -0.449  0.00  0.00    +0.210 C 
BRANCH  24  25
ATOM     25  C   LIG    1        2.389   4.280  -1.676  0.00  0.00    +0.180 C 
BRANCH  25  26
ATOM     26  O   LIG    1        1.597   4.417  -2.857  0.00  0.00    -0.370 OA
BRANCH  26  28
ATOM     27  C   LIG    1        1.363   4.310  -5.261  0.00  0.00    +0.040 C 
ATOM     28  C   LIG    1        2.304   4.133  -4.067  0.00  0.00    +0.160 C 
ENDBRANCH  26  28
ENDBRANCH  25  26
ENDBRANCH  24  25
ENDBRANCH  22  24
ENDBRANCH   1  22
TORSDOF 9
