REMARK  Name = ZINCqH0000033JTW.0
REMARK                            x       y       z     vdW  Elec       q    Type
REMARK                         _______ _______ _______ _____ _____    ______ ____
ROOT
ATOM      1  S   LIG    1       -2.732   0.846   0.019  0.00  0.00    +2.700 S 
ATOM      2  O   LIG    1       -2.438  -0.429  -0.534  0.00  0.00    -0.950 OA
ATOM      3  O   LIG    1       -3.720   1.716  -0.516  0.00  0.00    -0.940 OA
ENDROOT
BRANCH   1   4
ATOM      4  C   LIG    1       -1.220   1.750   0.017  0.00  0.00    -0.700 A 
ATOM      5  C   LIG    1       -0.013   1.076   0.008  0.00  0.00    +0.180 A 
ATOM      6  C   LIG    1        1.175   1.782   0.000  0.00  0.00    +0.010 A 
ATOM      7  C   LIG    1        1.155   3.169   0.008  0.00  0.00    +0.170 A 
ATOM      8  C   LIG    1       -0.057   3.844   0.023  0.00  0.00    -0.060 A 
ATOM      9  C   LIG    1       -1.242   3.133   0.031  0.00  0.00    +0.180 A 
BRANCH   7  10
ATOM     10  O   LIG    1        2.322   3.866   0.000  0.00  0.00    -0.310 OA
BRANCH  10  11
ATOM     11  C   LIG    1        2.225   5.292   0.009  0.00  0.00    +0.600 C 
ATOM     12  F   LIG    1        1.525   5.719  -1.124  0.00  0.00    -0.160 F 
ATOM     13  F   LIG    1        3.510   5.846  -0.001  0.00  0.00    -0.130 F 
ATOM     14  F   LIG    1        1.547   5.707   1.160  0.00  0.00    -0.160 F 
ENDBRANCH  10  11
ENDBRANCH   7  10
ENDBRANCH   1   4
BRANCH   1  15
ATOM     15  N   LIG    1       -3.146   0.586   1.601  0.00  0.00    -1.050 N 
ATOM     16  H   LIG    1       -3.168  -0.317   1.954  0.00  0.00    +0.430 HD
BRANCH  15  20
ATOM     17  C   LIG    1       -4.096   3.816   4.064  0.00  0.00    +0.100 A 
ATOM     18  C   LIG    1       -4.619   3.742   2.784  0.00  0.00    -0.010 A 
ATOM     19  C   LIG    1       -4.304   2.672   1.967  0.00  0.00    +0.010 A 
ATOM     20  C   LIG    1       -3.463   1.669   2.429  0.00  0.00    +0.140 A 
ATOM     21  C   LIG    1       -2.942   1.736   3.714  0.00  0.00    -0.040 A 
ATOM     22  C   LIG    1       -3.252   2.811   4.530  0.00  0.00    +0.120 A 
BRANCH  22  23
ATOM     23  O   LIG    1       -2.739   2.883   5.787  0.00  0.00    -0.300 OA
ATOM     24  C   LIG    1       -1.880   1.817   6.198  0.00  0.00    +0.240 C 
ENDBRANCH  22  23
BRANCH  17  25
ATOM     25  O   LIG    1       -4.407   4.870   4.866  0.00  0.00    -0.300 OA
BRANCH  25  27
ATOM     26  C   LIG    1       -5.510   6.962   5.363  0.00  0.00    +0.070 C 
ATOM     27  C   LIG    1       -5.277   5.864   4.323  0.00  0.00    +0.170 C 
ENDBRANCH  25  27
ENDBRANCH  17  25
ENDBRANCH  15  20
ENDBRANCH   1  15
TORSDOF 8
