REMARK  Name = ZINCvU0000000HC6.0
REMARK                            x       y       z     vdW  Elec       q    Type
REMARK                         _______ _______ _______ _____ _____    ______ ____
ROOT
ATOM      1  N   LIG    1       -2.331  -3.345   0.012  0.00  0.00    -0.390 N 
ATOM      2  C   LIG    1       -1.657  -4.555  -0.007  0.00  0.00    +0.030 A 
ATOM      3  C   LIG    1       -0.330  -4.261  -0.017  0.00  0.00    +0.200 A 
ATOM      4  N   LIG    1       -0.196  -2.929  -0.011  0.00  0.00    -0.480 NA
ATOM      5  C   LIG    1       -1.383  -2.364   0.003  0.00  0.00    +0.200 A 
ENDROOT
BRANCH   1  12
ATOM      6  C   LIG    1       -3.631  -3.191   2.540  0.00  0.00    +0.110 C 
ATOM      7  C   LIG    1       -4.394  -3.082   1.244  0.00  0.00    -0.060 A 
ATOM      8  C   LIG    1       -5.762  -2.897   1.262  0.00  0.00    +0.030 A 
ATOM      9  C   LIG    1       -6.464  -2.803   0.074  0.00  0.00    +0.040 A 
ATOM     10  C   LIG    1       -5.797  -2.888  -1.135  0.00  0.00    +0.020 A 
ATOM     11  C   LIG    1       -4.428  -3.067  -1.158  0.00  0.00    +0.040 A 
ATOM     12  C   LIG    1       -3.721  -3.162   0.033  0.00  0.00    +0.090 A 
ENDBRANCH   1  12
BRANCH   2  13
ATOM     13  C   LIG    1       -2.263  -5.903  -0.009  0.00  0.00    -0.010 A 
ATOM     14  C   LIG    1       -3.648  -6.049  -0.096  0.00  0.00    +0.030 A 
ATOM     15  C   LIG    1       -4.207  -7.310  -0.103  0.00  0.00    +0.040 A 
ATOM     16  C   LIG    1       -3.397  -8.430  -0.012  0.00  0.00    -0.030 A 
ATOM     17  C   LIG    1       -2.023  -8.292   0.080  0.00  0.00    +0.040 A 
ATOM     18 CL   LIG    1       -4.109 -10.013  -0.013  0.00  0.00    -0.070 Cl
ATOM     19  C   LIG    1       -1.452  -7.036   0.082  0.00  0.00    +0.050 A 
ENDBRANCH   2  13
BRANCH   5  20
ATOM     20  S   LIG    1       -1.696  -0.631   0.015  0.00  0.00    +0.050 S 
BRANCH  20  21
ATOM     21  C   LIG    1        0.002  -0.004   0.002  0.00  0.00    +0.090 C 
BRANCH  21  22
ATOM     22  C   LIG    1       -0.018   1.503   0.010  0.00  0.00    +0.410 C 
ATOM     23  O   LIG    1       -1.077   2.095   0.018  0.00  0.00    -0.420 OA
BRANCH  22  24
ATOM     24  C   LIG    1        1.240   2.252   0.002  0.00  0.00    -0.210 A 
ATOM     25  C   LIG    1        2.465   1.572  -0.007  0.00  0.00    +0.100 A 
ATOM     26  C   LIG    1        3.636   2.272  -0.019  0.00  0.00    -0.030 A 
ATOM     27  C   LIG    1        3.625   3.665  -0.012  0.00  0.00    +0.160 A 
ATOM     28  C   LIG    1        2.421   4.356   0.003  0.00  0.00    -0.050 A 
ATOM     29  C   LIG    1        1.225   3.659   0.010  0.00  0.00    +0.190 A 
BRANCH  27  30
ATOM     30  O   LIG    1        4.796   4.349  -0.019  0.00  0.00    -0.490 OA
ATOM     31  H   LIG    1        5.143   4.543   0.862  0.00  0.00    +0.400 HD
ENDBRANCH  27  30
BRANCH  29  32
ATOM     32  O   LIG    1        0.046   4.329   0.025  0.00  0.00    -0.480 OA
ATOM     33  H   LIG    1       -0.288   4.518   0.912  0.00  0.00    +0.400 HD
ENDBRANCH  29  32
ENDBRANCH  22  24
ENDBRANCH  21  22
ENDBRANCH  20  21
ENDBRANCH   5  20
TORSDOF 8
