REMARK  Name = ZINCwJ0000000d8j.0
REMARK                            x       y       z     vdW  Elec       q    Type
REMARK                         _______ _______ _______ _____ _____    ______ ____
ROOT
ATOM      1  C   LIG    1        0.174  -0.579   0.644  0.00  0.00    -0.140 A 
ATOM      2  C   LIG    1       -0.294  -1.454  -0.317  0.00  0.00    +0.070 A 
ATOM      3  C   LIG    1       -0.073  -2.812  -0.183  0.00  0.00    +0.070 A 
ATOM      4  C   LIG    1        0.617  -3.295   0.913  0.00  0.00    +0.070 A 
ATOM      5  C   LIG    1        1.085  -2.419   1.875  0.00  0.00    +0.060 A 
ATOM      6  C   LIG    1        0.869  -1.061   1.738  0.00  0.00    -0.140 A 
ENDROOT
BRANCH   1   7
ATOM      7  C   LIG    1       -0.067   0.901   0.498  0.00  0.00    +0.320 C 
BRANCH   7  12
ATOM      8  C   LIG    1       -3.585   0.983   1.802  0.00  0.00    +0.080 C 
ATOM      9  C   LIG    1       -3.795   2.499   1.802  0.00  0.00    +0.060 C 
ATOM     10  C   LIG    1       -2.493   3.185   2.225  0.00  0.00    +0.070 C 
ATOM     11  C   LIG    1       -1.368   2.756   1.279  0.00  0.00    +0.260 C 
ATOM     12  N   LIG    1       -1.198   1.300   1.346  0.00  0.00    -0.380 N 
ATOM     13  H   LIG    1       -1.015   1.027   2.300  0.00  0.00    +0.410 HD
ATOM     14  C   LIG    1       -2.419   0.635   0.874  0.00  0.00    +0.280 C 
BRANCH   8  20
ATOM     15  C   LIG    1       -5.895  -0.216   3.553  0.00  0.00    +0.330 C 
ATOM     16  N   LIG    1       -5.838  -0.218   2.089  0.00  0.00    -0.450 N 
ATOM     17  C   LIG    1       -6.766  -0.731   1.252  0.00  0.00    +0.430 A 
ATOM     18  N   LIG    1       -6.366  -0.552   0.023  0.00  0.00    -0.480 NA
ATOM     19  C   LIG    1       -5.183   0.080   0.031  0.00  0.00    +0.170 A 
ATOM     20  C   LIG    1       -4.837   0.301   1.314  0.00  0.00    -0.060 A 
ENDBRANCH   8  20
ENDBRANCH   7  12
ENDBRANCH   1   7
BRANCH   6  21
ATOM     21  C   LIG    1        1.385  -0.106   2.784  0.00  0.00    +0.290 C 
BRANCH  21  22
ATOM     22  N   LIG    1        2.644   0.493   2.321  0.00  0.00    -0.380 N 
ATOM     23  C   LIG    1        3.676  -0.548   2.232  0.00  0.00    +0.260 C 
ATOM     24  C   LIG    1        3.836  -1.231   3.592  0.00  0.00    +0.050 C 
ATOM     25  C   LIG    1        4.248  -0.188   4.635  0.00  0.00    +0.070 C 
ATOM     26  C   LIG    1        3.202   0.930   4.667  0.00  0.00    +0.070 C 
ATOM     27  C   LIG    1        3.066   1.533   3.267  0.00  0.00    +0.270 C 
ATOM     28  H   LIG    1        2.505   0.905   1.411  0.00  0.00    +0.420 HD
BRANCH  26  29
ATOM     29  C   LIG    1        3.637   1.999   5.636  0.00  0.00    -0.060 A 
ATOM     30  C   LIG    1        4.470   3.026   5.378  0.00  0.00    +0.170 A 
ATOM     31  N   LIG    1        4.599   3.747   6.501  0.00  0.00    -0.480 NA
ATOM     32  C   LIG    1        3.878   3.207   7.445  0.00  0.00    +0.440 A 
ATOM     33  N   LIG    1        3.257   2.117   6.945  0.00  0.00    -0.450 N 
ATOM     34  C   LIG    1        2.349   1.225   7.670  0.00  0.00    +0.330 C 
ENDBRANCH  26  29
ENDBRANCH  21  22
ENDBRANCH   6  21
TORSDOF 6
