REMARK  Name = ZINCwJ0000000d8j.1
REMARK                            x       y       z     vdW  Elec       q    Type
REMARK                         _______ _______ _______ _____ _____    ______ ____
ROOT
ATOM      1  C   LIG    1        1.282  -2.461   2.497  0.00  0.00    -0.140 A 
ATOM      2  C   LIG    1        2.580  -2.938   2.495  0.00  0.00    +0.070 A 
ATOM      3  C   LIG    1        3.151  -3.391   3.670  0.00  0.00    +0.070 A 
ATOM      4  C   LIG    1        2.421  -3.378   4.843  0.00  0.00    +0.070 A 
ATOM      5  C   LIG    1        1.121  -2.907   4.844  0.00  0.00    +0.070 A 
ATOM      6  C   LIG    1        0.552  -2.449   3.671  0.00  0.00    -0.140 A 
ENDROOT
BRANCH   1   7
ATOM      7  C   LIG    1        0.662  -1.962   1.218  0.00  0.00    +0.310 C 
BRANCH   7  12
ATOM      8  C   LIG    1       -0.019   1.526   0.010  0.00  0.00    +0.080 C 
ATOM      9  C   LIG    1        1.420   2.051  -0.001  0.00  0.00    +0.060 C 
ATOM     10  C   LIG    1        2.172   1.474   1.202  0.00  0.00    +0.070 C 
ATOM     11  C   LIG    1        2.112  -0.054   1.150  0.00  0.00    +0.260 C 
ATOM     12  N   LIG    1        0.712  -0.494   1.190  0.00  0.00    -0.380 N 
ATOM     13  H   LIG    1        0.270  -0.128   2.019  0.00  0.00    +0.410 HD
ATOM     14  C   LIG    1        0.002  -0.004   0.002  0.00  0.00    +0.270 C 
BRANCH   8  20
ATOM     15  C   LIG    1       -1.858   4.058  -0.195  0.00  0.00    +0.330 C 
ATOM     16  N   LIG    1       -1.546   3.134  -1.288  0.00  0.00    -0.450 N 
ATOM     17  C   LIG    1       -1.994   3.216  -2.559  0.00  0.00    +0.430 A 
ATOM     18  N   LIG    1       -1.508   2.214  -3.239  0.00  0.00    -0.480 NA
ATOM     19  C   LIG    1       -0.738   1.466  -2.436  0.00  0.00    +0.170 A 
ATOM     20  C   LIG    1       -0.746   2.026  -1.211  0.00  0.00    -0.060 A 
ENDBRANCH   8  20
ENDBRANCH   7  12
ENDBRANCH   1   7
BRANCH   6  21
ATOM     21  C   LIG    1       -0.865  -1.935   3.671  0.00  0.00    +0.310 C 
BRANCH  21  22
ATOM     22  N   LIG    1       -1.765  -2.980   3.165  0.00  0.00    -0.380 N 
ATOM     23  C   LIG    1       -1.763  -4.117   4.094  0.00  0.00    +0.260 C 
ATOM     24  C   LIG    1       -2.635  -5.241   3.532  0.00  0.00    +0.070 C 
ATOM     25  C   LIG    1       -4.067  -4.728   3.353  0.00  0.00    +0.060 C 
ATOM     26  C   LIG    1       -4.048  -3.498   2.442  0.00  0.00    +0.080 C 
ATOM     27  C   LIG    1       -3.123  -2.438   3.044  0.00  0.00    +0.270 C 
ATOM     28  H   LIG    1       -1.446  -3.288   2.259  0.00  0.00    +0.410 HD
BRANCH  26  29
ATOM     29  C   LIG    1       -5.443  -2.940   2.321  0.00  0.00    -0.060 A 
ATOM     30  C   LIG    1       -6.040  -2.080   3.168  0.00  0.00    +0.170 A 
ATOM     31  N   LIG    1       -7.274  -1.831   2.705  0.00  0.00    -0.480 NA
ATOM     32  C   LIG    1       -7.464  -2.504   1.603  0.00  0.00    +0.430 A 
ATOM     33  N   LIG    1       -6.344  -3.205   1.325  0.00  0.00    -0.450 N 
ATOM     34  C   LIG    1       -6.134  -4.088   0.175  0.00  0.00    +0.330 C 
ENDBRANCH  26  29
ENDBRANCH  21  22
ENDBRANCH   6  21
TORSDOF 6
