REMARK  Name = ZINCvU0000000AwN.0
REMARK                            x       y       z     vdW  Elec       q    Type
REMARK                         _______ _______ _______ _____ _____    ______ ____
ROOT
ATOM      1  N   LIG    1        2.509  -4.358  -1.538  0.00  0.00    -0.710 N 
ATOM      2  H   LIG    1        2.227  -4.987  -0.856  0.00  0.00    +0.410 HD
ATOM      3  C   LIG    1        2.184  -3.055  -1.430  0.00  0.00    +0.540 C 
ATOM      4  O   LIG    1        2.537  -2.269  -2.283  0.00  0.00    -0.520 OA
ENDROOT
BRANCH   1   5
ATOM      5  C   LIG    1        3.289  -4.825  -2.687  0.00  0.00    +0.290 C 
BRANCH   5   6
ATOM      6  C   LIG    1        2.363  -5.109  -3.841  0.00  0.00    +0.450 C 
ATOM      7  O   LIG    1        1.173  -4.939  -3.717  0.00  0.00    -0.490 OA
BRANCH   6   8
ATOM      8  O   LIG    1        2.859  -5.551  -5.007  0.00  0.00    -0.350 OA
BRANCH   8  10
ATOM      9  C   LIG    1        2.654  -6.298  -7.316  0.00  0.00    +0.070 C 
ATOM     10  C   LIG    1        1.908  -5.804  -6.075  0.00  0.00    +0.200 C 
ENDBRANCH   8  10
ENDBRANCH   6   8
ENDBRANCH   5   6
BRANCH   5  11
ATOM     11  C   LIG    1        4.039  -6.104  -2.308  0.00  0.00    +0.140 C 
BRANCH  11  12
ATOM     12  C   LIG    1        5.053  -5.794  -1.238  0.00  0.00    -0.080 A 
ATOM     13  C   LIG    1        6.239  -5.245  -1.509  0.00  0.00    -0.140 A 
ATOM     14  S   LIG    1        7.146  -5.031  -0.018  0.00  0.00    +0.210 S 
ATOM     15  C   LIG    1        5.827  -5.720   0.919  0.00  0.00    -0.140 A 
ATOM     16 CL   LIG    1        5.826  -5.930   2.642  0.00  0.00    +0.000 Cl
ATOM     17 CL   LIG    1        6.800  -4.808  -3.093  0.00  0.00    +0.010 Cl
ATOM     18  C   LIG    1        4.823  -6.051   0.104  0.00  0.00    +0.060 A 
ENDBRANCH  11  12
ENDBRANCH   5  11
ENDBRANCH   1   5
BRANCH   3  19
ATOM     19  C   LIG    1        1.382  -2.574  -0.248  0.00  0.00    +0.090 C 
BRANCH  19  20
ATOM     20  C   LIG    1        2.135  -2.869   1.024  0.00  0.00    -0.080 A 
ATOM     21  C   LIG    1        3.439  -2.434   1.171  0.00  0.00    +0.020 A 
ATOM     22  C   LIG    1        4.130  -2.704   2.338  0.00  0.00    +0.000 A 
ATOM     23  C   LIG    1        3.517  -3.409   3.357  0.00  0.00    +0.020 A 
ATOM     24  C   LIG    1        2.212  -3.842   3.210  0.00  0.00    +0.000 A 
ATOM     25  C   LIG    1        1.520  -3.568   2.045  0.00  0.00    -0.070 A 
ATOM     26  C   LIG    1        0.096  -4.037   1.887  0.00  0.00    +0.090 C 
ENDBRANCH  19  20
BRANCH  19  27
ATOM     27  C   LIG    1        1.155  -1.089  -0.365  0.00  0.00    -0.070 A 
ATOM     28  C   LIG    1       -0.127  -0.577  -0.288  0.00  0.00    +0.010 A 
ATOM     29  C   LIG    1       -0.334   0.785  -0.395  0.00  0.00    +0.000 A 
ATOM     30  C   LIG    1        0.740   1.636  -0.579  0.00  0.00    +0.000 A 
ATOM     31  C   LIG    1        2.021   1.124  -0.658  0.00  0.00    +0.000 A 
ATOM     32  C   LIG    1        2.229  -0.238  -0.550  0.00  0.00    +0.040 A 
ENDBRANCH  19  27
ENDBRANCH   3  19
TORSDOF 9
