REMARK  Name = ZINCrg00000SjSB6.1
REMARK                            x       y       z     vdW  Elec       q    Type
REMARK                         _______ _______ _______ _____ _____    ______ ____
ROOT
ATOM      1  C   LIG    1        5.917   2.050  -0.105  0.00  0.00    +0.170 C 
ATOM      2  C   LIG    1        4.634   1.217  -0.037  0.00  0.00    +0.210 C 
ATOM      3  N   LIG    1        3.471   2.117  -0.020  0.00  0.00    -0.450 N 
ATOM      4  C   LIG    1        3.539   3.034   1.127  0.00  0.00    +0.190 C 
ATOM      5  C   LIG    1        4.833   3.849   1.047  0.00  0.00    +0.230 C 
ATOM      6  O   LIG    1        5.950   2.957   1.000  0.00  0.00    -0.360 OA
ENDROOT
BRANCH   3   7
ATOM      7  C   LIG    1        2.288   1.399  -0.012  0.00  0.00    +0.550 A 
ATOM      8  N   LIG    1        1.137   2.053   0.002  0.00  0.00    -0.570 NA
ATOM      9  C   LIG    1       -0.017   1.392   0.010  0.00  0.00    +0.470 A 
ATOM     10  C   LIG    1        0.002  -0.004   0.002  0.00  0.00    -0.110 A 
ATOM     11  C   LIG    1        1.225  -0.646  -0.013  0.00  0.00    +0.150 A 
ATOM     12  N   LIG    1        2.336   0.075  -0.020  0.00  0.00    -0.560 NA
BRANCH  11  13
ATOM     13  C   LIG    1        1.294  -2.152  -0.022  0.00  0.00    +0.530 C 
ATOM     14  F   LIG    1        0.181  -2.674   0.645  0.00  0.00    -0.170 F 
ATOM     15  F   LIG    1        2.463  -2.569   0.624  0.00  0.00    -0.160 F 
ATOM     16  F   LIG    1        1.303  -2.610  -1.344  0.00  0.00    -0.170 F 
ENDBRANCH  11  13
BRANCH   9  17
ATOM     17  N   LIG    1       -1.220   2.079   0.019  0.00  0.00    -0.590 N 
ATOM     18  C   LIG    1       -1.230   3.540  -0.083  0.00  0.00    +0.300 C 
ATOM     19  C   LIG    1       -2.482   1.343   0.132  0.00  0.00    +0.320 C 
ENDBRANCH   9  17
ENDBRANCH   3   7
BRANCH   1  20
ATOM     20  C   LIG    1        7.132   1.122  -0.043  0.00  0.00    +0.210 C 
BRANCH  20  25
ATOM     21  C   LIG    1       12.154   3.438  -1.189  0.00  0.00    +0.190 C 
ATOM     22  N   LIG    1       10.924   2.638  -1.123  0.00  0.00    -0.550 NA
ATOM     23  C   LIG    1       10.792   1.982   0.185  0.00  0.00    +0.180 C 
ATOM     24  C   LIG    1        9.543   1.098   0.185  0.00  0.00    +0.180 C 
ATOM     25  N   LIG    1        8.362   1.922  -0.109  0.00  0.00    -0.530 NA
ATOM     26  C   LIG    1        8.494   2.579  -1.417  0.00  0.00    +0.170 C 
ATOM     27  C   LIG    1        9.743   3.463  -1.417  0.00  0.00    +0.180 C 
ENDBRANCH  20  25
ENDBRANCH   1  20
TORSDOF 5
