REMARK  Name = ZINCwl0000000oXv.0
REMARK                            x       y       z     vdW  Elec       q    Type
REMARK                         _______ _______ _______ _____ _____    ______ ____
ROOT
ATOM      1  N   LIG    1       -0.928   4.668   3.659  0.00  0.00    -0.500 N 
ATOM      2  C   LIG    1        0.014   5.384   3.011  0.00  0.00    +0.520 C 
ATOM      3  O   LIG    1        0.561   4.921   2.033  0.00  0.00    -0.510 OA
ENDROOT
BRANCH   1   9
ATOM      4  N   LIG    1       -2.678   1.714   2.350  0.00  0.00    -0.540 N 
ATOM      5  C   LIG    1       -1.725   0.775   2.494  0.00  0.00    +0.710 A 
ATOM      6  N   LIG    1       -0.520   1.078   3.009  0.00  0.00    -0.660 N 
ATOM      7  H   LIG    1        0.149   0.383   3.102  0.00  0.00    +0.440 HD
ATOM      8  C   LIG    1       -0.233   2.336   3.397  0.00  0.00    +0.570 A 
ATOM      9  C   LIG    1       -1.206   3.344   3.260  0.00  0.00    -0.170 A 
ATOM     10  O   LIG    1        0.863   2.600   3.862  0.00  0.00    -0.510 OA
ATOM     11  O   LIG    1       -1.958  -0.369   2.152  0.00  0.00    -0.520 OA
ATOM     12  C   LIG    1       -2.435   3.015   2.725  0.00  0.00    +0.500 A 
BRANCH  12  13
ATOM     13  N   LIG    1       -3.406   3.975   2.572  0.00  0.00    -0.830 N 
ATOM     14  H   LIG    1       -3.198   4.907   2.742  0.00  0.00    +0.420 HD
ATOM     15  H   LIG    1       -4.301   3.721   2.296  0.00  0.00    +0.410 HD
ENDBRANCH  12  13
BRANCH   4  16
ATOM     16  C   LIG    1       -3.980   1.350   1.786  0.00  0.00    +0.310 C 
BRANCH  16  18
ATOM     17  C   LIG    1       -6.284   0.547   2.324  0.00  0.00    +0.050 C 
ATOM     18  C   LIG    1       -4.924   0.927   2.913  0.00  0.00    +0.010 C 
ENDBRANCH  16  18
ENDBRANCH   4  16
ENDBRANCH   1   9
BRANCH   2  19
ATOM     19  C   LIG    1        0.387   6.759   3.504  0.00  0.00    +0.290 C 
BRANCH  19  20
ATOM     20  N   LIG    1        1.427   7.325   2.635  0.00  0.00    -0.370 N 
ATOM     21  C   LIG    1        2.653   6.524   2.753  0.00  0.00    +0.320 C 
ATOM     22  H   LIG    1        1.109   7.313   1.677  0.00  0.00    +0.420 HD
BRANCH  20  23
ATOM     23  C   LIG    1        1.705   8.709   3.041  0.00  0.00    +0.230 C 
ATOM     24  C   LIG    1        2.127   8.728   4.509  0.00  0.00    +0.040 C 
ATOM     25  C   LIG    1        2.201  10.188   4.971  0.00  0.00    +0.060 C 
ATOM     26  C   LIG    1        0.781  10.744   5.040  0.00  0.00    +0.080 C 
ATOM     27  C   LIG    1        0.047  10.482   3.751  0.00  0.00    -0.040 A 
ATOM     28  C   LIG    1       -1.099  11.225   3.497  0.00  0.00    +0.030 A 
ATOM     29  C   LIG    1       -1.819  11.029   2.336  0.00  0.00    +0.050 A 
ATOM     30  C   LIG    1       -1.397  10.086   1.418  0.00  0.00    +0.020 A 
ATOM     31  C   LIG    1       -0.258   9.348   1.668  0.00  0.00    -0.010 A 
ATOM     32  C   LIG    1        0.469   9.545   2.835  0.00  0.00    -0.140 A 
ENDBRANCH  20  23
ENDBRANCH  19  20
ENDBRANCH   2  19
BRANCH   1  33
ATOM     33  C   LIG    1       -1.663   5.266   4.777  0.00  0.00    +0.300 C 
BRANCH  33  34
ATOM     34  C   LIG    1       -0.995   4.872   6.095  0.00  0.00    +0.170 C 
BRANCH  34  35
ATOM     35  O   LIG    1        0.314   5.443   6.155  0.00  0.00    -0.400 OA
ATOM     36  C   LIG    1        1.028   5.134   7.354  0.00  0.00    +0.220 C 
ENDBRANCH  34  35
ENDBRANCH  33  34
ENDBRANCH   1  33
TORSDOF 10
