REMARK  Name = ZINCwl0000000oXv.1
REMARK                            x       y       z     vdW  Elec       q    Type
REMARK                         _______ _______ _______ _____ _____    ______ ____
ROOT
ATOM      1  N   LIG    1       -0.909   2.868  -1.616  0.00  0.00    -0.480 N 
ATOM      2  C   LIG    1        0.162   3.331  -2.294  0.00  0.00    +0.490 C 
ATOM      3  O   LIG    1        0.258   4.515  -2.542  0.00  0.00    -0.520 OA
ENDROOT
BRANCH   1   9
ATOM      4  N   LIG    1       -2.815   5.650  -0.157  0.00  0.00    -0.540 N 
ATOM      5  C   LIG    1       -4.035   5.417  -0.675  0.00  0.00    +0.710 A 
ATOM      6  N   LIG    1       -4.256   4.372  -1.492  0.00  0.00    -0.660 N 
ATOM      7  H   LIG    1       -5.145   4.225  -1.853  0.00  0.00    +0.440 HD
ATOM      8  C   LIG    1       -3.257   3.530  -1.821  0.00  0.00    +0.570 A 
ATOM      9  C   LIG    1       -1.969   3.740  -1.292  0.00  0.00    -0.180 A 
ATOM     10  O   LIG    1       -3.467   2.588  -2.566  0.00  0.00    -0.530 OA
ATOM     11  O   LIG    1       -4.953   6.164  -0.399  0.00  0.00    -0.520 OA
ATOM     12  C   LIG    1       -1.761   4.818  -0.455  0.00  0.00    +0.530 A 
BRANCH  12  13
ATOM     13  N   LIG    1       -0.516   5.056   0.075  0.00  0.00    -0.810 N 
ATOM     14  H   LIG    1       -0.385   5.790   0.695  0.00  0.00    +0.410 HD
ATOM     15  H   LIG    1        0.233   4.490  -0.172  0.00  0.00    +0.410 HD
ENDBRANCH  12  13
BRANCH   4  16
ATOM     16  C   LIG    1       -2.608   6.798   0.729  0.00  0.00    +0.310 C 
BRANCH  16  18
ATOM     17  C   LIG    1       -1.993   9.218   0.825  0.00  0.00    +0.050 C 
ATOM     18  C   LIG    1       -2.209   8.019  -0.102  0.00  0.00    +0.010 C 
ENDBRANCH  16  18
ENDBRANCH   4  16
ENDBRANCH   1   9
BRANCH   2  19
ATOM     19  C   LIG    1        1.240   2.378  -2.743  0.00  0.00    +0.290 C 
BRANCH  19  20
ATOM     20  N   LIG    1        2.287   3.123  -3.454  0.00  0.00    -0.370 N 
ATOM     21  C   LIG    1        2.972   4.022  -2.515  0.00  0.00    +0.330 C 
ATOM     22  H   LIG    1        1.870   3.665  -4.195  0.00  0.00    +0.430 HD
BRANCH  20  23
ATOM     23  C   LIG    1        3.258   2.179  -4.024  0.00  0.00    +0.230 C 
ATOM     24  C   LIG    1        3.848   1.325  -2.904  0.00  0.00    +0.030 C 
ATOM     25  C   LIG    1        5.005   0.502  -3.482  0.00  0.00    +0.060 C 
ATOM     26  C   LIG    1        6.158   1.452  -3.801  0.00  0.00    +0.080 C 
ATOM     27  C   LIG    1        5.675   2.610  -4.633  0.00  0.00    -0.040 A 
ATOM     28  C   LIG    1        6.625   3.357  -5.316  0.00  0.00    +0.030 A 
ATOM     29  C   LIG    1        6.248   4.438  -6.086  0.00  0.00    +0.050 A 
ATOM     30  C   LIG    1        4.912   4.781  -6.179  0.00  0.00    +0.030 A 
ATOM     31  C   LIG    1        3.965   4.038  -5.504  0.00  0.00    +0.000 A 
ATOM     32  C   LIG    1        4.343   2.949  -4.730  0.00  0.00    -0.140 A 
ENDBRANCH  20  23
ENDBRANCH  19  20
ENDBRANCH   2  19
BRANCH   1  33
ATOM     33  C   LIG    1       -0.970   1.460  -1.217  0.00  0.00    +0.320 C 
BRANCH  33  34
ATOM     34  C   LIG    1       -0.234   1.274   0.111  0.00  0.00    +0.160 C 
BRANCH  34  35
ATOM     35  O   LIG    1       -0.921   1.989   1.141  0.00  0.00    -0.380 OA
ATOM     36  C   LIG    1       -0.312   1.881   2.429  0.00  0.00    +0.210 C 
ENDBRANCH  34  35
ENDBRANCH  33  34
ENDBRANCH   1  33
TORSDOF 10
