REMARK  Name = ZINCqH00000032X5.0
REMARK                            x       y       z     vdW  Elec       q    Type
REMARK                         _______ _______ _______ _____ _____    ______ ____
ROOT
ATOM      1  C   LIG    1       -2.686   1.574  -0.180  0.00  0.00    +0.210 C 
ENDROOT
BRANCH   1   2
ATOM      2  C   LIG    1       -2.495   0.701   1.034  0.00  0.00    -0.070 A 
ATOM      3  C   LIG    1       -3.126   1.021   2.221  0.00  0.00    +0.100 A 
ATOM      4  C   LIG    1       -2.956   0.217   3.334  0.00  0.00    -0.030 A 
ATOM      5  C   LIG    1       -2.145  -0.902   3.261  0.00  0.00    +0.060 A 
ATOM      6  C   LIG    1       -1.509  -1.218   2.074  0.00  0.00    -0.030 A 
ATOM      7 CL   LIG    1       -0.491  -2.622   1.982  0.00  0.00    -0.050 Cl
ATOM      8 CL   LIG    1       -3.754   0.615   4.823  0.00  0.00    -0.050 Cl
ATOM      9  C   LIG    1       -1.685  -0.417   0.961  0.00  0.00    +0.050 A 
ENDBRANCH   1   2
BRANCH   1  10
ATOM     10  C   LIG    1       -2.393   3.007   0.182  0.00  0.00    +0.530 C 
ATOM     11  N   LIG    1       -1.241   3.582  -0.217  0.00  0.00    -0.520 N 
ATOM     12  H   LIG    1       -0.600   3.072  -0.737  0.00  0.00    +0.430 HD
ATOM     13  O   LIG    1       -3.195   3.644   0.832  0.00  0.00    -0.510 OA
BRANCH  11  14
ATOM     14  N   LIG    1       -0.972   4.916   0.115  0.00  0.00    -0.510 N 
ATOM     15  H   LIG    1       -1.613   5.426   0.634  0.00  0.00    +0.430 HD
ATOM     16  C   LIG    1        0.177   5.492  -0.289  0.00  0.00    +0.600 C 
ATOM     17  O   LIG    1        0.981   4.854  -0.941  0.00  0.00    -0.540 OA
BRANCH  16  18
ATOM     18  C   LIG    1        0.460   6.896   0.059  0.00  0.00    -0.250 A 
ATOM     19  C   LIG    1        1.571   7.618  -0.265  0.00  0.00    +0.100 A 
ATOM     20  O   LIG    1        1.435   8.849   0.238  0.00  0.00    -0.170 OA
ATOM     21  C   LIG    1        0.273   8.972   0.896  0.00  0.00    +0.180 A 
ATOM     22  C   LIG    1        2.750   7.115  -1.058  0.00  0.00    +0.190 C 
ATOM     23  C   LIG    1       -0.393   7.808   0.835  0.00  0.00    -0.030 A 
ENDBRANCH  16  18
ENDBRANCH  11  14
ENDBRANCH   1  10
BRANCH   1  24
ATOM     24  N   LIG    1       -4.072   1.461  -0.651  0.00  0.00    -0.510 NA
BRANCH  24  26
ATOM     25  C   LIG    1       -4.223   3.548  -1.924  0.00  0.00    +0.030 C 
ATOM     26  C   LIG    1       -4.216   2.020  -2.002  0.00  0.00    +0.180 C 
ENDBRANCH  24  26
BRANCH  24  27
ATOM     27  C   LIG    1       -4.531   0.066  -0.607  0.00  0.00    +0.180 C 
ATOM     28  C   LIG    1       -5.236  -0.197   0.725  0.00  0.00    +0.030 C 
ENDBRANCH  24  27
ENDBRANCH   1  24
TORSDOF 7
