REMARK  Name = ZINCqH0000005gAe.0
REMARK                            x       y       z     vdW  Elec       q    Type
REMARK                         _______ _______ _______ _____ _____    ______ ____
ROOT
ATOM      1  C   LIG    1       -0.113   4.296   2.098  0.00  0.00    +0.290 C 
ATOM      2  N   LIG    1        1.152   4.075   1.394  0.00  0.00    -0.610 N 
ATOM      3  C   LIG    1        2.322   4.314   2.020  0.00  0.00    +0.530 C 
ATOM      4  O   LIG    1        3.370   4.131   1.437  0.00  0.00    -0.520 OA
ENDROOT
BRANCH   3   5
ATOM      5  C   LIG    1        2.328   4.809   3.443  0.00  0.00    +0.000 C 
ATOM      6  C   LIG    1        1.662   3.782   4.389  0.00  0.00    +0.090 C 
ATOM      7  C   LIG    1        2.485   3.857   5.656  0.00  0.00    +0.530 C 
ATOM      8  N   LIG    1        3.654   4.473   5.412  0.00  0.00    -0.580 N 
ATOM      9  O   LIG    1        2.139   3.424   6.735  0.00  0.00    -0.510 OA
ATOM     10  C   LIG    1        3.767   4.866   4.003  0.00  0.00    +0.310 C 
BRANCH   8  11
ATOM     11  C   LIG    1        4.638   4.710   6.379  0.00  0.00    +0.170 A 
ATOM     12  C   LIG    1        5.629   3.766   6.609  0.00  0.00    +0.030 A 
ATOM     13  C   LIG    1        6.603   4.005   7.559  0.00  0.00    +0.040 A 
ATOM     14  C   LIG    1        6.585   5.179   8.290  0.00  0.00    +0.030 A 
ATOM     15  C   LIG    1        5.596   6.120   8.067  0.00  0.00    +0.050 A 
ATOM     16  C   LIG    1        4.623   5.890   7.114  0.00  0.00    -0.090 A 
ATOM     17 BR   LIG    1        3.271   7.176   6.811  0.00  0.00    -0.040 Br
ENDBRANCH   8  11
ENDBRANCH   3   5
BRANCH   2  18
ATOM     18  C   LIG    1        1.147   3.594   0.010  0.00  0.00    +0.360 C 
BRANCH  18  19
ATOM     19  C   LIG    1        1.170   2.087   0.002  0.00  0.00    -0.090 A 
ATOM     20  C   LIG    1       -0.017   1.378   0.010  0.00  0.00    +0.050 A 
ATOM     21  C   LIG    1        0.002  -0.004   0.002  0.00  0.00    +0.020 A 
ATOM     22  C   LIG    1        1.210  -0.679  -0.013  0.00  0.00    +0.070 A 
ATOM     23  C   LIG    1        2.400   0.032  -0.021  0.00  0.00    +0.070 A 
ATOM     24  F   LIG    1        3.580  -0.626  -0.036  0.00  0.00    -0.130 F 
ATOM     25  F   LIG    1        1.229  -2.030  -0.021  0.00  0.00    -0.130 F 
ATOM     26  C   LIG    1        2.378   1.415  -0.013  0.00  0.00    +0.050 A 
ENDBRANCH  18  19
ENDBRANCH   2  18
TORSDOF 4
