REMARK  Name = ZINCvU0000000IfH.0
REMARK                            x       y       z     vdW  Elec       q    Type
REMARK                         _______ _______ _______ _____ _____    ______ ____
ROOT
ATOM      1  O   LIG    1       -2.596  -5.039   0.154  0.00  0.00    -0.420 OA
ATOM      2  C   LIG    1       -3.211  -3.999  -0.003  0.00  0.00    +0.460 A 
ATOM      3  C   LIG    1       -4.679  -3.947  -0.224  0.00  0.00    -0.210 A 
ATOM      4  C   LIG    1       -5.398  -5.118  -0.464  0.00  0.00    +0.120 A 
ATOM      5  C   LIG    1       -6.756  -5.050  -0.679  0.00  0.00    +0.000 A 
ATOM      6  C   LIG    1       -7.404  -3.823  -0.657  0.00  0.00    +0.100 A 
ATOM      7  C   LIG    1       -6.705  -2.661  -0.419  0.00  0.00    +0.020 A 
ATOM      8  C   LIG    1       -5.329  -2.703  -0.195  0.00  0.00    +0.140 A 
ATOM      9  O   LIG    1       -4.668  -1.547   0.044  0.00  0.00    -0.180 OA
ATOM     10  C   LIG    1       -3.320  -1.535   0.026  0.00  0.00    +0.100 A 
ATOM     11  C   LIG    1       -2.402  -0.383   0.028  0.00  0.00    +0.570 C 
ATOM     12  O   LIG    1       -2.748   0.782   0.043  0.00  0.00    -0.420 OA
ATOM     13  N   LIG    1       -1.123  -0.809   0.008  0.00  0.00    -0.510 N 
ATOM     14  C   LIG    1       -1.133  -2.281   0.000  0.00  0.00    +0.370 C 
ATOM     15  C   LIG    1       -2.573  -2.679   0.009  0.00  0.00    -0.240 A 
ENDROOT
BRANCH  13  16
ATOM     16  C   LIG    1        0.002  -0.004   0.002  0.00  0.00    +0.350 A 
ATOM     17  N   LIG    1       -0.015   1.284   0.009  0.00  0.00    -0.470 NA
ATOM     18  C   LIG    1        1.166   1.931   0.001  0.00  0.00    +0.110 A 
ATOM     19  C   LIG    1        1.413   3.320   0.006  0.00  0.00    +0.080 A 
ATOM     20  C   LIG    1        2.699   3.798  -0.004  0.00  0.00    +0.040 A 
ATOM     21  C   LIG    1        3.777   2.925  -0.019  0.00  0.00    +0.040 A 
ATOM     22  C   LIG    1        3.560   1.565  -0.023  0.00  0.00    +0.060 A 
ATOM     23  C   LIG    1        2.262   1.062  -0.014  0.00  0.00    -0.180 A 
ATOM     24  S   LIG    1        1.658  -0.594  -0.017  0.00  0.00    +0.100 S 
ENDBRANCH  13  16
BRANCH  14  25
ATOM     25  C   LIG    1       -0.438  -2.813   1.227  0.00  0.00    -0.090 A 
ATOM     26  C   LIG    1       -0.598  -2.174   2.443  0.00  0.00    +0.010 A 
ATOM     27  C   LIG    1        0.035  -2.663   3.570  0.00  0.00    +0.060 A 
ATOM     28  C   LIG    1        0.837  -3.785   3.481  0.00  0.00    +0.000 A 
ATOM     29  C   LIG    1        1.002  -4.422   2.263  0.00  0.00    +0.110 A 
ATOM     30  F   LIG    1        1.786  -5.519   2.175  0.00  0.00    -0.130 F 
ATOM     31  C   LIG    1        0.363  -3.935   1.136  0.00  0.00    +0.030 A 
ENDBRANCH  14  25
TORSDOF 2
