REMARK  Name = ZINCrH000004rhFs.0
REMARK                            x       y       z     vdW  Elec       q    Type
REMARK                         _______ _______ _______ _____ _____    ______ ____
ROOT
ATOM      1  N   LIG    1        2.353   4.104   2.511  0.00  0.00    -0.740 N 
ATOM      2  H   LIG    1        2.483   4.571   1.671  0.00  0.00    +0.400 HD
ATOM      3  C   LIG    1        1.943   2.820   2.512  0.00  0.00    +0.510 C 
ATOM      4  O   LIG    1        1.781   2.236   3.563  0.00  0.00    -0.530 OA
ENDROOT
BRANCH   1   5
ATOM      5  C   LIG    1        2.604   4.794   3.779  0.00  0.00    +0.270 C 
BRANCH   5   9
ATOM      6  N   LIG    1        4.284   8.049   4.412  0.00  0.00    -0.460 N 
ATOM      7  C   LIG    1        5.198   7.418   3.436  0.00  0.00    +0.190 C 
ATOM      8  C   LIG    1        4.436   6.240   2.800  0.00  0.00    +0.030 C 
ATOM      9  C   LIG    1        3.056   6.228   3.498  0.00  0.00    -0.010 C 
ATOM     10  C   LIG    1        3.331   6.986   4.821  0.00  0.00    +0.200 C 
BRANCH   6  18
ATOM     11  C   LIG    1        2.803   8.862   6.701  0.00  0.00    +0.100 C 
ATOM     12  C   LIG    1        4.307   8.947   6.653  0.00  0.00    -0.100 A 
ATOM     13  C   LIG    1        5.007   9.430   7.740  0.00  0.00    +0.050 A 
ATOM     14  C   LIG    1        6.387   9.509   7.697  0.00  0.00    +0.000 A 
ATOM     15  C   LIG    1        7.071   9.104   6.564  0.00  0.00    -0.010 A 
ATOM     16  C   LIG    1        6.376   8.614   5.475  0.00  0.00    -0.020 A 
ATOM     17 CL   LIG    1        8.803   9.204   6.515  0.00  0.00    -0.070 Cl
ATOM     18  C   LIG    1        4.990   8.539   5.514  0.00  0.00    +0.120 A 
ENDBRANCH   6  18
ENDBRANCH   5   9
ENDBRANCH   1   5
BRANCH   3  19
ATOM     19  C   LIG    1        1.685   2.110   1.208  0.00  0.00    +0.130 C 
BRANCH  19  20
ATOM     20  C   LIG    1        1.240   0.697   1.485  0.00  0.00    -0.200 A 
ATOM     21  C   LIG    1       -0.041   0.247   1.566  0.00  0.00    +0.240 A 
ATOM     22  N   LIG    1       -0.045  -1.062   1.825  0.00  0.00    -0.540 NA
ATOM     23  C   LIG    1        1.191  -1.522   1.924  0.00  0.00    +0.250 A 
ATOM     24  N   LIG    1        1.721  -2.763   2.173  0.00  0.00    -0.490 N 
ATOM     25  H   LIG    1        1.130  -3.517   2.318  0.00  0.00    +0.420 HD
ATOM     26  C   LIG    1        3.051  -2.942   2.217  0.00  0.00    +0.330 A 
ATOM     27  C   LIG    1        3.921  -1.913   2.020  0.00  0.00    -0.080 A 
ATOM     28  C   LIG    1        3.446  -0.631   1.763  0.00  0.00    +0.170 A 
ATOM     29  C   LIG    1        2.070  -0.424   1.713  0.00  0.00    -0.140 A 
ENDBRANCH  19  20
ENDBRANCH   3  19
TORSDOF 5
