REMARK  Name = ZINCvU0000000JU8.0
REMARK                            x       y       z     vdW  Elec       q    Type
REMARK                         _______ _______ _______ _____ _____    ______ ____
ROOT
ATOM      1  C   LIG    1        2.462   1.310  -0.015  0.00  0.00    -0.100 A 
ATOM      2  C   LIG    1        2.381  -0.075  -0.040  0.00  0.00    +0.120 A 
ATOM      3  C   LIG    1        1.122  -0.692  -0.030  0.00  0.00    +0.130 A 
ATOM      4  N   LIG    1        0.002  -0.004   0.002  0.00  0.00    -0.460 NA
ATOM      5  C   LIG    1       -0.016   1.332   0.028  0.00  0.00    +0.130 A 
ATOM      6  C   LIG    1       -1.229   2.041   0.056  0.00  0.00    +0.050 A 
ATOM      7  C   LIG    1       -1.215   3.402   0.089  0.00  0.00    +0.030 A 
ATOM      8  C   LIG    1       -0.016   4.109   0.082  0.00  0.00    +0.020 A 
ATOM      9  C   LIG    1        1.180   3.454   0.049  0.00  0.00    +0.050 A 
ATOM     10  C   LIG    1        1.202   2.056   0.021  0.00  0.00    -0.070 A 
ENDROOT
BRANCH   1  11
ATOM     11  C   LIG    1        3.766   2.005  -0.024  0.00  0.00    +0.500 C 
ATOM     12  O   LIG    1        3.809   3.218  -0.110  0.00  0.00    -0.440 OA
BRANCH  11  18
ATOM     13  C   LIG    1        6.642   3.163  -0.019  0.00  0.00    +0.350 C 
ATOM     14  N   LIG    1        6.280   1.746   0.072  0.00  0.00    -0.410 N 
ATOM     15  C   LIG    1        7.135   0.703   0.174  0.00  0.00    +0.170 A 
ATOM     16  C   LIG    1        6.384  -0.427   0.232  0.00  0.00    +0.170 A 
ATOM     17  N   LIG    1        5.102  -0.081   0.172  0.00  0.00    -0.430 NA
ATOM     18  C   LIG    1        5.013   1.230   0.070  0.00  0.00    +0.110 A 
ENDBRANCH  11  18
ENDBRANCH   1  11
BRANCH   3  19
ATOM     19  S   LIG    1        1.038  -2.452  -0.062  0.00  0.00    -0.020 S 
BRANCH  19  20
ATOM     20  C   LIG    1       -0.757  -2.681  -0.037  0.00  0.00    +0.190 C 
BRANCH  20  21
ATOM     21  C   LIG    1       -1.075  -4.154  -0.059  0.00  0.00    +0.080 A 
ATOM     22  C   LIG    1       -1.250  -4.825  -1.203  0.00  0.00    -0.050 A 
ATOM     23  S   LIG    1       -1.599  -6.507  -0.807  0.00  0.00    +0.110 S 
ATOM     24  C   LIG    1       -1.480  -6.122   0.908  0.00  0.00    +0.120 A 
ATOM     25  N   LIG    1       -1.204  -4.857   1.042  0.00  0.00    -0.450 NA
BRANCH  24  26
ATOM     26  C   LIG    1       -1.665  -7.082   2.018  0.00  0.00    -0.030 A 
ATOM     27  C   LIG    1       -1.539  -6.657   3.341  0.00  0.00    +0.070 A 
ATOM     28  C   LIG    1       -1.718  -7.557   4.371  0.00  0.00    +0.010 A 
ATOM     29  C   LIG    1       -2.009  -8.881   4.095  0.00  0.00    +0.030 A 
ATOM     30  C   LIG    1       -2.129  -9.310   2.785  0.00  0.00    +0.010 A 
ATOM     31  C   LIG    1       -1.959  -8.419   1.746  0.00  0.00    +0.020 A 
ENDBRANCH  24  26
ENDBRANCH  20  21
ENDBRANCH  19  20
ENDBRANCH   3  19
TORSDOF 6
