REMARK  Name = ZINCnE00000rhnGi.0
REMARK                            x       y       z     vdW  Elec       q    Type
REMARK                         _______ _______ _______ _____ _____    ______ ____
ROOT
ATOM      1  C   LIG    1        0.002  -0.004   0.002  0.00  0.00    -0.170 A 
ATOM      2  C   LIG    1       -0.017   1.397   0.010  0.00  0.00    +0.360 A 
ATOM      3  N   LIG    1        1.101   2.082   0.003  0.00  0.00    -0.470 NA
ATOM      4  C   LIG    1        2.296   1.493  -0.012  0.00  0.00    +0.030 A 
ATOM      5  S   LIG    1        3.919   2.180  -0.024  0.00  0.00    +0.090 S 
ATOM      6  C   LIG    1        4.619   0.568  -0.040  0.00  0.00    +0.120 A 
ATOM      7  N   LIG    1        3.687  -0.329  -0.035  0.00  0.00    -0.430 NA
ATOM      8  C   LIG    1        2.412   0.093  -0.021  0.00  0.00    +0.020 A 
ATOM      9  C   LIG    1        1.227  -0.670  -0.013  0.00  0.00    +0.170 A 
ENDROOT
BRANCH   1  11
ATOM     10  O   LIG    1       -2.330  -0.175   0.024  0.00  0.00    -0.680 OA
ATOM     11  C   LIG    1       -1.259  -0.765   0.011  0.00  0.00    +0.530 C 
ATOM     12  O   LIG    1       -1.235  -1.988   0.004  0.00  0.00    -0.680 OA
ENDBRANCH   1  11
BRANCH   6  13
ATOM     13  C   LIG    1        6.056   0.280  -0.056  0.00  0.00    +0.110 C 
ATOM     14  C   LIG    1        6.946   1.291  -0.061  0.00  0.00    +0.090 C 
BRANCH  14  15
ATOM     15  C   LIG    1        8.389   1.002  -0.077  0.00  0.00    +0.100 A 
ATOM     16  N   LIG    1        8.942  -0.197  -0.083  0.00  0.00    -0.280 NA
ATOM     17  N   LIG    1       10.333  -0.033  -0.101  0.00  0.00    -0.360 N 
ATOM     18  C   LIG    1       10.603   1.291  -0.098  0.00  0.00    +0.220 A 
ATOM     19  C   LIG    1        9.429   1.957  -0.083  0.00  0.00    -0.100 A 
BRANCH  17  20
ATOM     20  C   LIG    1       11.325  -1.111  -0.116  0.00  0.00    +0.250 C 
ATOM     21  C   LIG    1       12.751  -0.641   0.216  0.00  0.00    +0.020 C 
ATOM     22  C   LIG    1       13.237  -1.601  -0.886  0.00  0.00    +0.030 C 
ATOM     23  C   LIG    1       11.845  -1.450  -1.522  0.00  0.00    +0.020 C 
ENDBRANCH  17  20
ENDBRANCH  14  15
ENDBRANCH   6  13
TORSDOF 4
