REMARK  Name = ZINCpk00000y6vFL.0
REMARK                            x       y       z     vdW  Elec       q    Type
REMARK                         _______ _______ _______ _____ _____    ______ ____
ROOT
ATOM      1  C   LIG    1       -0.747   1.595  -1.237  0.00  0.00    +0.250 C 
ATOM      2  C   LIG    1        0.025   1.158  -2.485  0.00  0.00    +0.020 C 
ATOM      3  C   LIG    1        1.460   1.686  -2.400  0.00  0.00    +0.210 C 
ATOM      4  O   LIG    1        2.075   1.201  -1.205  0.00  0.00    -0.370 OA
ATOM      5  C   LIG    1        1.423   1.617  -0.003  0.00  0.00    +0.200 C 
ATOM      6  C   LIG    1       -0.013   1.086   0.008  0.00  0.00    +0.230 C 
ENDROOT
BRANCH   1   8
ATOM      7  C   LIG    1       -1.808   3.698  -1.858  0.00  0.00    +0.610 C 
ATOM      8  N   LIG    1       -0.825   3.057  -1.196  0.00  0.00    -0.720 N 
ATOM      9  H   LIG    1       -0.169   3.564  -0.692  0.00  0.00    +0.400 HD
ATOM     10  O   LIG    1       -2.631   3.062  -2.491  0.00  0.00    -0.510 OA
BRANCH   7  13
ATOM     11  C   LIG    1       -3.968   5.445  -3.293  0.00  0.00    +0.140 C 
ATOM     12  C   LIG    1       -2.826   5.933  -2.440  0.00  0.00    -0.080 A 
ATOM     13  C   LIG    1       -1.887   5.162  -1.817  0.00  0.00    -0.100 A 
ATOM     14  O   LIG    1       -1.047   5.982  -1.153  0.00  0.00    -0.170 OA
ATOM     15  C   LIG    1       -1.423   7.253  -1.345  0.00  0.00    +0.210 A 
ATOM     16  C   LIG    1       -2.521   7.268  -2.132  0.00  0.00    -0.070 A 
ENDBRANCH   7  13
ENDBRANCH   1   8
BRANCH   6  17
ATOM     17  N   LIG    1       -0.701   1.560   1.212  0.00  0.00    -0.710 N 
ATOM     18  H   LIG    1       -1.243   2.363   1.176  0.00  0.00    +0.410 HD
BRANCH  17  19
ATOM     19  C   LIG    1       -0.577   0.859   2.401  0.00  0.00    +0.460 A 
ATOM     20  C   LIG    1        0.193  -0.298   2.463  0.00  0.00    -0.220 A 
ATOM     21  C   LIG    1        0.290  -0.961   3.683  0.00  0.00    +0.460 A 
ATOM     22  N   LIG    1       -0.362  -0.474   4.737  0.00  0.00    -0.610 NA
ATOM     23  C   LIG    1       -1.087   0.622   4.636  0.00  0.00    +0.580 A 
ATOM     24  N   LIG    1       -1.199   1.281   3.502  0.00  0.00    -0.610 NA
BRANCH  21  25
ATOM     25  N   LIG    1        1.050  -2.115   3.797  0.00  0.00    -0.610 N 
ATOM     26  C   LIG    1        1.052  -2.868   5.054  0.00  0.00    +0.300 C 
ATOM     27  C   LIG    1        1.850  -2.581   2.662  0.00  0.00    +0.300 C 
ENDBRANCH  21  25
ENDBRANCH  17  19
ENDBRANCH   6  17
TORSDOF 5
