REMARK  Name = ZINCpe000000U51P.0
REMARK                            x       y       z     vdW  Elec       q    Type
REMARK                         _______ _______ _______ _____ _____    ______ ____
ROOT
ATOM      1  C   LIG    1        2.530   5.471   1.950  0.00  0.00    +0.510 C 
ATOM      2  N   LIG    1        3.068   6.389   2.778  0.00  0.00    -0.640 N 
ATOM      3  H   LIG    1        3.946   6.756   2.591  0.00  0.00    +0.430 HD
ATOM      4  O   LIG    1        1.404   5.063   2.146  0.00  0.00    -0.480 OA
ENDROOT
BRANCH   1  10
ATOM      5  C   LIG    1        1.923   1.716   0.403  0.00  0.00    +0.140 C 
ATOM      6  C   LIG    1        1.623   3.219   0.444  0.00  0.00    +0.260 C 
ATOM      7  N   LIG    1        2.838   3.946   0.043  0.00  0.00    -0.570 N 
ATOM      8  C   LIG    1        3.509   3.538  -1.201  0.00  0.00    +0.210 C 
ATOM      9  C   LIG    1        3.717   2.019  -1.163  0.00  0.00    +0.220 C 
ATOM     10  C   LIG    1        3.321   4.956   0.793  0.00  0.00    +0.510 C 
ATOM     11  O   LIG    1        4.399   5.447   0.527  0.00  0.00    -0.510 OA
ATOM     12  O   LIG    1        2.471   1.381  -0.875  0.00  0.00    -0.370 OA
BRANCH   5  14
ATOM     13  C   LIG    1        0.948  -0.564   0.709  0.00  0.00    +0.020 C 
ATOM     14  C   LIG    1        0.629   0.930   0.626  0.00  0.00    +0.040 C 
ENDBRANCH   5  14
BRANCH   8  15
ATOM     15  C   LIG    1        2.637   3.908  -2.403  0.00  0.00    +0.020 C 
ATOM     16  C   LIG    1        2.513   5.430  -2.493  0.00  0.00    +0.020 C 
ENDBRANCH   8  15
ENDBRANCH   1  10
BRANCH   2  17
ATOM     17  C   LIG    1        2.359   6.814   3.905  0.00  0.00    +0.140 A 
ATOM     18  C   LIG    1        0.971   6.927   3.867  0.00  0.00    +0.070 A 
ATOM     19  C   LIG    1        0.313   7.348   5.011  0.00  0.00    +0.100 A 
ATOM     20  C   LIG    1        1.049   7.648   6.141  0.00  0.00    -0.450 A 
ATOM     21  N   LIG    1        2.364   7.535   6.144  0.00  0.00    -0.370 NA
ATOM     22  C   LIG    1        3.029   7.134   5.080  0.00  0.00    +0.240 A 
BRANCH  20  23
ATOM     23  S   LIG    1        0.221   8.190   7.599  0.00  0.00    +2.510 S 
ATOM     24  O   LIG    1        1.093   7.817   8.657  0.00  0.00    -0.910 OA
ATOM     25  O   LIG    1       -1.081   7.629   7.491  0.00  0.00    -0.930 OA
ATOM     26  C   LIG    1        0.152   9.995   7.436  0.00  0.00    -0.230 C 
ENDBRANCH  20  23
ENDBRANCH   2  17
TORSDOF 5
