REMARK  Name = ZINCrH000004rnA3.0
REMARK                            x       y       z     vdW  Elec       q    Type
REMARK                         _______ _______ _______ _____ _____    ______ ____
ROOT
ATOM      1  C   LIG    1        0.111   0.967   0.187  0.00  0.00    +0.110 C 
ATOM      2  C   LIG    1       -0.633   1.528   1.370  0.00  0.00    +0.000 A 
ATOM      3  C   LIG    1        0.010   1.670   2.586  0.00  0.00    +0.030 A 
ATOM      4  C   LIG    1       -0.670   2.185   3.673  0.00  0.00    +0.080 A 
ATOM      5  C   LIG    1       -2.000   2.560   3.543  0.00  0.00    +0.120 A 
ATOM      6  C   LIG    1       -2.644   2.416   2.321  0.00  0.00    +0.080 A 
ATOM      7  C   LIG    1       -1.957   1.906   1.237  0.00  0.00    -0.650 A 
ENDROOT
BRANCH   5   8
ATOM      8  N   LIG    1       -2.691   3.082   4.643  0.00  0.00    -0.680 N 
ATOM      9  H   LIG    1       -3.635   2.890   4.758  0.00  0.00    +0.410 HD
ATOM     10  C   LIG    1       -2.046   3.851   5.541  0.00  0.00    +0.520 C 
ATOM     11  O   LIG    1       -0.891   4.169   5.349  0.00  0.00    -0.520 OA
BRANCH  10  12
ATOM     12  C   LIG    1       -2.758   4.316   6.785  0.00  0.00    +0.070 C 
BRANCH  12  13
ATOM     13  C   LIG    1       -1.808   5.167   7.630  0.00  0.00    +0.170 C 
BRANCH  13  14
ATOM     14  C   LIG    1       -2.521   5.632   8.873  0.00  0.00    -0.020 A 
ATOM     15  C   LIG    1       -2.558   4.979  10.049  0.00  0.00    -0.060 A 
ATOM     16  C   LIG    1       -3.331   5.769  10.931  0.00  0.00    -0.060 A 
ATOM     17  C   LIG    1       -3.720   6.857  10.242  0.00  0.00    +0.160 A 
ATOM     18  O   LIG    1       -3.221   6.771   8.998  0.00  0.00    -0.180 OA
ENDBRANCH  13  14
ENDBRANCH  12  13
ENDBRANCH  10  12
ENDBRANCH   5   8
BRANCH   7  19
ATOM     19  S   LIG    1       -2.770   1.730  -0.316  0.00  0.00    +2.690 S 
ATOM     20  O   LIG    1       -2.560   0.387  -0.730  0.00  0.00    -0.950 OA
ATOM     21  O   LIG    1       -2.388   2.853  -1.099  0.00  0.00    -0.950 OA
BRANCH  19  22
ATOM     22  N   LIG    1       -4.396   1.885  -0.039  0.00  0.00    -0.990 NA
ATOM     23  C   LIG    1       -5.183   0.687   0.152  0.00  0.00    +0.280 C 
ATOM     24  C   LIG    1       -5.701   0.176  -1.208  0.00  0.00    +0.010 C 
ATOM     25  C   LIG    1       -6.745   1.073  -1.726  0.00  0.00    +0.000 C 
ATOM     26  C   LIG    1       -6.268   2.494  -2.012  0.00  0.00    +0.010 C 
ATOM     27  C   LIG    1       -6.330   3.307  -0.742  0.00  0.00    +0.030 C 
ATOM     28  C   LIG    1       -4.982   3.239  -0.003  0.00  0.00    +0.270 C 
ENDBRANCH  19  22
ENDBRANCH   7  19
TORSDOF 6
