REMARK  Name = ZINCqH0000003Ull.0
REMARK                            x       y       z     vdW  Elec       q    Type
REMARK                         _______ _______ _______ _____ _____    ______ ____
ROOT
ATOM      1  N   LIG    1        6.761  -0.337  -0.459  0.00  0.00    -0.660 N 
ATOM      2  H   LIG    1        6.434  -1.117   0.015  0.00  0.00    +0.420 HD
ATOM      3  C   LIG    1        5.939   0.706  -0.687  0.00  0.00    +0.590 C 
ATOM      4  O   LIG    1        6.371   1.722  -1.198  0.00  0.00    -0.470 OA
ENDROOT
BRANCH   1   9
ATOM      5  C   LIG    1       10.200  -1.357  -1.211  0.00  0.00    -0.000 A 
ATOM      6  C   LIG    1       10.655  -0.177  -1.782  0.00  0.00    -0.050 A 
ATOM      7  C   LIG    1        9.794   0.898  -1.888  0.00  0.00    +0.300 A 
ATOM      8  N   LIG    1        8.552   0.815  -1.454  0.00  0.00    -0.470 NA
ATOM      9  C   LIG    1        8.081  -0.293  -0.903  0.00  0.00    +0.370 A 
ATOM     10  C   LIG    1        8.893  -1.412  -0.760  0.00  0.00    -0.050 A 
BRANCH   5  11
ATOM     11  C   LIG    1       11.112  -2.551  -1.079  0.00  0.00    +0.150 C 
BRANCH  11  12
ATOM     12  S   LIG    1       11.978  -2.477   0.513  0.00  0.00    -0.240 S 
BRANCH  12  14
ATOM     13  C   LIG    1       13.815  -4.056   1.784  0.00  0.00    +0.070 C 
ATOM     14  C   LIG    1       13.008  -3.970   0.487  0.00  0.00    +0.070 C 
ENDBRANCH  12  14
ENDBRANCH  11  12
ENDBRANCH   5  11
ENDBRANCH   1   9
BRANCH   3  15
ATOM     15  C   LIG    1        4.515   0.617  -0.317  0.00  0.00    -0.300 A 
ATOM     16  C   LIG    1        3.559   1.596  -0.495  0.00  0.00    +0.200 A 
ATOM     17  N   LIG    1        2.395   1.113  -0.021  0.00  0.00    -0.310 N 
ATOM     18  N   LIG    1        2.615  -0.186   0.451  0.00  0.00    -0.280 NA
ATOM     19  C   LIG    1        3.871  -0.492   0.280  0.00  0.00    +0.300 A 
BRANCH  17  20
ATOM     20  C   LIG    1        1.173   1.792  -0.008  0.00  0.00    +0.350 A 
ATOM     21  C   LIG    1       -0.014   1.071  -0.002  0.00  0.00    +0.000 A 
ATOM     22  C   LIG    1       -1.218   1.755   0.005  0.00  0.00    +0.100 A 
ATOM     23  C   LIG    1       -1.190   3.142   0.017  0.00  0.00    -0.020 A 
ATOM     24  C   LIG    1        0.028   3.794   0.010  0.00  0.00    +0.300 A 
ATOM     25  N   LIG    1        1.158   3.115  -0.002  0.00  0.00    -0.490 NA
ENDBRANCH  17  20
BRANCH  16  26
ATOM     26  C   LIG    1        3.778   2.958  -1.103  0.00  0.00    +0.130 C 
ATOM     27  C   LIG    1        4.162   3.951  -0.005  0.00  0.00    +0.060 C 
ENDBRANCH  16  26
ENDBRANCH   3  15
TORSDOF 7
