REMARK  Name = ZINCwJ0000000yE9.1
REMARK                            x       y       z     vdW  Elec       q    Type
REMARK                         _______ _______ _______ _____ _____    ______ ____
ROOT
ATOM      1  C   LIG    1       -0.685   1.274  -3.771  0.00  0.00    -0.120 A 
ATOM      2  C   LIG    1       -1.558   0.343  -4.301  0.00  0.00    +0.000 A 
ATOM      3  C   LIG    1       -2.372   0.686  -5.365  0.00  0.00    +0.090 A 
ATOM      4  C   LIG    1       -2.312   1.959  -5.898  0.00  0.00    +0.060 A 
ATOM      5  C   LIG    1       -1.439   2.891  -5.367  0.00  0.00    +0.080 A 
ATOM      6  C   LIG    1       -0.630   2.550  -4.300  0.00  0.00    -0.130 A 
ENDROOT
BRANCH   1   7
ATOM      7  C   LIG    1        0.201   0.900  -2.611  0.00  0.00    +0.310 C 
BRANCH   7  12
ATOM      8  C   LIG    1        0.428  -2.274  -0.622  0.00  0.00    +0.080 C 
ATOM      9  C   LIG    1       -0.977  -2.265  -0.013  0.00  0.00    +0.060 C 
ATOM     10  C   LIG    1       -1.969  -1.735  -1.052  0.00  0.00    +0.070 C 
ATOM     11  C   LIG    1       -1.526  -0.344  -1.508  0.00  0.00    +0.260 C 
ATOM     12  N   LIG    1       -0.187  -0.423  -2.104  0.00  0.00    -0.380 N 
ATOM     13  H   LIG    1       -0.199  -1.084  -2.867  0.00  0.00    +0.420 HD
ATOM     14  C   LIG    1        0.783  -0.862  -1.094  0.00  0.00    +0.280 C 
BRANCH   8  20
ATOM     15  C   LIG    1        1.526  -5.179  -0.178  0.00  0.00    +0.320 C 
ATOM     16  N   LIG    1        1.895  -3.994   0.601  0.00  0.00    -0.450 N 
ATOM     17  C   LIG    1        2.765  -3.953   1.633  0.00  0.00    +0.430 A 
ATOM     18  N   LIG    1        2.835  -2.726   2.072  0.00  0.00    -0.490 NA
ATOM     19  C   LIG    1        2.025  -1.947   1.340  0.00  0.00    +0.170 A 
ATOM     20  C   LIG    1        1.424  -2.722   0.417  0.00  0.00    -0.060 A 
ENDBRANCH   8  20
ENDBRANCH   7  12
ENDBRANCH   1   7
BRANCH   6  21
ATOM     21  C   LIG    1        0.318   3.567  -3.718  0.00  0.00    +0.320 C 
BRANCH  21  22
ATOM     22  N   LIG    1        1.685   3.276  -4.168  0.00  0.00    -0.380 N 
ATOM     23  C   LIG    1        1.766   3.448  -5.624  0.00  0.00    +0.260 C 
ATOM     24  C   LIG    1        3.167   3.068  -6.109  0.00  0.00    +0.060 C 
ATOM     25  C   LIG    1        4.199   3.973  -5.429  0.00  0.00    +0.060 C 
ATOM     26  C   LIG    1        4.055   3.842  -3.910  0.00  0.00    +0.080 C 
ATOM     27  C   LIG    1        2.622   4.193  -3.506  0.00  0.00    +0.280 C 
ATOM     28  H   LIG    1        1.922   2.325  -3.930  0.00  0.00    +0.410 HD
BRANCH  26  29
ATOM     29  C   LIG    1        5.014   4.786  -3.231  0.00  0.00    -0.060 A 
ATOM     30  C   LIG    1        4.803   6.088  -2.960  0.00  0.00    +0.170 A 
ATOM     31  N   LIG    1        5.897   6.567  -2.350  0.00  0.00    -0.480 NA
ATOM     32  C   LIG    1        6.778   5.612  -2.232  0.00  0.00    +0.430 A 
ATOM     33  N   LIG    1        6.265   4.482  -2.764  0.00  0.00    -0.450 N 
ATOM     34  C   LIG    1        6.924   3.175  -2.831  0.00  0.00    +0.340 C 
ENDBRANCH  26  29
ENDBRANCH  21  22
ENDBRANCH   6  21
TORSDOF 6
