REMARK  Name = ZINCwJ0000000yE9.0
REMARK                            x       y       z     vdW  Elec       q    Type
REMARK                         _______ _______ _______ _____ _____    ______ ____
ROOT
ATOM      1  C   LIG    1        1.978  -0.777  -1.485  0.00  0.00    -0.130 A 
ATOM      2  C   LIG    1        2.542  -1.117  -2.700  0.00  0.00    +0.080 A 
ATOM      3  C   LIG    1        1.738  -1.548  -3.739  0.00  0.00    +0.060 A 
ATOM      4  C   LIG    1        0.370  -1.639  -3.563  0.00  0.00    +0.090 A 
ATOM      5  C   LIG    1       -0.194  -1.303  -2.346  0.00  0.00    +0.000 A 
ATOM      6  C   LIG    1        0.609  -0.868  -1.309  0.00  0.00    -0.120 A 
ENDROOT
BRANCH   1   7
ATOM      7  C   LIG    1        2.854  -0.308  -0.352  0.00  0.00    +0.320 C 
BRANCH   7  12
ATOM      8  C   LIG    1        3.616  -3.737   0.969  0.00  0.00    +0.080 C 
ATOM      9  C   LIG    1        4.541  -3.338   2.123  0.00  0.00    +0.060 C 
ATOM     10  C   LIG    1        4.017  -2.049   2.762  0.00  0.00    +0.070 C 
ATOM     11  C   LIG    1        3.921  -0.959   1.693  0.00  0.00    +0.260 C 
ATOM     12  N   LIG    1        3.003  -1.389   0.631  0.00  0.00    -0.380 N 
ATOM     13  H   LIG    1        2.102  -1.603   1.034  0.00  0.00    +0.410 HD
ATOM     14  C   LIG    1        3.537  -2.583  -0.033  0.00  0.00    +0.270 C 
BRANCH   8  20
ATOM     15  C   LIG    1        2.842  -6.725   1.525  0.00  0.00    +0.320 C 
ATOM     16  N   LIG    1        3.818  -6.262   0.536  0.00  0.00    -0.450 N 
ATOM     17  C   LIG    1        4.543  -7.037  -0.298  0.00  0.00    +0.430 A 
ATOM     18  N   LIG    1        5.307  -6.269  -1.026  0.00  0.00    -0.480 NA
ATOM     19  C   LIG    1        5.095  -4.988  -0.689  0.00  0.00    +0.170 A 
ATOM     20  C   LIG    1        4.165  -4.962   0.284  0.00  0.00    -0.060 A 
ENDBRANCH   8  20
ENDBRANCH   7  12
ENDBRANCH   1   7
BRANCH   6  21
ATOM     21  C   LIG    1       -0.006  -0.497   0.016  0.00  0.00    +0.290 C 
BRANCH  21  22
ATOM     22  N   LIG    1       -1.469  -0.478  -0.112  0.00  0.00    -0.380 N 
ATOM     23  C   LIG    1       -1.867   0.628  -0.992  0.00  0.00    +0.250 C 
ATOM     24  C   LIG    1       -1.326   1.947  -0.437  0.00  0.00    +0.060 C 
ATOM     25  C   LIG    1       -1.897   2.177   0.965  0.00  0.00    +0.070 C 
ATOM     26  C   LIG    1       -1.539   0.983   1.854  0.00  0.00    +0.080 C 
ATOM     27  C   LIG    1       -2.073  -0.301   1.214  0.00  0.00    +0.280 C 
ATOM     28  H   LIG    1       -1.783  -1.351  -0.508  0.00  0.00    +0.430 HD
BRANCH  26  29
ATOM     29  C   LIG    1       -2.161   1.164   3.215  0.00  0.00    -0.060 A 
ATOM     30  C   LIG    1       -3.414   0.827   3.576  0.00  0.00    +0.170 A 
ATOM     31  N   LIG    1       -3.575   1.150   4.867  0.00  0.00    -0.480 NA
ATOM     32  C   LIG    1       -2.469   1.675   5.321  0.00  0.00    +0.440 A 
ATOM     33  N   LIG    1       -1.560   1.697   4.322  0.00  0.00    -0.460 N 
ATOM     34  C   LIG    1       -0.186   2.200   4.409  0.00  0.00    +0.330 C 
ENDBRANCH  26  29
ENDBRANCH  21  22
ENDBRANCH   6  21
TORSDOF 6
