REMARK  Name = ZINCqH0000005QrW.0
REMARK                            x       y       z     vdW  Elec       q    Type
REMARK                         _______ _______ _______ _____ _____    ______ ____
ROOT
ATOM      1  N   LIG    1       -4.780  -0.439   2.632  0.00  0.00    -0.730 N 
ATOM      2  H   LIG    1       -4.361  -0.193   3.471  0.00  0.00    +0.410 HD
ATOM      3  C   LIG    1       -4.209  -0.085   1.464  0.00  0.00    +0.520 C 
ATOM      4  O   LIG    1       -4.733  -0.392   0.414  0.00  0.00    -0.530 OA
ENDROOT
BRANCH   1   5
ATOM      5  C   LIG    1       -6.035  -1.196   2.634  0.00  0.00    +0.390 C 
BRANCH   5   9
ATOM      6  C   LIG    1       -7.378  -1.331   6.100  0.00  0.00    -0.240 A 
ATOM      7  C   LIG    1       -6.649  -2.481   6.003  0.00  0.00    +0.110 A 
ATOM      8  O   LIG    1       -6.117  -2.540   4.779  0.00  0.00    -0.160 OA
ATOM      9  C   LIG    1       -6.458  -1.463   4.055  0.00  0.00    -0.040 A 
ATOM     10  C   LIG    1       -6.479  -3.511   7.090  0.00  0.00    +0.210 C 
ATOM     11  C   LIG    1       -7.241  -0.665   4.796  0.00  0.00    +0.040 A 
BRANCH   6  12
ATOM     12  C   LIG    1       -8.142  -0.857   7.266  0.00  0.00    +0.540 C 
ATOM     13  O   LIG    1       -8.166  -1.517   8.287  0.00  0.00    -0.510 OA
BRANCH  12  15
ATOM     14  C   LIG    1       -9.545   0.715   8.390  0.00  0.00    +0.280 C 
ATOM     15  O   LIG    1       -8.814   0.310   7.203  0.00  0.00    -0.350 OA
ENDBRANCH  12  15
ENDBRANCH   6  12
ENDBRANCH   5   9
ENDBRANCH   1   5
BRANCH   3  16
ATOM     16  C   LIG    1       -2.918   0.694   1.462  0.00  0.00    +0.070 C 
BRANCH  16  17
ATOM     17  C   LIG    1       -2.489   0.965   0.019  0.00  0.00    +0.090 C 
BRANCH  17  18
ATOM     18  C   LIG    1       -1.198   1.744   0.017  0.00  0.00    -0.080 A 
ATOM     19  C   LIG    1       -0.013   1.076   0.008  0.00  0.00    +0.030 A 
ATOM     20  C   LIG    1        1.193   1.799   0.000  0.00  0.00    -0.050 A 
ATOM     21  C   LIG    1        2.436   1.145  -0.015  0.00  0.00    +0.020 A 
ATOM     22  C   LIG    1        3.583   1.878  -0.022  0.00  0.00    +0.000 A 
ATOM     23  C   LIG    1        3.544   3.271  -0.015  0.00  0.00    +0.000 A 
ATOM     24  C   LIG    1        2.358   3.938  -0.000  0.00  0.00    +0.020 A 
ATOM     25  C   LIG    1        1.153   3.216   0.008  0.00  0.00    -0.050 A 
ATOM     26  C   LIG    1       -0.090   3.870   0.023  0.00  0.00    +0.030 A 
ATOM     27  C   LIG    1       -1.237   3.137   0.030  0.00  0.00    +0.010 A 
ENDBRANCH  17  18
ENDBRANCH  16  17
ENDBRANCH   3  16
TORSDOF 7
