REMARK  Name = ZINCpe000000UolD.0
REMARK                            x       y       z     vdW  Elec       q    Type
REMARK                         _______ _______ _______ _____ _____    ______ ____
ROOT
ATOM      1  C   LIG    1        3.515   0.644  -0.028  0.00  0.00    +0.610 C 
ATOM      2  N   LIG    1        4.161  -0.538  -0.040  0.00  0.00    -0.710 N 
ATOM      3  H   LIG    1        3.657  -1.367  -0.039  0.00  0.00    +0.410 HD
ATOM      4  O   LIG    1        4.148   1.683  -0.029  0.00  0.00    -0.540 OA
ENDROOT
BRANCH   1   7
ATOM      5  N   LIG    1       -0.017   1.398   0.010  0.00  0.00    -0.360 N 
ATOM      6  C   LIG    1        1.268   1.805  -0.000  0.00  0.00    +0.310 A 
ATOM      7  C   LIG    1        2.040   0.679  -0.014  0.00  0.00    -0.100 A 
ATOM      8  N   LIG    1        1.229  -0.393  -0.012  0.00  0.00    -0.210 NA
ATOM      9  N   LIG    1        0.002  -0.004   0.002  0.00  0.00    -0.030 NA
BRANCH   5  10
ATOM     10  C   LIG    1       -1.205   2.255   0.020  0.00  0.00    +0.380 C 
BRANCH  10  13
ATOM     11  C   LIG    1       -4.119   2.205  -2.462  0.00  0.00    +0.300 C 
ATOM     12  N   LIG    1       -3.253   2.556  -1.333  0.00  0.00    -0.620 N 
ATOM     13  C   LIG    1       -2.095   1.894  -1.141  0.00  0.00    +0.500 C 
ATOM     14  O   LIG    1       -1.769   1.008  -1.902  0.00  0.00    -0.510 OA
ATOM     15  C   LIG    1       -3.647   3.626  -0.414  0.00  0.00    +0.280 C 
ENDBRANCH  10  13
ENDBRANCH   5  10
ENDBRANCH   1   7
BRANCH   2  16
ATOM     16  C   LIG    1        5.626  -0.573  -0.054  0.00  0.00    +0.330 C 
BRANCH  16  17
ATOM     17  C   LIG    1        6.095  -2.005  -0.066  0.00  0.00    -0.080 A 
ATOM     18  C   LIG    1        6.327  -2.665   1.126  0.00  0.00    +0.010 A 
ATOM     19  C   LIG    1        6.752  -3.981   1.119  0.00  0.00    +0.050 A 
ATOM     20  C   LIG    1        6.957  -4.635  -0.080  0.00  0.00    -0.040 A 
ATOM     21  C   LIG    1        6.730  -3.973  -1.278  0.00  0.00    +0.100 A 
ATOM     22  C   LIG    1        6.298  -2.655  -1.268  0.00  0.00    +0.030 A 
BRANCH  21  23
ATOM     23  O   LIG    1        6.931  -4.614  -2.459  0.00  0.00    -0.320 OA
BRANCH  23  24
ATOM     24  C   LIG    1        7.377  -5.971  -2.393  0.00  0.00    +0.590 C 
ATOM     25  F   LIG    1        6.431  -6.739  -1.704  0.00  0.00    -0.200 F 
ATOM     26  F   LIG    1        8.602  -6.027  -1.721  0.00  0.00    -0.200 F 
ENDBRANCH  23  24
ENDBRANCH  21  23
ENDBRANCH  16  17
ENDBRANCH   2  16
TORSDOF 7
