REMARK  Name = ZINCvU000000092q.0
REMARK                            x       y       z     vdW  Elec       q    Type
REMARK                         _______ _______ _______ _____ _____    ______ ____
ROOT
ATOM      1  C   LIG    1       -6.075   0.233  -0.545  0.00  0.00    -0.050 A 
ATOM      2  C   LIG    1       -6.630   1.467  -0.195  0.00  0.00    +0.110 A 
ATOM      3  C   LIG    1       -7.993   1.590  -0.046  0.00  0.00    -0.010 A 
ATOM      4  C   LIG    1       -8.817   0.485  -0.232  0.00  0.00    +0.200 A 
ATOM      5  C   LIG    1       -8.268  -0.746  -0.575  0.00  0.00    +0.030 A 
ATOM      6  C   LIG    1       -6.906  -0.875  -0.731  0.00  0.00    +0.090 A 
ENDROOT
BRANCH   4   7
ATOM      7  N   LIG    1      -10.198   0.611  -0.074  0.00  0.00    -0.680 N 
ATOM      8  H   LIG    1      -10.640   1.441  -0.314  0.00  0.00    +0.410 HD
ATOM      9  C   LIG    1      -10.918  -0.419   0.411  0.00  0.00    +0.700 C 
ATOM     10  N   LIG    1      -12.262  -0.336   0.466  0.00  0.00    -0.680 N 
ATOM     11  H   LIG    1      -12.716   0.434   0.088  0.00  0.00    +0.410 HD
ATOM     12  O   LIG    1      -10.356  -1.425   0.800  0.00  0.00    -0.550 OA
BRANCH  10  13
ATOM     13  C   LIG    1      -13.003  -1.358   1.069  0.00  0.00    +0.160 A 
ATOM     14  C   LIG    1      -14.270  -1.672   0.595  0.00  0.00    -0.020 A 
ATOM     15  C   LIG    1      -14.996  -2.686   1.188  0.00  0.00    +0.030 A 
ATOM     16  C   LIG    1      -14.468  -3.381   2.260  0.00  0.00    -0.010 A 
ATOM     17  C   LIG    1      -13.209  -3.067   2.738  0.00  0.00    +0.030 A 
ATOM     18  C   LIG    1      -12.475  -2.058   2.146  0.00  0.00    +0.020 A 
ENDBRANCH  10  13
ENDBRANCH   4   7
BRANCH   1  22
ATOM     19  C   LIG    1       -2.524   0.471  -0.815  0.00  0.00    +0.220 A 
ATOM     20  N   LIG    1       -2.756  -0.787  -1.093  0.00  0.00    -0.370 NA
ATOM     21  O   LIG    1       -3.946  -1.018  -1.039  0.00  0.00    +0.090 OA
ATOM     22  C   LIG    1       -4.614   0.099  -0.711  0.00  0.00    +0.240 A 
ATOM     23  N   LIG    1       -3.714   1.054  -0.562  0.00  0.00    -0.470 NA
BRANCH  19  28
ATOM     24  C   LIG    1        1.192   1.026  -1.030  0.00  0.00    +0.130 A 
ATOM     25  C   LIG    1        1.281   2.375  -0.717  0.00  0.00    -0.050 A 
ATOM     26  C   LIG    1        0.139   3.099  -0.434  0.00  0.00    +0.060 A 
ATOM     27  C   LIG    1       -1.097   2.485  -0.460  0.00  0.00    +0.030 A 
ATOM     28  C   LIG    1       -1.196   1.132  -0.779  0.00  0.00    +0.020 A 
ATOM     29  C   LIG    1       -0.044   0.401  -1.059  0.00  0.00    +0.030 A 
BRANCH  24  30
ATOM     30  O   LIG    1        2.318   0.317  -1.308  0.00  0.00    -0.310 OA
BRANCH  30  31
ATOM     31  C   LIG    1        3.559   1.024  -1.259  0.00  0.00    +0.350 C 
BRANCH  31  33
ATOM     32  C   LIG    1        5.540  -0.628  -1.845  0.00  0.00    +0.080 C 
ATOM     33  C   LIG    1        4.661   0.105  -1.585  0.00  0.00    -0.210 C 
ENDBRANCH  31  33
ENDBRANCH  30  31
ENDBRANCH  24  30
ENDBRANCH  19  28
ENDBRANCH   1  22
TORSDOF 7
