REMARK  Name = ZINCqH0000036Lm6.0
REMARK                            x       y       z     vdW  Elec       q    Type
REMARK                         _______ _______ _______ _____ _____    ______ ____
ROOT
ATOM      1  C   LIG    1        5.713  -0.748   1.422  0.00  0.00    +0.210 A 
ATOM      2  C   LIG    1        5.768  -2.131   1.300  0.00  0.00    -0.050 A 
ATOM      3  C   LIG    1        6.822  -2.830   1.853  0.00  0.00    +0.060 A 
ATOM      4  C   LIG    1        7.821  -2.153   2.540  0.00  0.00    +0.080 A 
ATOM      5  C   LIG    1        7.762  -0.771   2.667  0.00  0.00    +0.040 A 
ATOM      6  C   LIG    1        6.711  -0.071   2.110  0.00  0.00    -0.060 A 
ENDROOT
BRANCH   4   7
ATOM      7  N   LIG    1        8.887  -2.864   3.107  0.00  0.00    -0.650 N 
ATOM      8  H   LIG    1        9.291  -2.555   3.933  0.00  0.00    +0.420 HD
ATOM      9  C   LIG    1        9.351  -3.976   2.504  0.00  0.00    +0.600 C 
ATOM     10  O   LIG    1        8.910  -4.310   1.421  0.00  0.00    -0.500 OA
BRANCH   9  11
ATOM     11  C   LIG    1       10.395  -4.790   3.159  0.00  0.00    +0.050 A 
ATOM     12  N   LIG    1       10.958  -4.536   4.323  0.00  0.00    -0.220 NA
ATOM     13  N   LIG    1       11.895  -5.542   4.583  0.00  0.00    -0.410 N 
ATOM     14  C   LIG    1       12.899  -6.001   5.560  0.00  0.00    +0.330 C 
ATOM     15  C   LIG    1       13.716  -7.026   4.740  0.00  0.00    +0.270 C 
ATOM     16  O   LIG    1       12.770  -7.436   3.736  0.00  0.00    -0.280 OA
ATOM     17  C   LIG    1       11.887  -6.418   3.545  0.00  0.00    +0.240 A 
ATOM     18  C   LIG    1       10.968  -5.971   2.644  0.00  0.00    -0.040 A 
ENDBRANCH   9  11
ENDBRANCH   4   7
BRANCH   1  19
ATOM     19  N   LIG    1        4.647  -0.038   0.857  0.00  0.00    -0.740 N 
ATOM     20  H   LIG    1        4.606   0.926   0.946  0.00  0.00    +0.400 HD
BRANCH  19  22
ATOM     21  C   LIG    1        4.029  -0.967  -1.319  0.00  0.00    +0.030 C 
ATOM     22  C   LIG    1        3.594  -0.753   0.132  0.00  0.00    +0.280 C 
BRANCH  22  23
ATOM     23  C   LIG    1        2.325   0.059   0.162  0.00  0.00    -0.090 A 
ATOM     24  C   LIG    1        1.106  -0.570   0.338  0.00  0.00    +0.010 A 
ATOM     25  C   LIG    1       -0.058   0.175   0.366  0.00  0.00    +0.000 A 
ATOM     26  C   LIG    1       -0.004   1.548   0.218  0.00  0.00    +0.000 A 
ATOM     27  C   LIG    1        1.214   2.177   0.042  0.00  0.00    +0.000 A 
ATOM     28  C   LIG    1        2.378   1.432   0.012  0.00  0.00    +0.010 A 
ENDBRANCH  22  23
ENDBRANCH  19  22
ENDBRANCH   1  19
TORSDOF 5
