REMARK  Name = ZINCrD000000C2m4.1
REMARK                            x       y       z     vdW  Elec       q    Type
REMARK                         _______ _______ _______ _____ _____    ______ ____
ROOT
ATOM      1  C   LIG    1       -2.183   4.398  -0.063  0.00  0.00    +0.070 A 
ATOM      2  C   LIG    1       -3.387   4.021   0.529  0.00  0.00    +0.120 A 
ATOM      3  C   LIG    1       -4.474   4.869   0.407  0.00  0.00    -0.010 A 
ATOM      4  C   LIG    1       -4.331   6.057  -0.297  0.00  0.00    +0.290 A 
ATOM      5  N   LIG    1       -3.173   6.383  -0.846  0.00  0.00    -0.510 NA
ATOM      6  C   LIG    1       -2.113   5.604  -0.745  0.00  0.00    +0.280 A 
ENDROOT
BRANCH   1   9
ATOM      7  O   LIG    1       -2.312   1.740   0.023  0.00  0.00    -0.530 OA
ATOM      8  C   LIG    1       -1.200   2.232   0.028  0.00  0.00    +0.600 C 
ATOM      9  N   LIG    1       -1.056   3.572   0.035  0.00  0.00    -0.660 N 
ATOM     10  H   LIG    1       -0.172   3.965   0.107  0.00  0.00    +0.410 HD
BRANCH   8  11
ATOM     11  C   LIG    1       -0.010   1.364   0.028  0.00  0.00    -0.230 A 
ATOM     12  C   LIG    1        0.010   0.003   0.022  0.00  0.00    +0.070 A 
ATOM     13  C   LIG    1       -1.174  -0.935   0.016  0.00  0.00    +0.330 C 
ATOM     14  N   LIG    1       -0.695  -2.275  -0.364  0.00  0.00    -0.680 NA
ATOM     15  H   LIG    1       -0.487  -2.318  -1.351  0.00  0.00    +0.350 HD
ATOM     16  C   LIG    1        0.474  -2.664   0.437  0.00  0.00    +0.230 C 
ATOM     17  C   LIG    1        1.689  -1.829   0.018  0.00  0.00    +0.250 C 
ATOM     18  N   LIG    1        1.299  -0.411   0.020  0.00  0.00    -0.440 N 
ATOM     19  C   LIG    1        2.133   0.666   0.022  0.00  0.00    +0.170 A 
ATOM     20  C   LIG    1        1.394   1.791   0.028  0.00  0.00    -0.020 A 
ENDBRANCH   8  11
ENDBRANCH   1   9
BRANCH   4  21
ATOM     21  O   LIG    1       -5.392   6.895  -0.422  0.00  0.00    -0.240 OA
BRANCH  21  22
ATOM     22  C   LIG    1       -5.246   7.998  -1.204  0.00  0.00    +0.050 A 
ATOM     23  C   LIG    1       -4.990   9.231  -0.624  0.00  0.00    +0.090 A 
ATOM     24  C   LIG    1       -4.836  10.350  -1.420  0.00  0.00    +0.000 A 
ATOM     25  C   LIG    1       -4.948  10.244  -2.795  0.00  0.00    +0.140 A 
ATOM     26  C   LIG    1       -5.208   9.015  -3.377  0.00  0.00    -0.020 A 
ATOM     27  F   LIG    1       -4.802  11.341  -3.571  0.00  0.00    -0.130 F 
ATOM     28  C   LIG    1       -5.358   7.891  -2.585  0.00  0.00    +0.130 A 
ATOM     29  F   LIG    1       -5.612   6.692  -3.152  0.00  0.00    -0.120 F 
ENDBRANCH  21  22
ENDBRANCH   4  21
TORSDOF 4
