REMARK  Name = ZINCrH000004s3AE.0
REMARK                            x       y       z     vdW  Elec       q    Type
REMARK                         _______ _______ _______ _____ _____    ______ ____
ROOT
ATOM      1  C   LIG    1        2.942  -3.859   1.244  0.00  0.00    +0.500 C 
ATOM      2  N   LIG    1        3.377  -2.739   0.633  0.00  0.00    -0.730 N 
ATOM      3  H   LIG    1        4.288  -2.435   0.768  0.00  0.00    +0.400 HD
ATOM      4  O   LIG    1        1.803  -4.239   1.076  0.00  0.00    -0.520 OA
ENDROOT
BRANCH   2   5
ATOM      5  C   LIG    1        2.472  -1.980  -0.234  0.00  0.00    +0.290 C 
ATOM      6  C   LIG    1        2.493  -2.580  -1.642  0.00  0.00    +0.040 C 
BRANCH   5   7
ATOM      7  C   LIG    1        2.922  -0.543  -0.294  0.00  0.00    -0.100 A 
ATOM      8  C   LIG    1        1.987   0.475  -0.278  0.00  0.00    +0.020 A 
ATOM      9  C   LIG    1        2.399   1.793  -0.333  0.00  0.00    +0.010 A 
ATOM     10  C   LIG    1        3.747   2.094  -0.403  0.00  0.00    -0.070 A 
ATOM     11  C   LIG    1        4.682   1.076  -0.420  0.00  0.00    +0.010 A 
ATOM     12  C   LIG    1        4.269  -0.242  -0.365  0.00  0.00    +0.010 A 
BRANCH  10  13
ATOM     13  C   LIG    1        4.196   3.531  -0.463  0.00  0.00    +0.020 C 
ATOM     14  C   LIG    1        4.978   3.767  -1.756  0.00  0.00    +0.030 C 
ATOM     15  C   LIG    1        5.093   3.835   0.738  0.00  0.00    +0.040 C 
ENDBRANCH  10  13
ENDBRANCH   5   7
ENDBRANCH   2   5
BRANCH   1  16
ATOM     16  C   LIG    1        3.872  -4.639   2.137  0.00  0.00    +0.320 C 
BRANCH  16  17
ATOM     17  N   LIG    1        3.168  -5.804   2.677  0.00  0.00    -0.930 N 
BRANCH  17  24
ATOM     18  C   LIG    1        4.497  -5.549   5.180  0.00  0.00    +0.080 C 
ATOM     19  C   LIG    1        2.994  -5.549   5.071  0.00  0.00    -0.080 A 
ATOM     20  C   LIG    1        2.219  -5.423   6.207  0.00  0.00    +0.010 A 
ATOM     21  C   LIG    1        0.839  -5.422   6.108  0.00  0.00    +0.030 A 
ATOM     22  C   LIG    1        0.231  -5.549   4.872  0.00  0.00    +0.010 A 
ATOM     23  C   LIG    1        1.001  -5.671   3.732  0.00  0.00    +0.060 A 
ATOM     24  C   LIG    1        2.386  -5.677   3.828  0.00  0.00    +0.130 A 
ENDBRANCH  17  24
BRANCH  17  25
ATOM     25  S   LIG    1        3.297  -7.273   1.923  0.00  0.00    +2.600 S 
ATOM     26  O   LIG    1        3.454  -6.949   0.548  0.00  0.00    -0.940 OA
ATOM     27  O   LIG    1        2.166  -8.002   2.379  0.00  0.00    -0.930 OA
ATOM     28  C   LIG    1        4.825  -7.990   2.587  0.00  0.00    -0.290 C 
ENDBRANCH  17  25
ENDBRANCH  16  17
ENDBRANCH   1  16
TORSDOF 7
