REMARK  Name = ZINCpk00000y2AKD.0
REMARK                            x       y       z     vdW  Elec       q    Type
REMARK                         _______ _______ _______ _____ _____    ______ ____
ROOT
ATOM      1  N   LIG    1       -0.322  -4.388  -4.255  0.00  0.00    -0.620 N 
ATOM      2  H   LIG    1       -0.509  -3.871  -5.054  0.00  0.00    +0.430 HD
ATOM      3  C   LIG    1       -0.145  -3.764  -3.074  0.00  0.00    +0.510 C 
ATOM      4  O   LIG    1        0.088  -4.410  -2.075  0.00  0.00    -0.480 OA
ENDROOT
BRANCH   1   6
ATOM      5  C   LIG    1       -0.407  -6.502  -5.475  0.00  0.00    -0.240 A 
ATOM      6  C   LIG    1       -0.238  -5.770  -4.328  0.00  0.00    +0.080 A 
ATOM      7  S   LIG    1        0.083  -6.793  -3.003  0.00  0.00    +0.310 S 
ATOM      8  C   LIG    1       -0.002  -8.236  -3.997  0.00  0.00    -0.110 A 
ATOM      9  C   LIG    1       -0.260  -7.925  -5.259  0.00  0.00    +0.060 A 
BRANCH   5  13
ATOM     10  N   LIG    1       -0.853  -6.695  -7.864  0.00  0.00    -0.850 N 
ATOM     11  H   LIG    1       -1.048  -6.301  -8.728  0.00  0.00    +0.410 HD
ATOM     12  H   LIG    1       -0.768  -7.657  -7.778  0.00  0.00    +0.400 HD
ATOM     13  C   LIG    1       -0.701  -5.906  -6.782  0.00  0.00    +0.600 C 
ATOM     14  O   LIG    1       -0.808  -4.698  -6.889  0.00  0.00    -0.560 OA
ENDBRANCH   5  13
ENDBRANCH   1   6
BRANCH   3  15
ATOM     15  C   LIG    1       -0.237  -2.261  -2.995  0.00  0.00    +0.280 C 
BRANCH  15  16
ATOM     16  O   LIG    1       -0.010  -1.834  -1.625  0.00  0.00    -0.320 OA
BRANCH  16  17
ATOM     17  C   LIG    1       -0.059  -0.515  -1.383  0.00  0.00    +0.490 C 
ATOM     18  O   LIG    1       -0.282   0.257  -2.284  0.00  0.00    -0.500 OA
BRANCH  17  19
ATOM     19  C   LIG    1        0.167   0.003   0.014  0.00  0.00    +0.180 C 
BRANCH  19  20
ATOM     20  C   LIG    1        0.060   1.506   0.016  0.00  0.00    -0.010 A 
ATOM     21  C   LIG    1       -1.101   2.116   0.452  0.00  0.00    +0.040 A 
ATOM     22  C   LIG    1       -1.198   3.495   0.454  0.00  0.00    +0.090 A 
ATOM     23  C   LIG    1       -0.135   4.264   0.020  0.00  0.00    +0.040 A 
ATOM     24  C   LIG    1        1.027   3.654  -0.416  0.00  0.00    +0.110 A 
ATOM     25  C   LIG    1        1.126   2.275  -0.413  0.00  0.00    -0.030 A 
BRANCH  25  26
ATOM     26  N   LIG    1        2.372   1.622  -0.874  0.00  0.00    +0.030 N 
ATOM     27  O   LIG    1        2.423   0.409  -0.973  0.00  0.00    -0.170 OA
ATOM     28  O   LIG    1        3.346   2.297  -1.153  0.00  0.00    -0.150 OA
ENDBRANCH  25  26
ENDBRANCH  19  20
ENDBRANCH  17  19
ENDBRANCH  16  17
ENDBRANCH  15  16
ENDBRANCH   3  15
TORSDOF 8
