REMARK  Name = ZINCkj000005kVyr.1
REMARK                            x       y       z     vdW  Elec       q    Type
REMARK                         _______ _______ _______ _____ _____    ______ ____
ROOT
ATOM      1  N   LIG    1        2.440   0.394  -1.044  0.00  0.00    -0.520 N 
ATOM      2  H   LIG    1        1.691  -0.256  -0.859  0.00  0.00    +0.440 HD
ATOM      3  H   LIG    1        3.321  -0.098  -1.037  0.00  0.00    +0.430 HD
ENDROOT
BRANCH   1   4
ATOM      4  C   LIG    1        2.453   1.435  -0.007  0.00  0.00    +0.190 C 
ATOM      5  C   LIG    1        3.878   1.963   0.175  0.00  0.00    +0.090 C 
ATOM      6  C   LIG    1        4.892   0.851  -0.021  0.00  0.00    +0.020 C 
ATOM      7  C   LIG    1        4.838  -0.224   1.050  0.00  0.00    +0.040 C 
ATOM      8  C   LIG    1        3.527  -1.009   0.969  0.00  0.00    +0.260 C 
ATOM      9  N   LIG    1        2.504  -0.299   1.753  0.00  0.00    -0.720 N 
ATOM     10  H   LIG    1        2.201  -0.669   2.597  0.00  0.00    +0.430 HD
ATOM     11  C   LIG    1        1.986   0.848   1.309  0.00  0.00    +0.500 C 
ATOM     12  O   LIG    1        1.140   1.421   1.961  0.00  0.00    -0.480 OA
ENDBRANCH   1   4
BRANCH   1  13
ATOM     13  C   LIG    1        2.236   1.016  -2.359  0.00  0.00    +0.400 C 
BRANCH  13  23
ATOM     14  C   LIG    1        4.696  -0.023  -3.919  0.00  0.00    +0.330 C 
ATOM     15  N   LIG    1        3.320  -0.493  -4.097  0.00  0.00    -0.480 N 
ATOM     16  C   LIG    1        2.896  -1.469  -4.977  0.00  0.00    +0.070 A 
ATOM     17  C   LIG    1        3.535  -2.272  -5.911  0.00  0.00    +0.010 A 
ATOM     18  C   LIG    1        2.800  -3.169  -6.657  0.00  0.00    +0.070 A 
ATOM     19  C   LIG    1        1.428  -3.274  -6.479  0.00  0.00    +0.020 A 
ATOM     20  C   LIG    1        0.782  -2.491  -5.564  0.00  0.00    +0.090 A 
ATOM     21  C   LIG    1        1.506  -1.575  -4.797  0.00  0.00    +0.040 A 
ATOM     22  N   LIG    1        1.162  -0.682  -3.834  0.00  0.00    -0.440 NA
ATOM     23  C   LIG    1        2.224  -0.052  -3.422  0.00  0.00    +0.180 A 
ENDBRANCH  13  23
ENDBRANCH   1  13
TORSDOF 3
