REMARK  Name = ZINCqH0000002T6N.0
REMARK                            x       y       z     vdW  Elec       q    Type
REMARK                         _______ _______ _______ _____ _____    ______ ____
ROOT
ATOM      1  C   LIG    1        1.367   1.662   2.656  0.00  0.00    +0.600 C 
ATOM      2  N   LIG    1        1.897   2.041   3.836  0.00  0.00    -0.600 N 
ATOM      3  C   LIG    1        1.034   2.516   4.927  0.00  0.00    +0.260 C 
ATOM      4  C   LIG    1        1.534   3.881   5.397  0.00  0.00    +0.030 C 
ATOM      5  C   LIG    1        3.015   3.780   5.766  0.00  0.00    +0.060 C 
ATOM      6  C   LIG    1        3.823   3.368   4.533  0.00  0.00    -0.020 C 
ATOM      7  C   LIG    1        3.349   1.991   4.055  0.00  0.00    +0.310 C 
ATOM      8  O   LIG    1        2.083   1.201   1.788  0.00  0.00    -0.520 OA
ENDROOT
BRANCH   1  12
ATOM      9  C   LIG    1       -2.535   1.856   2.397  0.00  0.00    +0.070 A 
ATOM     10  N   LIG    1       -1.961   2.386   1.365  0.00  0.00    -0.470 NA
ATOM     11  C   LIG    1       -0.652   2.377   1.333  0.00  0.00    +0.150 A 
ATOM     12  C   LIG    1       -0.074   1.807   2.420  0.00  0.00    -0.300 A 
ATOM     13  C   LIG    1        0.143   2.956   0.191  0.00  0.00    +0.170 C 
ATOM     14  S   LIG    1       -1.362   1.271   3.495  0.00  0.00    +0.170 S 
BRANCH   9  15
ATOM     15  C   LIG    1       -4.025   1.772   2.605  0.00  0.00    +0.140 C 
BRANCH  15  17
ATOM     16  C   LIG    1       -6.062   0.377   2.224  0.00  0.00    +0.030 C 
ATOM     17  C   LIG    1       -4.550   0.462   2.013  0.00  0.00    +0.020 C 
ENDBRANCH  15  17
ENDBRANCH   9  15
ENDBRANCH   1  12
BRANCH   6  18
ATOM     18  C   LIG    1        5.285   3.300   4.889  0.00  0.00    +0.520 C 
ATOM     19  N   LIG    1        6.191   2.951   3.954  0.00  0.00    -0.730 N 
ATOM     20  H   LIG    1        5.902   2.744   3.052  0.00  0.00    +0.400 HD
ATOM     21  O   LIG    1        5.648   3.560   6.017  0.00  0.00    -0.530 OA
BRANCH  19  22
ATOM     22  C   LIG    1        7.613   2.886   4.300  0.00  0.00    +0.230 C 
ATOM     23  C   LIG    1        8.234   4.279   4.171  0.00  0.00    +0.000 C 
ATOM     24  C   LIG    1        9.719   4.210   4.533  0.00  0.00    +0.010 C 
ATOM     25  C   LIG    1       10.431   3.245   3.583  0.00  0.00    +0.000 C 
ATOM     26  C   LIG    1        9.811   1.852   3.712  0.00  0.00    +0.020 C 
ATOM     27  C   LIG    1        8.325   1.921   3.350  0.00  0.00    +0.010 C 
ENDBRANCH  19  22
ENDBRANCH   6  18
TORSDOF 5
