REMARK  Name = ZINCrD000000fTxE.0
REMARK                            x       y       z     vdW  Elec       q    Type
REMARK                         _______ _______ _______ _____ _____    ______ ____
ROOT
ATOM      1  C   LIG    1        8.281   3.718   0.072  0.00  0.00    +0.520 C 
ATOM      2  N   LIG    1        7.109   4.367  -0.079  0.00  0.00    -0.660 N 
ATOM      3  H   LIG    1        7.100   5.328  -0.207  0.00  0.00    +0.420 HD
ATOM      4  O   LIG    1        8.300   2.507   0.135  0.00  0.00    -0.510 OA
ENDROOT
BRANCH   1   9
ATOM      5  C   LIG    1       13.270   5.209  -1.469  0.00  0.00    +0.530 C 
ATOM      6  N   LIG    1       12.162   5.222  -0.702  0.00  0.00    -0.610 N 
ATOM      7  C   LIG    1       12.042   4.325   0.456  0.00  0.00    +0.280 C 
ATOM      8  C   LIG    1       10.740   3.528   0.330  0.00  0.00    +0.050 C 
ATOM      9  C   LIG    1        9.568   4.497   0.162  0.00  0.00    +0.010 C 
ATOM     10  C   LIG    1        9.759   5.315  -1.117  0.00  0.00    +0.030 C 
ATOM     11  C   LIG    1       11.050   6.133  -1.008  0.00  0.00    +0.290 C 
ATOM     12  O   LIG    1       14.136   4.384  -1.270  0.00  0.00    -0.530 OA
BRANCH   5  14
ATOM     13  C   LIG    1       14.844   6.119  -3.155  0.00  0.00    +0.050 C 
ATOM     14  C   LIG    1       13.433   6.221  -2.574  0.00  0.00    -0.090 C 
ATOM     15  C   LIG    1       13.212   7.627  -2.015  0.00  0.00    +0.040 C 
ATOM     16  C   LIG    1       12.407   5.943  -3.675  0.00  0.00    +0.050 C 
ENDBRANCH   5  14
ENDBRANCH   1   9
BRANCH   2  17
ATOM     17  C   LIG    1        5.906   3.653  -0.051  0.00  0.00    +0.040 A 
ATOM     18  C   LIG    1        5.801   2.459   0.658  0.00  0.00    +0.330 A 
ATOM     19  N   LIG    1        4.649   1.813   0.662  0.00  0.00    -0.490 NA
ATOM     20  C   LIG    1        3.601   2.288   0.002  0.00  0.00    +0.340 A 
ATOM     21  N   LIG    1        3.666   3.418  -0.688  0.00  0.00    -0.490 NA
ATOM     22  C   LIG    1        4.784   4.121  -0.732  0.00  0.00    +0.300 A 
BRANCH  20  23
ATOM     23  C   LIG    1        2.326   1.532   0.032  0.00  0.00    -0.050 A 
ATOM     24  C   LIG    1        2.237   0.338   0.745  0.00  0.00    +0.070 A 
ATOM     25  C   LIG    1        1.047  -0.362   0.769  0.00  0.00    +0.000 A 
ATOM     26  C   LIG    1       -0.055   0.120   0.086  0.00  0.00    +0.030 A 
ATOM     27  C   LIG    1        0.028   1.304  -0.624  0.00  0.00    +0.000 A 
ATOM     28  C   LIG    1        1.212   2.012  -0.655  0.00  0.00    +0.070 A 
ENDBRANCH  20  23
ENDBRANCH   2  17
TORSDOF 4
