REMARK  Name = ZINCpk00000xNs8W.0
REMARK                            x       y       z     vdW  Elec       q    Type
REMARK                         _______ _______ _______ _____ _____    ______ ____
ROOT
ATOM      1  N   LIG    1       -0.721   1.571  -1.179  0.00  0.00    -0.740 N 
ATOM      2  H   LIG    1       -1.516   2.118  -1.079  0.00  0.00    +0.390 HD
ATOM      3  C   LIG    1       -0.268   1.258  -2.409  0.00  0.00    +0.710 C 
ATOM      4  N   LIG    1       -0.920   1.705  -3.501  0.00  0.00    -0.740 N 
ATOM      5  H   LIG    1       -1.715   2.251  -3.401  0.00  0.00    +0.400 HD
ATOM      6  O   LIG    1        0.729   0.574  -2.534  0.00  0.00    -0.580 OA
ENDROOT
BRANCH   1   7
ATOM      7  C   LIG    1       -0.013   1.086   0.008  0.00  0.00    +0.280 C 
BRANCH   7   9
ATOM      8  C   LIG    1       -2.131   0.973   1.349  0.00  0.00    +0.050 C 
ATOM      9  C   LIG    1       -0.729   1.579   1.267  0.00  0.00    +0.140 C 
ATOM     10  C   LIG    1        0.087   1.211   2.525  0.00  0.00    +0.070 C 
ATOM     11  C   LIG    1        0.928   2.491   2.742  0.00  0.00    +0.060 C 
ATOM     12  C   LIG    1        0.116   3.583   2.081  0.00  0.00    +0.520 C 
ATOM     13  O   LIG    1        0.275   4.772   2.262  0.00  0.00    -0.530 OA
ATOM     14  N   LIG    1       -0.808   3.045   1.264  0.00  0.00    -0.730 N 
ATOM     15  H   LIG    1       -1.445   3.558   0.742  0.00  0.00    +0.410 HD
ENDBRANCH   7   9
ENDBRANCH   1   7
BRANCH   4  16
ATOM     16  C   LIG    1       -0.427   1.365  -4.838  0.00  0.00    +0.400 C 
BRANCH  16  17
ATOM     17  C   LIG    1       -1.328   1.982  -5.877  0.00  0.00    +0.060 A 
ATOM     18  N   LIG    1       -2.437   1.462  -6.338  0.00  0.00    -0.270 NA
ATOM     19  N   LIG    1       -2.974   2.343  -7.285  0.00  0.00    -0.320 N 
ATOM     20  C   LIG    1       -2.147   3.409  -7.376  0.00  0.00    +0.230 A 
ATOM     21  C   LIG    1       -1.125   3.213  -6.511  0.00  0.00    -0.080 A 
BRANCH  19  22
ATOM     22  C   LIG    1       -4.159   2.153  -8.011  0.00  0.00    +0.150 A 
ATOM     23  C   LIG    1       -4.579   3.115  -8.920  0.00  0.00    +0.030 A 
ATOM     24  C   LIG    1       -5.743   2.923  -9.638  0.00  0.00    +0.030 A 
ATOM     25  C   LIG    1       -6.497   1.778  -9.443  0.00  0.00    +0.090 A 
ATOM     26  C   LIG    1       -6.082   0.820  -8.533  0.00  0.00    +0.020 A 
ATOM     27  F   LIG    1       -7.638   1.595 -10.142  0.00  0.00    -0.130 F 
ATOM     28  C   LIG    1       -4.916   1.006  -7.818  0.00  0.00    +0.060 A 
ENDBRANCH  19  22
ENDBRANCH  16  17
ENDBRANCH   4  16
TORSDOF 5
