REMARK  Name = ZINCc70000002ICA.0
REMARK                            x       y       z     vdW  Elec       q    Type
REMARK                         _______ _______ _______ _____ _____    ______ ____
ROOT
ATOM      1  C   LIG    1       -1.078   2.289   0.019  0.00  0.00    +0.180 A 
ATOM      2  N   LIG    1       -0.609   3.510   0.024  0.00  0.00    -0.290 NA
ATOM      3  N   LIG    1        0.679   3.482   0.011  0.00  0.00    -0.290 NA
ATOM      4  C   LIG    1        1.085   2.249   0.004  0.00  0.00    +0.180 A 
ATOM      5  C   LIG    1        2.500   1.726  -0.008  0.00  0.00    +0.160 C 
ATOM      6  C   LIG    1        2.464   0.243   0.387  0.00  0.00    +0.030 C 
ATOM      7  C   LIG    1        1.393  -0.475  -0.439  0.00  0.00    +0.040 C 
ATOM      8  C   LIG    1        0.002  -0.004   0.002  0.00  0.00    +0.290 C 
ATOM      9  N   LIG    1       -0.018   1.458   0.010  0.00  0.00    -0.470 N 
ENDROOT
BRANCH   1  10
ATOM     10  C   LIG    1       -2.531   1.887   0.025  0.00  0.00    +0.170 C 
BRANCH  10  11
ATOM     11  C   LIG    1       -3.015   1.745   1.469  0.00  0.00    +0.180 C 
BRANCH  11  12
ATOM     12  O   LIG    1       -4.392   1.364   1.475  0.00  0.00    -0.570 OA
ATOM     13  H   LIG    1       -4.766   1.255   2.360  0.00  0.00    +0.390 HD
ENDBRANCH  11  12
ENDBRANCH  10  11
ENDBRANCH   1  10
TORSDOF 3
