REMARK  Name = ZINCrH000004jWMI.0
REMARK                            x       y       z     vdW  Elec       q    Type
REMARK                         _______ _______ _______ _____ _____    ______ ____
ROOT
ATOM      1  C   LIG    1       -2.801  -0.581   2.076  0.00  0.00    +0.290 C 
ATOM      2  N   LIG    1       -3.070   0.688   1.393  0.00  0.00    -0.600 N 
ATOM      3  C   LIG    1       -3.729   1.672   2.035  0.00  0.00    +0.570 C 
ATOM      4  O   LIG    1       -3.881   2.752   1.498  0.00  0.00    -0.500 OA
ENDROOT
BRANCH   3   5
ATOM      5  C   LIG    1       -4.269   1.438   3.391  0.00  0.00    -0.120 A 
ATOM      6  C   LIG    1       -5.531   1.924   3.737  0.00  0.00    +0.220 A 
ATOM      7  C   LIG    1       -6.031   1.698   5.003  0.00  0.00    -0.040 A 
ATOM      8  C   LIG    1       -5.279   1.000   5.932  0.00  0.00    +0.210 A 
ATOM      9  C   LIG    1       -4.026   0.521   5.597  0.00  0.00    -0.050 A 
ATOM     10  C   LIG    1       -3.516   0.735   4.333  0.00  0.00    +0.190 A 
BRANCH   9  11
ATOM     11  N   LIG    1       -3.229  -0.225   6.598  0.00  0.00    +0.020 N 
ATOM     12  O   LIG    1       -3.677  -0.415   7.714  0.00  0.00    -0.130 OA
ATOM     13  O   LIG    1       -2.125  -0.648   6.304  0.00  0.00    -0.130 OA
ENDBRANCH   9  11
BRANCH   7  14
ATOM     14  N   LIG    1       -7.371   2.208   5.370  0.00  0.00    +0.020 N 
ATOM     15  O   LIG    1       -8.034   2.822   4.553  0.00  0.00    -0.130 OA
ATOM     16  O   LIG    1       -7.812   2.013   6.488  0.00  0.00    -0.130 OA
ENDBRANCH   7  14
ENDBRANCH   3   5
BRANCH   2  17
ATOM     17  C   LIG    1       -2.621   0.885   0.012  0.00  0.00    +0.350 C 
BRANCH  17  18
ATOM     18  C   LIG    1       -1.232   1.471   0.015  0.00  0.00    -0.090 A 
ATOM     19  C   LIG    1       -0.130   0.636   0.009  0.00  0.00    +0.040 A 
ATOM     20  C   LIG    1        1.143   1.173   0.005  0.00  0.00    +0.070 A 
ATOM     21  C   LIG    1        1.315   2.545   0.012  0.00  0.00    -0.170 A 
ATOM     22  C   LIG    1        0.213   3.380   0.024  0.00  0.00    +0.070 A 
ATOM     23  C   LIG    1       -1.061   2.842   0.027  0.00  0.00    +0.040 A 
BRANCH  21  24
ATOM     24  C   LIG    1        2.704   3.131   0.008  0.00  0.00    +0.510 C 
ATOM     25  F   LIG    1        3.581   2.255   0.657  0.00  0.00    -0.180 F 
ATOM     26  F   LIG    1        2.693   4.360   0.675  0.00  0.00    -0.180 F 
ATOM     27  F   LIG    1        3.126   3.320  -1.312  0.00  0.00    -0.170 F 
ENDBRANCH  21  24
ENDBRANCH  17  18
ENDBRANCH   2  17
TORSDOF 6
