REMARK  Name = ZINCtV000002McLv.0
REMARK                            x       y       z     vdW  Elec       q    Type
REMARK                         _______ _______ _______ _____ _____    ______ ____
ROOT
ATOM      1  O   LIG    1       -3.406   0.444  -2.442  0.00  0.00    -0.530 OA
ATOM      2  C   LIG    1       -3.794   1.526  -2.055  0.00  0.00    +0.530 C 
ATOM      3  N   LIG    1       -3.415   1.984  -0.845  0.00  0.00    -0.610 N 
ATOM      4  C   LIG    1       -3.873   3.294  -0.357  0.00  0.00    +0.290 C 
ATOM      5  C   LIG    1       -4.761   3.073   0.872  0.00  0.00    +0.110 C 
ATOM      6  C   LIG    1       -4.092   2.073   1.792  0.00  0.00    -0.170 A 
ATOM      7  C   LIG    1       -3.107   1.226   1.432  0.00  0.00    -0.110 A 
ATOM      8  C   LIG    1       -2.670   0.404   2.464  0.00  0.00    +0.020 A 
ATOM      9  C   LIG    1       -3.276   0.577   3.635  0.00  0.00    -0.040 A 
ATOM     10  S   LIG    1       -4.486   1.843   3.491  0.00  0.00    +0.110 S 
ATOM     11  C   LIG    1       -2.534   1.188   0.020  0.00  0.00    +0.410 C 
ENDROOT
BRANCH  11  12
ATOM     12  C   LIG    1       -1.147   1.778   0.017  0.00  0.00    -0.180 A 
ATOM     13  C   LIG    1       -0.013   1.076   0.008  0.00  0.00    +0.020 A 
ATOM     14  C   LIG    1        1.144   1.836   0.001  0.00  0.00    +0.010 A 
ATOM     15  C   LIG    1        0.949   3.156   0.009  0.00  0.00    -0.060 A 
ATOM     16  S   LIG    1       -0.776   3.497   0.027  0.00  0.00    +0.110 S 
ENDBRANCH  11  12
BRANCH   2  17
ATOM     17  C   LIG    1       -4.698   2.359  -2.927  0.00  0.00    +0.060 C 
BRANCH  17  18
ATOM     18  C   LIG    1       -4.972   1.614  -4.235  0.00  0.00    +0.180 C 
BRANCH  18  19
ATOM     19  C   LIG    1       -5.877   2.447  -5.107  0.00  0.00    -0.010 A 
ATOM     20  C   LIG    1       -5.473   3.356  -6.015  0.00  0.00    -0.050 A 
ATOM     21  C   LIG    1       -6.635   3.898  -6.601  0.00  0.00    -0.040 A 
ATOM     22  C   LIG    1       -7.694   3.282  -6.012  0.00  0.00    +0.030 A 
ATOM     23  O   LIG    1       -7.219   2.401  -5.111  0.00  0.00    -0.170 OA
BRANCH  22  24
ATOM     24  C   LIG    1       -9.119   3.533  -6.312  0.00  0.00    -0.020 A 
ATOM     25  C   LIG    1       -9.477   4.479  -7.274  0.00  0.00    +0.030 A 
ATOM     26  C   LIG    1      -10.810   4.704  -7.553  0.00  0.00    +0.010 A 
ATOM     27  C   LIG    1      -11.790   4.003  -6.874  0.00  0.00    +0.020 A 
ATOM     28  C   LIG    1      -11.442   3.067  -5.916  0.00  0.00    +0.010 A 
ATOM     29  C   LIG    1      -10.113   2.828  -5.631  0.00  0.00    +0.030 A 
ENDBRANCH  22  24
ENDBRANCH  18  19
ENDBRANCH  17  18
ENDBRANCH   2  17
TORSDOF 5
