REMARK  Name = ZINCrH000004vAOr.0
REMARK                            x       y       z     vdW  Elec       q    Type
REMARK                         _______ _______ _______ _____ _____    ______ ____
ROOT
ATOM      1  C   LIG    1        5.609   1.184  -0.151  0.00  0.00    -0.130 A 
ATOM      2  C   LIG    1        5.798   2.568  -0.129  0.00  0.00    +0.110 A 
ATOM      3  C   LIG    1        4.708   3.409  -0.088  0.00  0.00    +0.020 A 
ATOM      4  C   LIG    1        3.422   2.882  -0.067  0.00  0.00    +0.110 A 
ATOM      5  C   LIG    1        3.231   1.505  -0.084  0.00  0.00    +0.020 A 
ATOM      6  C   LIG    1        4.315   0.658  -0.131  0.00  0.00    +0.050 A 
ENDROOT
BRANCH   1   8
ATOM      7  O   LIG    1        7.898   0.728  -0.074  0.00  0.00    -0.520 OA
ATOM      8  C   LIG    1        6.775   0.279  -0.196  0.00  0.00    +0.590 C 
ATOM      9  N   LIG    1        6.594  -1.045  -0.371  0.00  0.00    -0.610 N 
ATOM     10  C   LIG    1        7.646  -2.051  -0.545  0.00  0.00    +0.350 C 
ATOM     11  C   LIG    1        6.978  -3.392  -0.707  0.00  0.00    -0.280 A 
ATOM     12  C   LIG    1        7.218  -4.712  -0.896  0.00  0.00    +0.290 A 
ATOM     13  N   LIG    1        6.028  -5.344  -0.943  0.00  0.00    -0.470 N 
ATOM     14  H   LIG    1        5.892  -6.296  -1.069  0.00  0.00    +0.450 HD
ATOM     15  N   LIG    1        5.022  -4.384  -0.777  0.00  0.00    -0.250 NA
ATOM     16  C   LIG    1        5.594  -3.213  -0.635  0.00  0.00    +0.040 A 
ATOM     17  C   LIG    1        5.309  -1.749  -0.418  0.00  0.00    +0.380 C 
ENDBRANCH   1   8
BRANCH   4  18
ATOM     18  O   LIG    1        2.350   3.714  -0.025  0.00  0.00    -0.240 OA
BRANCH  18  19
ATOM     19  C   LIG    1        2.007   4.369  -1.162  0.00  0.00    +0.350 A 
ATOM     20  C   LIG    1        0.858   5.147  -1.188  0.00  0.00    -0.020 A 
ATOM     21  C   LIG    1        0.519   5.810  -2.355  0.00  0.00    +0.170 A 
ATOM     22  C   LIG    1        1.349   5.674  -3.458  0.00  0.00    -0.280 A 
ATOM     23  C   LIG    1        2.475   4.880  -3.363  0.00  0.00    +0.380 A 
ATOM     24  N   LIG    1        2.771   4.260  -2.237  0.00  0.00    -0.520 NA
BRANCH  22  25
ATOM     25  C   LIG    1        1.024   6.382  -4.748  0.00  0.00    +0.520 C 
ATOM     26  F   LIG    1        0.993   7.763  -4.528  0.00  0.00    -0.170 F 
ATOM     27  F   LIG    1       -0.226   5.956  -5.212  0.00  0.00    -0.170 F 
ATOM     28  F   LIG    1        2.001   6.084  -5.703  0.00  0.00    -0.170 F 
ENDBRANCH  22  25
ENDBRANCH  18  19
ENDBRANCH   4  18
TORSDOF 4
