REMARK  Name = ZINCvU00000006up.1
REMARK                            x       y       z     vdW  Elec       q    Type
REMARK                         _______ _______ _______ _____ _____    ______ ____
ROOT
ATOM      1  C   LIG    1        5.694   4.768   0.509  0.00  0.00    +0.110 A 
ATOM      2  C   LIG    1        4.681   5.646   0.872  0.00  0.00    +0.100 A 
ATOM      3  C   LIG    1        3.380   5.396   0.482  0.00  0.00    +0.030 A 
ATOM      4  C   LIG    1        3.086   4.272  -0.269  0.00  0.00    +0.060 A 
ATOM      5  C   LIG    1        4.093   3.395  -0.632  0.00  0.00    -0.670 A 
ATOM      6 CL   LIG    1        1.449   3.960  -0.757  0.00  0.00    -0.040 Cl
ATOM      7  C   LIG    1        5.395   3.638  -0.240  0.00  0.00    +0.210 A 
ENDROOT
BRANCH   5   8
ATOM      8  S   LIG    1        3.714   1.964  -1.588  0.00  0.00    +2.690 S 
ATOM      9  O   LIG    1        2.912   2.409  -2.674  0.00  0.00    -0.930 OA
ATOM     10  O   LIG    1        4.937   1.262  -1.761  0.00  0.00    -0.930 OA
BRANCH   8  11
ATOM     11  N   LIG    1        2.746   0.996  -0.657  0.00  0.00    -1.050 N 
ATOM     12  H   LIG    1        1.844   0.787  -0.949  0.00  0.00    +0.430 HD
BRANCH  11  13
ATOM     13  C   LIG    1        3.227   0.478   0.548  0.00  0.00    +0.150 A 
ATOM     14  C   LIG    1        2.441   0.531   1.692  0.00  0.00    +0.030 A 
ATOM     15  C   LIG    1        2.921   0.023   2.883  0.00  0.00    +0.050 A 
ATOM     16  C   LIG    1        4.181  -0.548   2.935  0.00  0.00    -0.040 A 
ATOM     17  C   LIG    1        4.966  -0.603   1.797  0.00  0.00    +0.050 A 
ATOM     18 CL   LIG    1        4.779  -1.192   4.432  0.00  0.00    -0.070 Cl
ATOM     19  C   LIG    1        4.493  -0.092   0.605  0.00  0.00    +0.030 A 
ENDBRANCH  11  13
ENDBRANCH   8  11
ENDBRANCH   5   8
BRANCH   1  20
ATOM     20  N   LIG    1        7.013   5.019   0.903  0.00  0.00    -0.620 N 
ATOM     21  H   LIG    1        7.199   5.350   1.796  0.00  0.00    +0.410 HD
BRANCH  20  22
ATOM     22  C   LIG    1        8.027   4.801   0.042  0.00  0.00    +0.500 C 
ATOM     23  S   LIG    1        7.694   4.351  -1.576  0.00  0.00    -0.460 S 
BRANCH  22  26
ATOM     24  O   LIG    1       10.079   4.401  -1.556  0.00  0.00    -0.390 OA
ATOM     25  C   LIG    1       10.316   4.720  -0.407  0.00  0.00    +0.540 C 
ATOM     26  N   LIG    1        9.303   4.938   0.454  0.00  0.00    -0.640 N 
ATOM     27  H   LIG    1        9.492   5.193   1.371  0.00  0.00    +0.410 HD
BRANCH  25  28
ATOM     28  C   LIG    1       11.714   4.870   0.044  0.00  0.00    -0.150 A 
ATOM     29  C   LIG    1       11.989   5.242   1.362  0.00  0.00    +0.070 A 
ATOM     30  C   LIG    1       13.296   5.375   1.780  0.00  0.00    -0.010 A 
ATOM     31  C   LIG    1       14.336   5.150   0.891  0.00  0.00    +0.130 A 
ATOM     32  C   LIG    1       14.069   4.786  -0.420  0.00  0.00    -0.010 A 
ATOM     33  F   LIG    1       15.615   5.287   1.304  0.00  0.00    -0.130 F 
ATOM     34  C   LIG    1       12.766   4.645  -0.847  0.00  0.00    +0.130 A 
ENDBRANCH  25  28
ENDBRANCH  22  26
ENDBRANCH  20  22
ENDBRANCH   1  20
TORSDOF 7
