REMARK  Name = ZINCqH0000031E8s.0
REMARK                            x       y       z     vdW  Elec       q    Type
REMARK                         _______ _______ _______ _____ _____    ______ ____
ROOT
ATOM      1  N   LIG    1       -4.969   5.004   1.547  0.00  0.00    -0.750 N 
ATOM      2  H   LIG    1       -4.372   4.759   2.272  0.00  0.00    +0.400 HD
ENDROOT
BRANCH   1  11
ATOM      3  C   LIG    1      -11.269   9.653   1.734  0.00  0.00    +0.100 C 
ATOM      4  C   LIG    1      -10.002   8.875   1.486  0.00  0.00    +0.510 C 
ATOM      5  N   LIG    1       -9.340   8.319   2.520  0.00  0.00    -0.550 N 
ATOM      6  C   LIG    1       -9.759   8.580   3.903  0.00  0.00    +0.280 C 
ATOM      7  C   LIG    1       -8.499   8.870   4.729  0.00  0.00    +0.020 C 
ATOM      8  C   LIG    1       -7.615   7.623   4.735  0.00  0.00    +0.080 C 
ATOM      9  C   LIG    1       -7.386   7.131   3.330  0.00  0.00    -0.070 A 
ATOM     10  C   LIG    1       -6.302   6.308   3.079  0.00  0.00    -0.060 A 
ATOM     11  C   LIG    1       -6.066   5.834   1.796  0.00  0.00    +0.200 A 
ATOM     12  C   LIG    1       -6.918   6.189   0.758  0.00  0.00    -0.060 A 
ATOM     13  C   LIG    1       -8.002   7.005   1.008  0.00  0.00    +0.060 A 
ATOM     14  C   LIG    1       -8.236   7.481   2.293  0.00  0.00    +0.100 A 
ATOM     15  O   LIG    1       -9.580   8.748   0.356  0.00  0.00    -0.530 OA
ENDBRANCH   1  11
BRANCH   1  16
ATOM     16  C   LIG    1       -4.721   4.503   0.193  0.00  0.00    +0.310 C 
BRANCH  16  17
ATOM     17  C   LIG    1       -3.487   3.638   0.195  0.00  0.00    -0.110 A 
ATOM     18  C   LIG    1       -3.597   2.279   0.428  0.00  0.00    +0.070 A 
ATOM     19  C   LIG    1       -2.468   1.484   0.431  0.00  0.00    -0.010 A 
ATOM     20  C   LIG    1       -1.222   2.049   0.199  0.00  0.00    +0.140 A 
ATOM     21  C   LIG    1       -1.113   3.414  -0.029  0.00  0.00    +0.000 A 
ATOM     22  C   LIG    1       -2.247   4.204  -0.036  0.00  0.00    +0.070 A 
BRANCH  20  23
ATOM     23  N   LIG    1       -0.074   1.244   0.201  0.00  0.00    -0.410 N 
ATOM     24  C   LIG    1        1.214   1.660  -0.017  0.00  0.00    +0.130 A 
ATOM     25  C   LIG    1        1.997   0.568   0.070  0.00  0.00    +0.160 A 
ATOM     26  N   LIG    1        1.214  -0.489   0.333  0.00  0.00    -0.480 NA
ATOM     27  C   LIG    1       -0.028  -0.097   0.414  0.00  0.00    +0.400 A 
ENDBRANCH  20  23
ENDBRANCH  16  17
ENDBRANCH   1  16
TORSDOF 4
