REMARK  Name = ZINCnE000001D4z0.0
REMARK                            x       y       z     vdW  Elec       q    Type
REMARK                         _______ _______ _______ _____ _____    ______ ____
ROOT
ATOM      1  C   LIG    1        3.695  -0.684  -0.037  0.00  0.00    +0.050 A 
ATOM      2  C   LIG    1        4.929  -0.101  -0.052  0.00  0.00    -0.040 A 
ATOM      3  C   LIG    1        5.872  -1.134  -0.061  0.00  0.00    +0.040 A 
ATOM      4  C   LIG    1        5.165  -2.317  -0.061  0.00  0.00    -0.060 A 
ATOM      5  O   LIG    1        3.849  -2.018  -0.047  0.00  0.00    -0.150 OA
ENDROOT
BRANCH   1   9
ATOM      6  C   LIG    1       -0.017   1.379   0.010  0.00  0.00    -0.060 A 
ATOM      7  C   LIG    1        1.168   2.094   0.002  0.00  0.00    +0.010 A 
ATOM      8  C   LIG    1        2.377   1.430  -0.013  0.00  0.00    +0.040 A 
ATOM      9  C   LIG    1        2.404   0.034  -0.021  0.00  0.00    -0.030 A 
ATOM     10  C   LIG    1        1.204  -0.681  -0.013  0.00  0.00    +0.040 A 
ATOM     11  C   LIG    1        0.002  -0.004   0.002  0.00  0.00    +0.020 A 
BRANCH   6  13
ATOM     12  C   LIG    1       -2.124   1.722   1.271  0.00  0.00    +0.040 C 
ATOM     13  C   LIG    1       -1.334   2.112   0.020  0.00  0.00    -0.030 C 
ATOM     14  C   LIG    1       -2.136   1.736  -1.228  0.00  0.00    +0.040 C 
ATOM     15  C   LIG    1       -1.079   3.620   0.027  0.00  0.00    +0.030 C 
ENDBRANCH   6  13
ENDBRANCH   1   9
BRANCH   4  16
ATOM     16  C   LIG    1        5.742  -3.663  -0.075  0.00  0.00    +0.590 C 
ATOM     17  N   LIG    1        4.934  -4.742  -0.074  0.00  0.00    -0.710 N 
ATOM     18  H   LIG    1        3.971  -4.627  -0.064  0.00  0.00    +0.400 HD
ATOM     19  O   LIG    1        6.950  -3.808  -0.087  0.00  0.00    -0.520 OA
BRANCH  17  20
ATOM     20  C   LIG    1        5.511  -6.089  -0.087  0.00  0.00    +0.280 C 
BRANCH  20  21
ATOM     21  C   LIG    1        4.386  -7.126  -0.083  0.00  0.00    -0.080 C 
BRANCH  21  22
ATOM     22  C   LIG    1        4.979  -8.511  -0.096  0.00  0.00    +0.500 C 
ATOM     23  O   LIG    1        4.248  -9.487  -0.095  0.00  0.00    -0.700 OA
ATOM     24  O   LIG    1        6.189  -8.656  -0.108  0.00  0.00    -0.690 OA
ENDBRANCH  21  22
ENDBRANCH  20  21
ENDBRANCH  17  20
ENDBRANCH   4  16
TORSDOF 6
