REMARK  Name = ZINCqH0000007YGo.0
REMARK                            x       y       z     vdW  Elec       q    Type
REMARK                         _______ _______ _______ _____ _____    ______ ____
ROOT
ATOM      1  C   LIG    1       -3.066   3.084  -4.964  0.00  0.00    +0.130 A 
ATOM      2  C   LIG    1       -4.088   2.388  -5.490  0.00  0.00    -0.090 A 
ATOM      3  S   LIG    1       -4.553   3.150  -7.009  0.00  0.00    +0.110 S 
ATOM      4  C   LIG    1       -3.296   4.363  -6.789  0.00  0.00    +0.330 A 
ATOM      5  N   LIG    1       -2.668   4.137  -5.676  0.00  0.00    -0.520 NA
ENDROOT
BRANCH   1   9
ATOM      6  C   LIG    1       -1.241   2.012  -1.276  0.00  0.00    -0.660 A 
ATOM      7  C   LIG    1       -2.288   1.256  -1.773  0.00  0.00    +0.130 A 
ATOM      8  C   LIG    1       -2.887   1.602  -2.967  0.00  0.00    +0.010 A 
ATOM      9  C   LIG    1       -2.429   2.710  -3.677  0.00  0.00    +0.040 A 
ATOM     10  C   LIG    1       -1.371   3.466  -3.175  0.00  0.00    +0.030 A 
ATOM     11  C   LIG    1       -0.783   3.113  -1.977  0.00  0.00    +0.130 A 
BRANCH   6  13
ATOM     12  C   LIG    1       -1.429   2.475   1.506  0.00  0.00    -0.260 C 
ATOM     13  S   LIG    1       -0.484   1.567   0.251  0.00  0.00    +2.500 S 
ATOM     14  O   LIG    1        0.836   2.082   0.151  0.00  0.00    -0.940 OA
ATOM     15  O   LIG    1       -0.719   0.170   0.365  0.00  0.00    -0.940 OA
ENDBRANCH   6  13
ENDBRANCH   1   9
BRANCH   4  16
ATOM     16  N   LIG    1       -3.024   5.403  -7.664  0.00  0.00    -0.620 N 
ATOM     17  H   LIG    1       -2.379   6.085  -7.422  0.00  0.00    +0.430 HD
BRANCH  16  18
ATOM     18  C   LIG    1       -3.682   5.468  -8.898  0.00  0.00    +0.160 A 
ATOM     19  C   LIG    1       -4.033   6.700  -9.434  0.00  0.00    +0.010 A 
ATOM     20  C   LIG    1       -4.683   6.764 -10.652  0.00  0.00    +0.070 A 
ATOM     21  C   LIG    1       -4.985   5.601 -11.343  0.00  0.00    +0.040 A 
ATOM     22  O   LIG    1       -5.628   5.685 -12.541  0.00  0.00    -0.300 OA
ATOM     23  C   LIG    1       -5.583   4.525 -13.379  0.00  0.00    +0.230 C 
ATOM     24  C   LIG    1       -5.899   3.296 -12.515  0.00  0.00    +0.230 C 
ATOM     25  O   LIG    1       -4.917   3.214 -11.477  0.00  0.00    -0.300 OA
ATOM     26  C   LIG    1       -4.632   4.366 -10.810  0.00  0.00    +0.090 A 
ATOM     27  C   LIG    1       -3.978   4.301  -9.590  0.00  0.00    -0.020 A 
ENDBRANCH  16  18
ENDBRANCH   4  16
TORSDOF 4
