REMARK  Name = ZINCpe000000TWEn.0
REMARK                            x       y       z     vdW  Elec       q    Type
REMARK                         _______ _______ _______ _____ _____    ______ ____
ROOT
ATOM      1  N   LIG    1        3.425   1.734  -0.909  0.00  0.00    -0.720 N 
ATOM      2  H   LIG    1        3.316   2.682  -1.088  0.00  0.00    +0.400 HD
ATOM      3  C   LIG    1        4.436   1.052  -1.481  0.00  0.00    +0.500 C 
ATOM      4  O   LIG    1        4.572  -0.132  -1.257  0.00  0.00    -0.520 OA
ENDROOT
BRANCH   1   5
ATOM      5  C   LIG    1        2.490   1.046  -0.016  0.00  0.00    +0.290 C 
ATOM      6  C   LIG    1        3.070   1.008   1.399  0.00  0.00    +0.040 C 
BRANCH   5  10
ATOM      7  C   LIG    1       -1.237   3.144   0.030  0.00  0.00    +0.110 A 
ATOM      8  C   LIG    1       -0.043   3.847   0.023  0.00  0.00    -0.030 A 
ATOM      9  C   LIG    1        1.160   3.166   0.008  0.00  0.00    +0.020 A 
ATOM     10  C   LIG    1        1.175   1.784   0.000  0.00  0.00    -0.090 A 
ATOM     11  C   LIG    1       -0.013   1.076   0.008  0.00  0.00    -0.020 A 
ATOM     12  C   LIG    1       -1.222   1.752   0.017  0.00  0.00    +0.110 A 
BRANCH  12  13
ATOM     13  O   LIG    1       -2.391   1.058   0.019  0.00  0.00    -0.300 OA
ATOM     14  C   LIG    1       -2.298  -0.368   0.012  0.00  0.00    +0.240 C 
ENDBRANCH  12  13
BRANCH   7  15
ATOM     15  O   LIG    1       -2.421   3.812   0.044  0.00  0.00    -0.300 OA
BRANCH  15  17
ATOM     16  C   LIG    1       -3.780   5.811   0.066  0.00  0.00    +0.070 C 
ATOM     17  C   LIG    1       -2.360   5.240   0.050  0.00  0.00    +0.170 C 
ENDBRANCH  15  17
ENDBRANCH   7  15
ENDBRANCH   5  10
ENDBRANCH   1   5
BRANCH   3  18
ATOM     18  C   LIG    1        5.398   1.760  -2.400  0.00  0.00    +0.360 C 
BRANCH  18  19
ATOM     19  N   LIG    1        6.398   0.807  -2.889  0.00  0.00    -0.520 N 
ATOM     20  C   LIG    1        6.162   0.110  -4.043  0.00  0.00    +0.360 A 
ATOM     21  C   LIG    1        7.083  -0.768  -4.494  0.00  0.00    -0.120 A 
ATOM     22  C   LIG    1        8.280  -0.950  -3.759  0.00  0.00    +0.550 A 
ATOM     23  N   LIG    1        8.474  -0.244  -2.626  0.00  0.00    -0.660 N 
ATOM     24  H   LIG    1        9.291  -0.363  -2.117  0.00  0.00    +0.430 HD
ATOM     25  O   LIG    1        9.125  -1.736  -4.145  0.00  0.00    -0.510 OA
ATOM     26  C   LIG    1        7.541   0.629  -2.202  0.00  0.00    +0.700 A 
ATOM     27  O   LIG    1        7.732   1.261  -1.182  0.00  0.00    -0.540 OA
ENDBRANCH  18  19
ENDBRANCH   3  18
TORSDOF 7
