REMARK  Name = ZINCrH000004tiyM.0
REMARK                            x       y       z     vdW  Elec       q    Type
REMARK                         _______ _______ _______ _____ _____    ______ ____
ROOT
ATOM      1  N   LIG    1       -1.156  -0.694   0.009  0.00  0.00    -0.720 N 
ATOM      2  H   LIG    1       -2.002  -0.220   0.020  0.00  0.00    +0.410 HD
ATOM      3  C   LIG    1        0.002  -0.004   0.002  0.00  0.00    +0.560 C 
ATOM      4  O   LIG    1        1.063  -0.597  -0.011  0.00  0.00    -0.510 OA
ENDROOT
BRANCH   3   5
ATOM      5  C   LIG    1       -0.018   1.476   0.010  0.00  0.00    -0.120 A 
ATOM      6  C   LIG    1       -1.237   2.156   0.020  0.00  0.00    +0.040 A 
ATOM      7  C   LIG    1       -1.260   3.535   0.021  0.00  0.00    +0.050 A 
ATOM      8  C   LIG    1       -0.058   4.246   0.002  0.00  0.00    -0.120 A 
ATOM      9  C   LIG    1       -0.061   5.721  -0.059  0.00  0.00    +0.410 C 
ATOM     10  C   LIG    1        0.481   6.371  -1.317  0.00  0.00    +0.030 C 
ATOM     11  C   LIG    1        1.987   6.433  -1.264  0.00  0.00    +0.040 C 
ATOM     12  C   LIG    1        2.665   5.071  -1.263  0.00  0.00    +0.030 C 
ATOM     13  C   LIG    1        2.459   4.347   0.063  0.00  0.00    +0.080 C 
ATOM     14  O   LIG    1       -0.480   6.388   0.862  0.00  0.00    -0.430 OA
ATOM     15  C   LIG    1        1.159   3.566   0.010  0.00  0.00    -0.060 A 
ATOM     16  C   LIG    1        1.183   2.190   0.003  0.00  0.00    +0.080 A 
ENDBRANCH   3   5
BRANCH   1  17
ATOM     17  C   LIG    1       -1.136  -2.159   0.001  0.00  0.00    +0.290 C 
ATOM     18  C   LIG    1       -2.572  -2.695   0.012  0.00  0.00    +0.070 C 
ATOM     19  C   LIG    1       -2.527  -4.201  -0.238  0.00  0.00    +0.090 C 
ATOM     20  C   LIG    1       -1.554  -4.864   0.701  0.00  0.00    -0.080 A 
ATOM     21  C   LIG    1       -1.657  -6.238   0.874  0.00  0.00    +0.000 A 
ATOM     22  C   LIG    1       -0.792  -6.906   1.717  0.00  0.00    +0.000 A 
ATOM     23  C   LIG    1        0.186  -6.202   2.394  0.00  0.00    +0.000 A 
ATOM     24  C   LIG    1        0.290  -4.836   2.224  0.00  0.00    +0.010 A 
ATOM     25  C   LIG    1       -0.582  -4.162   1.379  0.00  0.00    -0.080 A 
ATOM     26  C   LIG    1       -0.421  -2.670   1.250  0.00  0.00    +0.110 C 
BRANCH  17  28
ATOM     27  N   LIG    1        0.103  -3.008  -2.131  0.00  0.00    -0.400 NA
ATOM     28  C   LIG    1       -0.437  -2.638  -1.202  0.00  0.00    +0.200 C 
ENDBRANCH  17  28
ENDBRANCH   1  17
TORSDOF 3
