REMARK  Name = ZINCtj00001UqOsC.1
REMARK                            x       y       z     vdW  Elec       q    Type
REMARK                         _______ _______ _______ _____ _____    ______ ____
ROOT
ATOM      1  C   LIG    1       -1.859   6.083  -2.196  0.00  0.00    +0.290 C 
ATOM      2  C   LIG    1       -1.546   5.416  -1.089  0.00  0.00    -0.240 C 
ENDROOT
BRANCH   2   3
ATOM      3  C   LIG    1       -1.526   3.946  -1.097  0.00  0.00    +0.550 C 
ATOM      4  N   LIG    1       -1.210   3.270   0.026  0.00  0.00    -0.520 N 
ATOM      5  H   LIG    1       -0.995   3.753   0.839  0.00  0.00    +0.410 HD
ATOM      6  O   LIG    1       -1.795   3.339  -2.116  0.00  0.00    -0.490 OA
BRANCH   4   7
ATOM      7  N   LIG    1       -1.191   1.869   0.018  0.00  0.00    -0.390 N 
ATOM      8  C   LIG    1       -0.014   1.211   0.009  0.00  0.00    +0.660 C 
ATOM      9  O   LIG    1        0.002  -0.004   0.002  0.00  0.00    -0.540 OA
ATOM     10  C   LIG    1       -2.449   1.119   0.020  0.00  0.00    +0.360 C 
BRANCH   8  11
ATOM     11  O   LIG    1        1.142   1.900   0.001  0.00  0.00    -0.360 OA
BRANCH  11  12
ATOM     12  C   LIG    1        2.371   1.126  -0.015  0.00  0.00    +0.310 C 
BRANCH  12  13
ATOM     13  C   LIG    1        3.553   2.060  -0.021  0.00  0.00    -0.110 A 
ATOM     14  C   LIG    1        4.088   2.490  -1.221  0.00  0.00    +0.040 A 
ATOM     15  C   LIG    1        5.169   3.351  -1.226  0.00  0.00    +0.010 A 
ATOM     16  C   LIG    1        5.723   3.773  -0.032  0.00  0.00    +0.030 A 
ATOM     17  C   LIG    1        5.192   3.338   1.168  0.00  0.00    +0.010 A 
ATOM     18  C   LIG    1        4.107   2.482   1.173  0.00  0.00    +0.030 A 
ENDBRANCH  12  13
ENDBRANCH  11  12
ENDBRANCH   8  11
ENDBRANCH   4   7
ENDBRANCH   2   3
BRANCH   2  19
ATOM     19  C   LIG    1       -1.213   6.168   0.174  0.00  0.00    +0.320 C 
BRANCH  19  20
ATOM     20  N   LIG    1       -2.418   6.287   1.006  0.00  0.00    -0.390 N 
ATOM     21  C   LIG    1       -3.408   7.223   0.388  0.00  0.00    +0.310 C 
ATOM     22  C   LIG    1       -3.455   8.316   1.512  0.00  0.00    -0.110 C 
ATOM     23  C   LIG    1       -1.952   8.475   1.863  0.00  0.00    +0.110 C 
ATOM     24  C   LIG    1       -3.454   7.551   2.871  0.00  0.00    +0.150 C 
ATOM     25  C   LIG    1       -2.117   6.997   2.295  0.00  0.00    +0.000 C 
ATOM     26  H   LIG    1       -2.830   5.382   1.177  0.00  0.00    +0.420 HD
BRANCH  22  27
ATOM     27  C   LIG    1       -4.353   9.540   1.318  0.00  0.00    +0.250 C 
BRANCH  27  28
ATOM     28  O   LIG    1       -5.679   9.112   1.004  0.00  0.00    -0.570 OA
ATOM     29  H   LIG    1       -6.305   9.837   0.867  0.00  0.00    +0.400 HD
ENDBRANCH  27  28
ENDBRANCH  22  27
BRANCH  25  30
ATOM     30  C   LIG    1       -1.094   6.357   3.235  0.00  0.00    +0.240 C 
BRANCH  30  31
ATOM     31  O   LIG    1       -0.942   7.170   4.400  0.00  0.00    -0.370 OA
ATOM     32  C   LIG    1       -0.003   6.659   5.348  0.00  0.00    +0.230 C 
ENDBRANCH  30  31
ENDBRANCH  25  30
ENDBRANCH  19  20
ENDBRANCH   2  19
TORSDOF 11
