REMARK  Name = ZINCtj00001UqOsC.0
REMARK                            x       y       z     vdW  Elec       q    Type
REMARK                         _______ _______ _______ _____ _____    ______ ____
ROOT
ATOM      1  C   LIG    1       -4.109   2.467   6.501  0.00  0.00    +0.280 C 
ATOM      2  C   LIG    1       -3.486   1.552   5.765  0.00  0.00    -0.250 C 
ENDROOT
BRANCH   2   3
ATOM      3  C   LIG    1       -4.044   1.149   4.465  0.00  0.00    +0.550 C 
ATOM      4  N   LIG    1       -3.470   0.150   3.765  0.00  0.00    -0.520 N 
ATOM      5  H   LIG    1       -2.647  -0.253   4.083  0.00  0.00    +0.410 HD
ATOM      6  O   LIG    1       -5.024   1.716   4.021  0.00  0.00    -0.490 OA
BRANCH   4   7
ATOM      7  N   LIG    1       -4.061  -0.305   2.580  0.00  0.00    -0.390 N 
ATOM      8  C   LIG    1       -3.527   0.029   1.388  0.00  0.00    +0.660 C 
ATOM      9  O   LIG    1       -4.040  -0.365   0.360  0.00  0.00    -0.530 OA
ATOM     10  C   LIG    1       -5.261  -1.144   2.635  0.00  0.00    +0.350 C 
BRANCH   8  11
ATOM     11  O   LIG    1       -2.424   0.801   1.338  0.00  0.00    -0.370 OA
BRANCH  11  12
ATOM     12  C   LIG    1       -1.904   1.121   0.021  0.00  0.00    +0.310 C 
BRANCH  12  13
ATOM     13  C   LIG    1       -0.677   1.986   0.162  0.00  0.00    -0.100 A 
ATOM     14  C   LIG    1        0.572   1.402   0.260  0.00  0.00    +0.020 A 
ATOM     15  C   LIG    1        1.697   2.196   0.384  0.00  0.00    +0.010 A 
ATOM     16  C   LIG    1        1.573   3.572   0.415  0.00  0.00    +0.030 A 
ATOM     17  C   LIG    1        0.323   4.155   0.322  0.00  0.00    +0.010 A 
ATOM     18  C   LIG    1       -0.803   3.362   0.198  0.00  0.00    +0.040 A 
ENDBRANCH  12  13
ENDBRANCH  11  12
ENDBRANCH   8  11
ENDBRANCH   4   7
ENDBRANCH   2   3
BRANCH   2  19
ATOM     19  C   LIG    1       -2.208   0.927   6.263  0.00  0.00    +0.320 C 
BRANCH  19  20
ATOM     20  N   LIG    1       -1.059   1.624   5.670  0.00  0.00    -0.390 N 
ATOM     21  C   LIG    1       -0.861   2.967   6.299  0.00  0.00    +0.300 C 
ATOM     22  C   LIG    1        0.567   2.751   6.907  0.00  0.00    -0.110 C 
ATOM     23  C   LIG    1        1.301   2.028   5.748  0.00  0.00    +0.120 C 
ATOM     24  C   LIG    1        0.580   1.310   7.505  0.00  0.00    +0.140 C 
ATOM     25  C   LIG    1        0.231   0.945   6.032  0.00  0.00    +0.000 C 
ATOM     26  H   LIG    1       -1.160   1.702   4.669  0.00  0.00    +0.430 HD
BRANCH  22  27
ATOM     27  C   LIG    1        1.232   3.903   7.664  0.00  0.00    +0.250 C 
BRANCH  27  28
ATOM     28  O   LIG    1        0.344   4.385   8.674  0.00  0.00    -0.570 OA
ATOM     29  H   LIG    1        0.701   5.118   9.194  0.00  0.00    +0.400 HD
ENDBRANCH  27  28
ENDBRANCH  22  27
BRANCH  25  30
ATOM     30  C   LIG    1        0.442  -0.487   5.536  0.00  0.00    +0.240 C 
BRANCH  30  31
ATOM     31  O   LIG    1        1.716  -0.961   5.976  0.00  0.00    -0.370 OA
ATOM     32  C   LIG    1        2.013  -2.297   5.564  0.00  0.00    +0.230 C 
ENDBRANCH  30  31
ENDBRANCH  25  30
ENDBRANCH  19  20
ENDBRANCH   2  19
TORSDOF 11
