REMARK  Name = ZINCrH000004nqPb.0
REMARK                            x       y       z     vdW  Elec       q    Type
REMARK                         _______ _______ _______ _____ _____    ______ ____
ROOT
ATOM      1  C   LIG    1        1.961  -1.794  -0.025  0.00  0.00    +0.120 C 
ENDROOT
BRANCH   1   2
ATOM      2  C   LIG    1        1.415  -0.390  -0.013  0.00  0.00    -0.170 A 
ATOM      3  C   LIG    1        2.132   0.746  -0.014  0.00  0.00    +0.240 A 
ATOM      4  N   LIG    1        1.293   1.827  -0.001  0.00  0.00    -0.590 N 
ATOM      5  H   LIG    1        1.579   2.754   0.002  0.00  0.00    +0.420 HD
ATOM      6  C   LIG    1       -0.017   1.403   0.010  0.00  0.00    +0.100 A 
ATOM      7  C   LIG    1       -1.238   2.068   0.030  0.00  0.00    -0.010 A 
ATOM      8  C   LIG    1       -2.411   1.344   0.032  0.00  0.00    +0.030 A 
ATOM      9  C   LIG    1       -2.387  -0.043   0.025  0.00  0.00    -0.020 A 
ATOM     10  C   LIG    1       -1.198  -0.717   0.010  0.00  0.00    +0.040 A 
ATOM     11  C   LIG    1        0.002  -0.004   0.002  0.00  0.00    -0.100 A 
ENDBRANCH   1   2
BRANCH   1  16
ATOM     12  C   LIG    1        3.216  -3.167  -3.322  0.00  0.00    +0.110 A 
ATOM     13  C   LIG    1        4.328  -2.370  -3.543  0.00  0.00    -0.070 A 
ATOM     14  C   LIG    1        4.670  -1.392  -2.627  0.00  0.00    +0.050 A 
ATOM     15  C   LIG    1        3.904  -1.207  -1.491  0.00  0.00    -0.010 A 
ATOM     16  C   LIG    1        2.793  -1.999  -1.265  0.00  0.00    -0.050 A 
ATOM     17  C   LIG    1        2.449  -2.985  -2.175  0.00  0.00    +0.070 A 
BRANCH  12  19
ATOM     18  C   LIG    1        3.715  -4.263  -5.373  0.00  0.00    +0.240 C 
ATOM     19  O   LIG    1        2.879  -4.129  -4.222  0.00  0.00    -0.310 OA
ENDBRANCH  12  19
BRANCH  17  20
ATOM     20  O   LIG    1        1.360  -3.768  -1.952  0.00  0.00    -0.320 OA
ATOM     21  C   LIG    1        0.112  -3.308  -2.473  0.00  0.00    +0.220 C 
ENDBRANCH  17  20
ENDBRANCH   1  16
BRANCH   1  22
ATOM     22  C   LIG    1        2.830  -2.014   1.214  0.00  0.00    +0.290 C 
BRANCH  22  23
ATOM     23  N   LIG    1        1.996  -1.933   2.416  0.00  0.00    -0.720 N 
ATOM     24  H   LIG    1        1.045  -1.761   2.335  0.00  0.00    +0.400 HD
ATOM     25  C   LIG    1        2.551  -2.096   3.634  0.00  0.00    +0.530 C 
ATOM     26  O   LIG    1        3.740  -2.310   3.734  0.00  0.00    -0.520 OA
BRANCH  25  27
ATOM     27  C   LIG    1        1.693  -2.012   4.870  0.00  0.00    +0.090 C 
BRANCH  27  28
ATOM     28  S   LIG    1        2.724  -2.273   6.340  0.00  0.00    -0.180 S 
ATOM     29  C   LIG    1        1.533  -2.138   7.702  0.00  0.00    +0.130 C 
ENDBRANCH  27  28
ENDBRANCH  25  27
ENDBRANCH  22  23
ENDBRANCH   1  22
TORSDOF 8
