REMARK  Name = ZINCwJ00000004np.1
REMARK                            x       y       z     vdW  Elec       q    Type
REMARK                         _______ _______ _______ _____ _____    ______ ____
ROOT
ATOM      1  N   LIG    1       -2.509   1.453  -0.222  0.00  0.00    -0.750 N 
ATOM      2  H   LIG    1       -2.481   0.488  -0.133  0.00  0.00    +0.400 HD
ATOM      3  C   LIG    1       -1.365   2.166  -0.202  0.00  0.00    +0.700 C 
ATOM      4  N   LIG    1       -0.177   1.531  -0.163  0.00  0.00    -0.630 N 
ATOM      5  C   LIG    1        1.061   2.332  -0.250  0.00  0.00    +0.310 C 
ATOM      6  C   LIG    1        2.123   1.820   0.740  0.00  0.00    +0.060 C 
ATOM      7  C   LIG    1        1.455   1.442   2.043  0.00  0.00    +0.260 C 
ATOM      8  N   LIG    1        1.132   0.017   2.024  0.00  0.00    -0.370 N 
ATOM      9  C   LIG    1       -0.126  -0.301   1.465  0.00  0.00    +0.220 C 
ATOM     10  H   LIG    1        1.844  -0.464   1.496  0.00  0.00    +0.420 HD
ATOM     11  C   LIG    1       -0.159   0.089  -0.032  0.00  0.00    +0.320 C 
ATOM     12  O   LIG    1       -1.405   3.381  -0.220  0.00  0.00    -0.560 OA
ENDROOT
BRANCH   1  13
ATOM     13  C   LIG    1       -3.795   2.137  -0.378  0.00  0.00    +0.330 C 
BRANCH  13  19
ATOM     14  C   LIG    1       -5.340   0.580   0.829  0.00  0.00    -0.150 A 
ATOM     15  C   LIG    1       -6.364  -0.348   0.838  0.00  0.00    +0.050 A 
ATOM     16  C   LIG    1       -6.950  -0.742  -0.350  0.00  0.00    +0.040 A 
ATOM     17  C   LIG    1       -6.516  -0.205  -1.547  0.00  0.00    +0.060 A 
ATOM     18  C   LIG    1       -5.494   0.727  -1.556  0.00  0.00    +0.050 A 
ATOM     19  C   LIG    1       -4.908   1.121  -0.368  0.00  0.00    -0.100 A 
BRANCH  14  20
ATOM     20  C   LIG    1       -4.697   1.006   2.123  0.00  0.00    +0.310 C 
BRANCH  20  21
ATOM     21  N   LIG    1       -5.258   2.295   2.548  0.00  0.00    -0.390 N 
ATOM     22  H   LIG    1       -5.147   2.971   1.807  0.00  0.00    +0.420 HD
BRANCH  21  24
ATOM     23  C   LIG    1       -7.299   3.495   3.174  0.00  0.00    +0.080 C 
ATOM     24  C   LIG    1       -6.686   2.131   2.852  0.00  0.00    +0.240 C 
ENDBRANCH  21  24
BRANCH  21  25
ATOM     25  C   LIG    1       -4.553   2.764   3.748  0.00  0.00    +0.250 C 
ATOM     26  C   LIG    1       -3.096   3.072   3.396  0.00  0.00    +0.080 C 
ENDBRANCH  21  25
ENDBRANCH  20  21
ENDBRANCH  14  20
ENDBRANCH  13  19
ENDBRANCH   1  13
BRANCH   8  27
ATOM     27  C   LIG    1        1.165  -0.484   3.405  0.00  0.00    +0.310 C 
BRANCH  27  28
ATOM     28  C   LIG    1        0.956  -1.976   3.402  0.00  0.00    -0.210 A 
ATOM     29  C   LIG    1       -0.323  -2.494   3.495  0.00  0.00    +0.070 A 
ATOM     30  C   LIG    1       -0.518  -3.862   3.488  0.00  0.00    -0.070 A 
ATOM     31  C   LIG    1        0.571  -4.716   3.398  0.00  0.00    +0.170 A 
ATOM     32  C   LIG    1        1.854  -4.194   3.311  0.00  0.00    +0.000 A 
ATOM     33  C   LIG    1        2.043  -2.826   3.313  0.00  0.00    +0.090 A 
BRANCH  31  34
ATOM     34  O   LIG    1        0.383  -6.062   3.396  0.00  0.00    -0.300 OA
ATOM     35  C   LIG    1       -0.965  -6.528   3.489  0.00  0.00    +0.250 C 
ENDBRANCH  31  34
ENDBRANCH  27  28
ENDBRANCH   8  27
TORSDOF 9
