REMARK  Name = ZINCwJ00000004np.0
REMARK                            x       y       z     vdW  Elec       q    Type
REMARK                         _______ _______ _______ _____ _____    ______ ____
ROOT
ATOM      1  N   LIG    1        1.623   1.879   1.817  0.00  0.00    -0.750 N 
ATOM      2  H   LIG    1        2.132   1.629   1.030  0.00  0.00    +0.400 HD
ATOM      3  C   LIG    1        0.278   1.934   1.760  0.00  0.00    +0.700 C 
ATOM      4  N   LIG    1       -0.365   1.546   0.642  0.00  0.00    -0.630 N 
ATOM      5  C   LIG    1       -1.842   1.506   0.647  0.00  0.00    +0.320 C 
ATOM      6  C   LIG    1       -2.364   0.251  -0.076  0.00  0.00    +0.060 C 
ATOM      7  C   LIG    1       -1.489  -0.932   0.275  0.00  0.00    +0.260 C 
ATOM      8  N   LIG    1       -0.445  -1.077  -0.737  0.00  0.00    -0.360 N 
ATOM      9  C   LIG    1        0.729  -0.331  -0.491  0.00  0.00    +0.220 C 
ATOM     10  H   LIG    1       -0.823  -0.792  -1.627  0.00  0.00    +0.420 HD
ATOM     11  C   LIG    1        0.417   1.184  -0.521  0.00  0.00    +0.310 C 
ATOM     12  O   LIG    1       -0.355   2.333   2.718  0.00  0.00    -0.560 OA
ENDROOT
BRANCH   1  13
ATOM     13  C   LIG    1        2.317   2.197   3.068  0.00  0.00    +0.330 C 
BRANCH  13  19
ATOM     14  C   LIG    1        4.514   3.078   2.254  0.00  0.00    -0.140 A 
ATOM     15  C   LIG    1        5.878   2.954   2.069  0.00  0.00    +0.050 A 
ATOM     16  C   LIG    1        6.533   1.813   2.495  0.00  0.00    +0.040 A 
ATOM     17  C   LIG    1        5.823   0.797   3.107  0.00  0.00    +0.060 A 
ATOM     18  C   LIG    1        4.460   0.923   3.297  0.00  0.00    +0.050 A 
ATOM     19  C   LIG    1        3.804   2.061   2.866  0.00  0.00    -0.100 A 
BRANCH  14  20
ATOM     20  C   LIG    1        3.801   4.321   1.789  0.00  0.00    +0.300 C 
BRANCH  20  21
ATOM     21  N   LIG    1        3.579   5.215   2.934  0.00  0.00    -0.380 N 
ATOM     22  H   LIG    1        3.087   4.716   3.659  0.00  0.00    +0.420 HD
BRANCH  21  24
ATOM     23  C   LIG    1        5.566   6.539   2.391  0.00  0.00    +0.080 C 
ATOM     24  C   LIG    1        4.873   5.680   3.450  0.00  0.00    +0.240 C 
ENDBRANCH  21  24
BRANCH  21  25
ATOM     25  C   LIG    1        2.780   6.370   2.505  0.00  0.00    +0.250 C 
ATOM     26  C   LIG    1        2.437   7.233   3.721  0.00  0.00    +0.080 C 
ENDBRANCH  21  25
ENDBRANCH  20  21
ENDBRANCH  14  20
ENDBRANCH  13  19
ENDBRANCH   1  13
BRANCH   8  27
ATOM     27  C   LIG    1       -0.078  -2.497  -0.824  0.00  0.00    +0.310 C 
BRANCH  27  28
ATOM     28  C   LIG    1        0.909  -2.692  -1.945  0.00  0.00    -0.210 A 
ATOM     29  C   LIG    1        0.458  -2.974  -3.221  0.00  0.00    +0.100 A 
ATOM     30  C   LIG    1        1.361  -3.148  -4.252  0.00  0.00    -0.070 A 
ATOM     31  C   LIG    1        2.722  -3.051  -4.004  0.00  0.00    +0.170 A 
ATOM     32  C   LIG    1        3.173  -2.773  -2.722  0.00  0.00    -0.010 A 
ATOM     33  C   LIG    1        2.266  -2.595  -1.696  0.00  0.00    +0.070 A 
BRANCH  31  34
ATOM     34  O   LIG    1        3.612  -3.227  -5.016  0.00  0.00    -0.310 OA
ATOM     35  C   LIG    1        3.076  -3.510  -6.310  0.00  0.00    +0.260 C 
ENDBRANCH  31  34
ENDBRANCH  27  28
ENDBRANCH   8  27
TORSDOF 9
