REMARK  Name = ZINCpe000000Y1HV.0
REMARK                            x       y       z     vdW  Elec       q    Type
REMARK                         _______ _______ _______ _____ _____    ______ ____
ROOT
ATOM      1  C   LIG    1       -2.659   1.623   2.485  0.00  0.00    +0.560 C 
ATOM      2  N   LIG    1       -2.046   1.557   1.286  0.00  0.00    -0.580 N 
ATOM      3  C   LIG    1       -2.844   1.722   0.069  0.00  0.00    +0.260 C 
ATOM      4  C   LIG    1       -2.497   0.567  -0.877  0.00  0.00    +0.040 C 
ATOM      5  C   LIG    1       -0.999   0.599  -1.181  0.00  0.00    -0.020 C 
ATOM      6  C   LIG    1       -0.161   0.447   0.075  0.00  0.00    +0.010 C 
ATOM      7  C   LIG    1        1.253   1.019  -0.204  0.00  0.00    +0.270 C 
ATOM      8  N   LIG    1        1.198   2.414   0.253  0.00  0.00    -0.730 N 
ATOM      9  H   LIG    1        1.836   3.099  -0.001  0.00  0.00    +0.410 HD
ATOM     10  C   LIG    1        0.148   2.618   1.072  0.00  0.00    +0.510 C 
ATOM     11  O   LIG    1       -0.138   3.674   1.594  0.00  0.00    -0.510 OA
ATOM     12  C   LIG    1       -0.651  -0.534  -2.149  0.00  0.00    +0.030 C 
ATOM     13  C   LIG    1       -0.618   1.327   1.240  0.00  0.00    +0.250 C 
ATOM     14  O   LIG    1       -2.036   1.384   3.500  0.00  0.00    -0.510 OA
ENDROOT
BRANCH   1  22
ATOM     15  C   LIG    1       -8.341   5.754   0.310  0.00  0.00    +0.190 C 
ATOM     16  C   LIG    1       -7.793   4.648   1.174  0.00  0.00    +0.450 A 
ATOM     17  N   LIG    1       -8.612   4.031   1.981  0.00  0.00    -0.600 NA
ATOM     18  C   LIG    1       -8.198   3.033   2.784  0.00  0.00    +0.530 A 
ATOM     19  C   LIG    1       -6.776   2.644   2.732  0.00  0.00    -0.190 A 
ATOM     20  C   LIG    1       -6.261   1.623   3.527  0.00  0.00    +0.120 A 
ATOM     21  C   LIG    1       -4.936   1.299   3.443  0.00  0.00    +0.050 A 
ATOM     22  C   LIG    1       -4.093   1.986   2.564  0.00  0.00    -0.060 A 
ATOM     23  C   LIG    1       -4.591   3.013   1.768  0.00  0.00    +0.020 A 
ATOM     24  C   LIG    1       -5.937   3.342   1.844  0.00  0.00    +0.170 A 
ATOM     25  O   LIG    1       -8.976   2.467   3.532  0.00  0.00    -0.470 OA
ATOM     26  N   LIG    1       -6.487   4.348   1.074  0.00  0.00    -0.620 N 
ATOM     27  H   LIG    1       -5.926   4.842   0.455  0.00  0.00    +0.420 HD
ENDBRANCH   1  22
TORSDOF 1
