REMARK  Name = ZINCrD00000F5Loo.0
REMARK                            x       y       z     vdW  Elec       q    Type
REMARK                         _______ _______ _______ _____ _____    ______ ____
ROOT
ATOM      1  N   LIG    1       -2.132   2.144   1.733  0.00  0.00    -0.980 NA
ENDROOT
BRANCH   1   2
ATOM      2  S   LIG    1       -1.561   2.190   0.179  0.00  0.00    +2.670 S 
ATOM      3  O   LIG    1       -0.400   3.010   0.202  0.00  0.00    -0.960 OA
ATOM      4  O   LIG    1       -1.555   0.847  -0.286  0.00  0.00    -0.940 OA
BRANCH   2   5
ATOM      5  C   LIG    1       -2.756   3.047  -0.791  0.00  0.00    -0.700 C 
ATOM      6  C   LIG    1       -3.567   2.344  -1.516  0.00  0.00    +0.130 C 
ATOM      7  C   LIG    1       -4.624   2.931  -2.404  0.00  0.00    +0.070 C 
ATOM      8  C   LIG    1       -4.888   4.388  -2.018  0.00  0.00    +0.020 C 
ATOM      9  C   LIG    1       -3.542   5.116  -1.921  0.00  0.00    +0.020 C 
ATOM     10  C   LIG    1       -2.768   4.546  -0.731  0.00  0.00    +0.110 C 
ENDBRANCH   2   5
ENDBRANCH   1   2
BRANCH   1  11
ATOM     11  C   LIG    1       -1.814   3.231   2.662  0.00  0.00    +0.320 C 
BRANCH  11  12
ATOM     12  C   LIG    1       -3.058   4.094   2.882  0.00  0.00    +0.130 C 
ATOM     13  C   LIG    1       -2.689   5.316   3.725  0.00  0.00    +0.020 C 
BRANCH  12  15
ATOM     14  C   LIG    1       -5.395   3.708   3.250  0.00  0.00    +0.200 C 
ATOM     15  O   LIG    1       -4.054   3.329   3.564  0.00  0.00    -0.380 OA
ENDBRANCH  12  15
ENDBRANCH  11  12
ENDBRANCH   1  11
BRANCH   1  16
ATOM     16  C   LIG    1       -2.955   1.017   2.178  0.00  0.00    +0.410 C 
BRANCH  16  17
ATOM     17  C   LIG    1       -2.083   0.002   2.871  0.00  0.00    +0.050 A 
ATOM     18  N   LIG    1       -1.415  -0.958   2.283  0.00  0.00    -0.250 NA
ATOM     19  N   LIG    1       -0.724  -1.689   3.257  0.00  0.00    -0.360 N 
ATOM     20  C   LIG    1       -1.008  -1.136   4.472  0.00  0.00    +0.140 A 
ATOM     21  C   LIG    1        0.145  -2.844   3.016  0.00  0.00    +0.360 C 
ATOM     22  C   LIG    1       -1.860  -0.075   4.245  0.00  0.00    -0.060 A 
BRANCH  20  23
ATOM     23  C   LIG    1       -0.502  -1.588   5.780  0.00  0.00    +0.030 A 
ATOM     24  C   LIG    1       -0.862  -1.086   6.993  0.00  0.00    +0.000 A 
ATOM     25  C   LIG    1       -0.140  -1.810   7.962  0.00  0.00    -0.050 A 
ATOM     26  C   LIG    1        0.624  -2.702   7.301  0.00  0.00    +0.180 A 
ATOM     27  O   LIG    1        0.403  -2.565   5.983  0.00  0.00    -0.180 OA
ENDBRANCH  20  23
ENDBRANCH  16  17
ENDBRANCH   1  16
TORSDOF 8
