REMARK  Name = ZINCpk00000KfLka.0
REMARK                            x       y       z     vdW  Elec       q    Type
REMARK                         _______ _______ _______ _____ _____    ______ ____
ROOT
ATOM      1  C   LIG    1        0.447  -1.768   0.281  0.00  0.00    +0.100 C 
ATOM      2  C   LIG    1       -1.005  -1.296   0.391  0.00  0.00    +0.180 C 
ATOM      3  O   LIG    1       -1.074  -0.168   1.268  0.00  0.00    -0.280 OA
ATOM      4  C   LIG    1       -2.227   0.544   1.257  0.00  0.00    +0.140 A 
ATOM      5  C   LIG    1       -2.953   0.659   0.072  0.00  0.00    +0.090 A 
ATOM      6  N   LIG    1       -2.472   0.036  -1.089  0.00  0.00    -0.660 N 
ATOM      7  H   LIG    1       -2.823   0.278  -1.960  0.00  0.00    +0.420 HD
ATOM      8  C   LIG    1       -4.133   1.383   0.049  0.00  0.00    +0.040 A 
ATOM      9  C   LIG    1       -4.597   1.995   1.202  0.00  0.00    +0.030 A 
ATOM     10  C   LIG    1       -3.890   1.890   2.380  0.00  0.00    +0.070 A 
ATOM     11  C   LIG    1       -2.696   1.163   2.420  0.00  0.00    -0.130 A 
ATOM     12  C   LIG    1       -1.511  -0.907  -0.974  0.00  0.00    +0.490 C 
ATOM     13  O   LIG    1       -1.059  -1.439  -1.966  0.00  0.00    -0.500 OA
ENDROOT
BRANCH  11  14
ATOM     14  C   LIG    1       -1.937   1.049   3.679  0.00  0.00    +0.570 C 
ATOM     15  N   LIG    1       -2.590   0.912   4.850  0.00  0.00    -0.610 N 
ATOM     16  C   LIG    1       -4.052   0.763   4.879  0.00  0.00    +0.280 C 
ATOM     17  C   LIG    1       -4.404  -0.497   5.676  0.00  0.00    +0.030 C 
ATOM     18  C   LIG    1       -3.752  -0.420   7.058  0.00  0.00    +0.030 C 
ATOM     19  C   LIG    1       -2.231  -0.355   6.905  0.00  0.00    +0.260 C 
ATOM     20  C   LIG    1       -1.854   0.901   6.122  0.00  0.00    +0.300 C 
ATOM     21  O   LIG    1       -0.721   1.080   3.661  0.00  0.00    -0.510 OA
BRANCH  19  22
ATOM     22  N   LIG    1       -1.607  -0.313   8.230  0.00  0.00    -0.370 N 
ATOM     23  C   LIG    1       -1.391   0.779   8.984  0.00  0.00    +0.470 A 
ATOM     24  N   LIG    1       -0.816   0.397  10.095  0.00  0.00    -0.540 NA
ATOM     25  C   LIG    1       -0.642  -0.924  10.083  0.00  0.00    +0.420 A 
ATOM     26  N   LIG    1       -1.111  -1.404   8.961  0.00  0.00    -0.320 NA
ENDBRANCH  19  22
ENDBRANCH  11  14
TORSDOF 2
