REMARK  Name = ZINCvU0000000IU6.0
REMARK                            x       y       z     vdW  Elec       q    Type
REMARK                         _______ _______ _______ _____ _____    ______ ____
ROOT
ATOM      1  C   LIG    1        1.075   5.199  -0.657  0.00  0.00    +0.160 A 
ATOM      2  N   LIG    1        0.053   5.970  -0.949  0.00  0.00    -0.280 NA
ATOM      3  N   LIG    1       -0.984   5.599  -0.287  0.00  0.00    -0.260 NA
ATOM      4  C   LIG    1       -0.690   4.562   0.465  0.00  0.00    +0.270 A 
ATOM      5  N   LIG    1        0.639   4.271   0.247  0.00  0.00    -0.460 N 
ENDROOT
BRANCH   4   6
ATOM      6  C   LIG    1       -1.605   3.847   1.369  0.00  0.00    -0.140 A 
ATOM      7  C   LIG    1       -2.803   4.308   1.790  0.00  0.00    +0.070 A 
ATOM      8  C   LIG    1       -3.484   3.455   2.632  0.00  0.00    +0.000 A 
ATOM      9  C   LIG    1       -2.853   2.310   2.910  0.00  0.00    -0.060 A 
ATOM     10  S   LIG    1       -1.307   2.264   2.074  0.00  0.00    +0.190 S 
ENDBRANCH   4   6
BRANCH   1  11
ATOM     11  S   LIG    1        2.705   5.332  -1.314  0.00  0.00    +0.020 S 
BRANCH  11  12
ATOM     12  C   LIG    1        2.488   6.758  -2.407  0.00  0.00    +0.210 C 
BRANCH  12  15
ATOM     13  C   LIG    1        5.267   6.861  -4.757  0.00  0.00    +0.120 A 
ATOM     14  N   LIG    1        4.116   6.527  -4.249  0.00  0.00    -0.450 NA
ATOM     15  C   LIG    1        3.792   7.066  -3.097  0.00  0.00    +0.070 A 
ATOM     16  C   LIG    1        4.689   7.909  -2.575  0.00  0.00    -0.030 A 
ATOM     17  S   LIG    1        6.067   7.995  -3.671  0.00  0.00    +0.120 S 
BRANCH  13  22
ATOM     18  C   LIG    1        7.573   6.337  -7.680  0.00  0.00    +0.130 A 
ATOM     19  C   LIG    1        6.838   5.441  -8.443  0.00  0.00    -0.060 A 
ATOM     20  C   LIG    1        5.598   5.010  -8.009  0.00  0.00    +0.050 A 
ATOM     21  C   LIG    1        5.086   5.464  -6.811  0.00  0.00    +0.030 A 
ATOM     22  C   LIG    1        5.816   6.369  -6.039  0.00  0.00    +0.010 A 
ATOM     23  C   LIG    1        7.066   6.803  -6.478  0.00  0.00    +0.000 A 
BRANCH  18  25
ATOM     24  C   LIG    1        9.253   6.237  -9.359  0.00  0.00    +0.250 C 
ATOM     25  O   LIG    1        8.792   6.758  -8.111  0.00  0.00    -0.320 OA
ENDBRANCH  18  25
ENDBRANCH  13  22
ENDBRANCH  12  15
ENDBRANCH  11  12
ENDBRANCH   1  11
BRANCH   5  26
ATOM     26  C   LIG    1        1.423   3.197   0.862  0.00  0.00    +0.330 C 
BRANCH  26  27
ATOM     27  C   LIG    1        1.326   1.937  -0.000  0.00  0.00    +0.150 C 
ATOM     28  C   LIG    1        2.192   0.804   0.604  0.00  0.00    +0.030 C 
ATOM     29  C   LIG    1        1.480  -0.451   0.029  0.00  0.00    +0.020 C 
ATOM     30  C   LIG    1        0.002  -0.004   0.002  0.00  0.00    +0.190 C 
ATOM     31  O   LIG    1       -0.017   1.428   0.010  0.00  0.00    -0.360 OA
ENDBRANCH  26  27
ENDBRANCH   5  26
TORSDOF 8
