REMARK  Name = ZINCvU000000057c.0
REMARK                            x       y       z     vdW  Elec       q    Type
REMARK                         _______ _______ _______ _____ _____    ______ ____
ROOT
ATOM      1  N   LIG    1       -0.012  -0.005   0.002  0.00  0.00    -0.400 N 
ATOM      2  C   LIG    1        0.010  -0.837   1.086  0.00  0.00    +0.160 A 
ATOM      3  N   LIG    1        0.013  -2.071   0.630  0.00  0.00    -0.290 NA
ATOM      4  N   LIG    1       -0.006  -2.067  -0.655  0.00  0.00    -0.250 NA
ATOM      5  C   LIG    1       -0.027  -0.832  -1.100  0.00  0.00    +0.230 A 
ENDROOT
BRANCH   1  12
ATOM      6  C   LIG    1       -2.531   1.321   0.034  0.00  0.00    +0.100 C 
ATOM      7  C   LIG    1       -1.231   2.083   0.025  0.00  0.00    -0.060 A 
ATOM      8  C   LIG    1       -1.239   3.464   0.037  0.00  0.00    +0.030 A 
ATOM      9  C   LIG    1       -0.046   4.163   0.024  0.00  0.00    +0.050 A 
ATOM     10  C   LIG    1        1.158   3.483   0.003  0.00  0.00    +0.030 A 
ATOM     11  C   LIG    1        1.172   2.102  -0.004  0.00  0.00    +0.040 A 
ATOM     12  C   LIG    1       -0.024   1.397   0.009  0.00  0.00    +0.090 A 
ENDBRANCH   1  12
BRANCH   5  13
ATOM     13  C   LIG    1       -0.058  -0.410  -2.515  0.00  0.00    +0.030 A 
ATOM     14  C   LIG    1       -0.391   0.904  -2.867  0.00  0.00    -0.020 A 
ATOM     15  C   LIG    1       -0.402   1.257  -4.200  0.00  0.00    +0.270 A 
ATOM     16  N   LIG    1       -0.114   0.373  -5.138  0.00  0.00    -0.470 NA
ATOM     17  C   LIG    1        0.200  -0.876  -4.850  0.00  0.00    +0.280 A 
ATOM     18  C   LIG    1        0.240  -1.313  -3.543  0.00  0.00    +0.020 A 
ENDBRANCH   5  13
BRANCH   2  19
ATOM     19  S   LIG    1        0.031  -0.348   2.779  0.00  0.00    +0.110 S 
BRANCH  19  20
ATOM     20  C   LIG    1        0.055  -1.973   3.575  0.00  0.00    +0.110 C 
BRANCH  20  21
ATOM     21  C   LIG    1        0.076  -1.799   5.072  0.00  0.00    +0.540 C 
ATOM     22  N   LIG    1        0.096  -2.880   5.876  0.00  0.00    -0.660 N 
ATOM     23  H   LIG    1        0.029  -3.770   5.495  0.00  0.00    +0.420 HD
ATOM     24  O   LIG    1        0.075  -0.685   5.553  0.00  0.00    -0.500 OA
BRANCH  22  25
ATOM     25  C   LIG    1        0.213  -2.720   7.262  0.00  0.00    +0.150 A 
ATOM     26  C   LIG    1       -0.387  -1.636   7.890  0.00  0.00    +0.070 A 
ATOM     27  C   LIG    1       -0.271  -1.480   9.258  0.00  0.00    +0.030 A 
ATOM     28  C   LIG    1        0.443  -2.402  10.003  0.00  0.00    +0.100 A 
ATOM     29  C   LIG    1        1.042  -3.485   9.379  0.00  0.00    -0.060 A 
ATOM     30 CL   LIG    1        1.936  -4.641  10.316  0.00  0.00    -0.040 Cl
ATOM     31  F   LIG    1        0.556  -2.246  11.340  0.00  0.00    -0.120 F 
ATOM     32  C   LIG    1        0.923  -3.648   8.012  0.00  0.00    +0.040 A 
ENDBRANCH  22  25
ENDBRANCH  20  21
ENDBRANCH  19  20
ENDBRANCH   2  19
TORSDOF 6
