REMARK  Name = ZINCqH0000036xFo.0
REMARK                            x       y       z     vdW  Elec       q    Type
REMARK                         _______ _______ _______ _____ _____    ______ ____
ROOT
ATOM      1  N   LIG    1       -0.053   5.370   0.230  0.00  0.00    -0.560 N 
ATOM      2  C   LIG    1       -1.314   6.118   0.188  0.00  0.00    +0.310 C 
ATOM      3  C   LIG    1       -0.957   7.495  -0.413  0.00  0.00    +0.000 C 
ATOM      4  C   LIG    1        0.540   7.621  -0.046  0.00  0.00    +0.100 C 
ATOM      5  C   LIG    1        1.006   6.190   0.111  0.00  0.00    +0.520 C 
ATOM      6  O   LIG    1        2.165   5.835   0.126  0.00  0.00    -0.500 OA
ENDROOT
BRANCH   3   7
ATOM      7  C   LIG    1       -1.764   8.592   0.234  0.00  0.00    +0.540 C 
ATOM      8  N   LIG    1       -1.515   9.881  -0.070  0.00  0.00    -0.550 N 
ATOM      9  C   LIG    1       -2.128  10.981   0.538  0.00  0.00    +0.140 A 
ATOM     10  C   LIG    1       -3.089  11.011   1.550  0.00  0.00    +0.010 A 
ATOM     11  C   LIG    1       -3.570  12.216   2.017  0.00  0.00    +0.040 A 
ATOM     12  C   LIG    1       -3.104  13.404   1.485  0.00  0.00    -0.010 A 
ATOM     13  C   LIG    1       -2.145  13.382   0.489  0.00  0.00    +0.050 A 
ATOM     14  C   LIG    1       -1.663  12.177   0.015  0.00  0.00    -0.130 A 
ATOM     15  C   LIG    1       -0.644  11.870  -1.058  0.00  0.00    +0.110 C 
ATOM     16  C   LIG    1       -0.568  10.335  -1.092  0.00  0.00    +0.220 C 
ATOM     17  C   LIG    1       -0.980   9.811  -2.469  0.00  0.00    +0.050 C 
ATOM     18  O   LIG    1       -2.638   8.314   1.028  0.00  0.00    -0.510 OA
ENDBRANCH   3   7
BRANCH   1  23
ATOM     19  C   LIG    1        1.355   1.974   0.434  0.00  0.00    -0.060 A 
ATOM     20  C   LIG    1        0.205   1.230   0.675  0.00  0.00    -0.030 A 
ATOM     21  C   LIG    1       -1.021   1.860   0.762  0.00  0.00    +0.060 A 
ATOM     22  C   LIG    1       -1.108   3.232   0.620  0.00  0.00    -0.030 A 
ATOM     23  C   LIG    1        0.037   3.981   0.379  0.00  0.00    +0.180 A 
ATOM     24  C   LIG    1        1.270   3.352   0.286  0.00  0.00    +0.020 A 
BRANCH  19  26
ATOM     25  C   LIG    1        2.498  -0.577   0.575  0.00  0.00    +0.140 C 
ATOM     26  S   LIG    1        2.918   1.168   0.316  0.00  0.00    -0.110 S 
ENDBRANCH  19  26
ENDBRANCH   1  23
TORSDOF 3
