REMARK  Name = ZINCvU0000000IZf.0
REMARK                            x       y       z     vdW  Elec       q    Type
REMARK                         _______ _______ _______ _____ _____    ______ ____
ROOT
ATOM      1  C   LIG    1       -1.283   3.345   0.586  0.00  0.00    -0.250 A 
ATOM      2  C   LIG    1       -1.206   2.013   1.010  0.00  0.00    +0.180 A 
ATOM      3  C   LIG    1        0.041   1.487   1.302  0.00  0.00    -0.090 A 
ATOM      4  C   LIG    1        1.165   2.280   1.159  0.00  0.00    +0.360 A 
ATOM      5  N   LIG    1        1.072   3.532   0.754  0.00  0.00    -0.540 NA
ATOM      6  C   LIG    1       -0.095   4.087   0.466  0.00  0.00    +0.450 A 
ENDROOT
BRANCH   1   7
ATOM      7  C   LIG    1       -2.585   3.956   0.268  0.00  0.00    +0.530 C 
ATOM      8  O   LIG    1       -2.631   5.066  -0.224  0.00  0.00    -0.520 OA
BRANCH   7   9
ATOM      9  O   LIG    1       -3.725   3.284   0.523  0.00  0.00    -0.330 OA
BRANCH   9  10
ATOM     10  C   LIG    1       -4.971   3.948   0.183  0.00  0.00    +0.240 C 
BRANCH  10  12
ATOM     11  O   LIG    1       -5.926   1.961   1.026  0.00  0.00    -0.400 OA
ATOM     12  C   LIG    1       -6.130   3.052   0.536  0.00  0.00    +0.400 C 
BRANCH  12  13
ATOM     13  C   LIG    1       -7.508   3.500   0.287  0.00  0.00    -0.180 A 
ATOM     14  C   LIG    1       -7.748   4.760  -0.272  0.00  0.00    +0.080 A 
ATOM     15  C   LIG    1       -9.044   5.170  -0.507  0.00  0.00    +0.080 A 
ATOM     16  C   LIG    1      -10.108   4.343  -0.181  0.00  0.00    +0.070 A 
ATOM     17  C   LIG    1       -9.881   3.099   0.377  0.00  0.00    +0.030 A 
ATOM     18  F   LIG    1       -9.277   6.385  -1.051  0.00  0.00    -0.130 F 
ATOM     19  C   LIG    1       -8.588   2.670   0.614  0.00  0.00    +0.150 A 
ATOM     20  F   LIG    1       -8.368   1.454   1.160  0.00  0.00    -0.110 F 
ENDBRANCH  12  13
ENDBRANCH  10  12
ENDBRANCH   9  10
ENDBRANCH   7   9
ENDBRANCH   1   7
BRANCH   6  21
ATOM     21  N   LIG    1       -0.146   5.404   0.045  0.00  0.00    -0.640 N 
ATOM     22  H   LIG    1       -0.968   5.764  -0.322  0.00  0.00    +0.430 HD
BRANCH  21  23
ATOM     23  C   LIG    1        0.988   6.215   0.150  0.00  0.00    +0.150 A 
ATOM     24  C   LIG    1        2.255   5.645   0.142  0.00  0.00    +0.070 A 
ATOM     25  C   LIG    1        3.373   6.450   0.240  0.00  0.00    +0.040 A 
ATOM     26  C   LIG    1        3.232   7.821   0.357  0.00  0.00    +0.050 A 
ATOM     27  C   LIG    1        1.971   8.391   0.371  0.00  0.00    -0.160 A 
ATOM     28  C   LIG    1        0.850   7.592   0.268  0.00  0.00    +0.030 A 
BRANCH  27  29
ATOM     29  C   LIG    1        1.823   9.885   0.500  0.00  0.00    +0.510 C 
ATOM     30  F   LIG    1        0.659  10.296  -0.160  0.00  0.00    -0.180 F 
ATOM     31  F   LIG    1        2.932  10.515  -0.075  0.00  0.00    -0.180 F 
ATOM     32  F   LIG    1        1.739  10.231   1.853  0.00  0.00    -0.180 F 
ENDBRANCH  27  29
ENDBRANCH  21  23
ENDBRANCH   6  21
TORSDOF 8
