REMARK  Name = ZINCpk00000y6tP3.0
REMARK                            x       y       z     vdW  Elec       q    Type
REMARK                         _______ _______ _______ _____ _____    ______ ____
ROOT
ATOM      1  C   LIG    1       -0.926   1.558   1.338  0.00  0.00    +0.100 C 
ATOM      2  C   LIG    1       -0.060   1.361   0.075  0.00  0.00    +0.030 C 
ATOM      3  C   LIG    1       -0.852   2.034  -1.065  0.00  0.00    +0.180 C 
ATOM      4  C   LIG    1       -2.132   2.581  -0.396  0.00  0.00    +0.160 C 
ATOM      5  F   LIG    1       -0.108   3.080  -1.622  0.00  0.00    -0.200 F 
ATOM      6  N   LIG    1       -1.765   2.747   1.034  0.00  0.00    -0.490 NA
ENDROOT
BRANCH   1   7
ATOM      7  C   LIG    1       -0.039   1.825   2.556  0.00  0.00    +0.310 C 
BRANCH   7   9
ATOM      8  C   LIG    1        0.193  -0.449   3.659  0.00  0.00    +0.280 C 
ATOM      9  N   LIG    1        0.760   0.632   2.849  0.00  0.00    -0.620 N 
ATOM     10  C   LIG    1        2.017   0.530   2.373  0.00  0.00    +0.520 C 
ATOM     11  O   LIG    1        2.455   1.381   1.629  0.00  0.00    -0.520 OA
BRANCH  10  12
ATOM     12  C   LIG    1        2.878  -0.643   2.767  0.00  0.00    +0.120 C 
BRANCH  12  13
ATOM     13  C   LIG    1        4.226  -0.520   2.105  0.00  0.00    -0.120 A 
ATOM     14  C   LIG    1        5.261   0.151   2.738  0.00  0.00    +0.070 A 
ATOM     15  C   LIG    1        6.484   0.238   2.092  0.00  0.00    -0.030 A 
ATOM     16  C   LIG    1        6.631  -0.343   0.847  0.00  0.00    +0.260 A 
ATOM     17  N   LIG    1        5.625  -0.973   0.274  0.00  0.00    -0.480 NA
ATOM     18  C   LIG    1        4.449  -1.081   0.861  0.00  0.00    +0.260 A 
ENDBRANCH  12  13
ENDBRANCH  10  12
ENDBRANCH   7   9
ENDBRANCH   1   7
BRANCH   6  19
ATOM     19  C   LIG    1       -2.962   2.779   1.884  0.00  0.00    +0.290 C 
BRANCH  19  20
ATOM     20  C   LIG    1       -3.655   1.441   1.827  0.00  0.00    -0.230 A 
ATOM     21  C   LIG    1       -4.578   1.162   0.831  0.00  0.00    +0.330 A 
ATOM     22  N   LIG    1       -5.162  -0.025   0.809  0.00  0.00    -0.520 NA
ATOM     23  C   LIG    1       -4.883  -0.931   1.725  0.00  0.00    +0.500 A 
ATOM     24  N   LIG    1       -4.015  -0.700   2.689  0.00  0.00    -0.520 NA
ATOM     25  C   LIG    1       -3.388   0.463   2.771  0.00  0.00    +0.320 A 
ENDBRANCH  19  20
ENDBRANCH   6  19
TORSDOF 6
