REMARK  Name = ZINCqH0000050vbt.0
REMARK                            x       y       z     vdW  Elec       q    Type
REMARK                         _______ _______ _______ _____ _____    ______ ____
ROOT
ATOM      1  O   LIG    1        3.012  -5.721   2.773  0.00  0.00    -0.330 OA
ENDROOT
BRANCH   1   2
ATOM      2  C   LIG    1        3.901  -6.307   3.590  0.00  0.00    +0.460 C 
ATOM      3  O   LIG    1        4.910  -5.722   3.905  0.00  0.00    -0.490 OA
BRANCH   2   4
ATOM      4  C   LIG    1        3.640  -7.696   4.115  0.00  0.00    +0.200 C 
BRANCH   4  10
ATOM      5  C   LIG    1        6.323  -7.507  10.463  0.00  0.00    +0.110 C 
ATOM      6  C   LIG    1        5.842  -7.620   9.039  0.00  0.00    -0.060 A 
ATOM      7  C   LIG    1        4.647  -7.020   8.669  0.00  0.00    +0.000 A 
ATOM      8  C   LIG    1        4.195  -7.116   7.371  0.00  0.00    +0.060 A 
ATOM      9  C   LIG    1        4.946  -7.819   6.431  0.00  0.00    -0.120 A 
ATOM     10  C   LIG    1        4.781  -8.120   5.003  0.00  0.00    -0.180 A 
ATOM     11  C   LIG    1        5.853  -8.841   4.647  0.00  0.00    +0.240 A 
ATOM     12  O   LIG    1        6.661  -9.024   5.706  0.00  0.00    -0.190 OA
ATOM     13  C   LIG    1        6.155  -8.430   6.806  0.00  0.00    +0.060 A 
ATOM     14  C   LIG    1        6.590  -8.325   8.120  0.00  0.00    +0.020 A 
ENDBRANCH   4  10
ENDBRANCH   2   4
ENDBRANCH   1   2
BRANCH   1  15
ATOM     15  C   LIG    1        3.328  -4.383   2.306  0.00  0.00    +0.250 C 
BRANCH  15  16
ATOM     16  C   LIG    1        2.224  -3.891   1.407  0.00  0.00    +0.520 C 
ATOM     17  N   LIG    1        2.302  -2.664   0.853  0.00  0.00    -0.720 N 
ATOM     18  H   LIG    1        3.069  -2.099   1.033  0.00  0.00    +0.400 HD
ATOM     19  O   LIG    1        1.265  -4.598   1.181  0.00  0.00    -0.510 OA
BRANCH  17  20
ATOM     20  C   LIG    1        1.229  -2.186  -0.022  0.00  0.00    +0.290 C 
ATOM     21  C   LIG    1        1.472  -2.685  -1.448  0.00  0.00    +0.040 C 
BRANCH  20  22
ATOM     22  C   LIG    1        1.208  -0.679  -0.014  0.00  0.00    -0.100 A 
ATOM     23  C   LIG    1        0.002  -0.004   0.002  0.00  0.00    +0.020 A 
ATOM     24  C   LIG    1       -0.017   1.378   0.010  0.00  0.00    +0.020 A 
ATOM     25  C   LIG    1        1.171   2.086   0.002  0.00  0.00    +0.000 A 
ATOM     26  C   LIG    1        2.377   1.411  -0.014  0.00  0.00    +0.000 A 
ATOM     27  C   LIG    1        2.396   0.029  -0.021  0.00  0.00    +0.000 A 
ENDBRANCH  20  22
ENDBRANCH  17  20
ENDBRANCH  15  16
ENDBRANCH   1  15
TORSDOF 7
