REMARK  Name = ZINCpe000000XyDg.0
REMARK                            x       y       z     vdW  Elec       q    Type
REMARK                         _______ _______ _______ _____ _____    ______ ____
ROOT
ATOM      1  C   LIG    1       -2.916   0.782  -1.395  0.00  0.00    +0.520 C 
ATOM      2  N   LIG    1       -4.047   0.090  -1.639  0.00  0.00    -0.720 N 
ATOM      3  H   LIG    1       -4.619  -0.180  -0.904  0.00  0.00    +0.400 HD
ATOM      4  O   LIG    1       -2.201   1.119  -2.315  0.00  0.00    -0.530 OA
ENDROOT
BRANCH   2   5
ATOM      5  C   LIG    1       -4.412  -0.255  -3.015  0.00  0.00    +0.320 C 
ATOM      6  C   LIG    1       -5.930  -0.451  -3.113  0.00  0.00    +0.020 C 
ATOM      7  C   LIG    1       -6.281  -1.057  -4.475  0.00  0.00    +0.040 C 
ATOM      8  C   LIG    1       -5.797  -2.512  -4.528  0.00  0.00    +0.110 C 
ATOM      9  C   LIG    1       -4.356  -2.551  -4.084  0.00  0.00    +0.090 A 
ATOM     10  N   LIG    1       -3.462  -3.537  -4.262  0.00  0.00    -0.370 N 
ATOM     11  C   LIG    1       -3.707  -4.812  -4.940  0.00  0.00    +0.350 C 
ATOM     12  N   LIG    1       -2.251  -3.128  -3.683  0.00  0.00    -0.300 NA
ATOM     13  C   LIG    1       -2.422  -1.932  -3.174  0.00  0.00    +0.260 A 
ATOM     14  C   LIG    1       -3.739  -1.546  -3.412  0.00  0.00    -0.260 A 
ENDBRANCH   2   5
BRANCH   1  15
ATOM     15  C   LIG    1       -2.540   1.136   0.020  0.00  0.00    +0.160 C 
BRANCH  15  18
ATOM     16  C   LIG    1       -2.568   3.998   0.046  0.00  0.00    +0.150 C 
ATOM     17  C   LIG    1       -1.256   3.256   0.031  0.00  0.00    +0.230 A 
ATOM     18  C   LIG    1       -1.243   1.904   0.018  0.00  0.00    -0.260 A 
ATOM     19  C   LIG    1       -0.014   1.214   0.009  0.00  0.00    +0.580 A 
ATOM     20  N   LIG    1        1.142   1.905   0.001  0.00  0.00    -0.360 N 
ATOM     21  N   LIG    1        2.482   1.500  -0.013  0.00  0.00    -0.260 NA
ATOM     22  C   LIG    1        3.239   2.569  -0.014  0.00  0.00    +0.290 A 
ATOM     23  C   LIG    1        2.416   3.697  -0.001  0.00  0.00    -0.120 A 
ATOM     24  C   LIG    1        1.122   3.270   0.009  0.00  0.00    +0.300 A 
ATOM     25  O   LIG    1        0.002  -0.004   0.002  0.00  0.00    -0.490 OA
ATOM     26  N   LIG    1       -0.082   3.948   0.024  0.00  0.00    -0.600 N 
ATOM     27  H   LIG    1       -0.092   4.918   0.029  0.00  0.00    +0.430 HD
ENDBRANCH  15  18
ENDBRANCH   1  15
TORSDOF 3
