REMARK  Name = ZINCrg00000SjSxg.0
REMARK                            x       y       z     vdW  Elec       q    Type
REMARK                         _______ _______ _______ _____ _____    ______ ____
ROOT
ATOM      1  C   LIG    1        0.192   6.047  -0.447  0.00  0.00    +0.270 A 
ATOM      2  N   LIG    1        0.568   5.730  -1.664  0.00  0.00    -0.270 NA
ATOM      3  N   LIG    1        1.009   6.773  -2.272  0.00  0.00    -0.280 NA
ATOM      4  C   LIG    1        0.941   7.819  -1.481  0.00  0.00    +0.110 A 
ATOM      5  N   LIG    1        0.414   7.396  -0.294  0.00  0.00    -0.300 N 
ENDROOT
BRANCH   1   9
ATOM      6  C   LIG    1       -1.433   3.410   2.467  0.00  0.00    +0.120 A 
ATOM      7  C   LIG    1       -1.537   4.782   2.639  0.00  0.00    -0.040 A 
ATOM      8  C   LIG    1       -1.013   5.641   1.694  0.00  0.00    +0.070 A 
ATOM      9  C   LIG    1       -0.370   5.129   0.566  0.00  0.00    -0.030 A 
ATOM     10  C   LIG    1       -0.260   3.747   0.396  0.00  0.00    +0.020 A 
ATOM     11  C   LIG    1       -0.787   2.893   1.346  0.00  0.00    +0.100 A 
BRANCH   6  13
ATOM     12  C   LIG    1       -2.604   3.167   4.522  0.00  0.00    +0.240 C 
ATOM     13  O   LIG    1       -1.956   2.568   3.398  0.00  0.00    -0.300 OA
ENDBRANCH   6  13
BRANCH  11  14
ATOM     14  O   LIG    1       -0.682   1.547   1.184  0.00  0.00    -0.300 OA
ATOM     15  C   LIG    1       -0.013   1.086   0.008  0.00  0.00    +0.240 C 
ENDBRANCH  11  14
ENDBRANCH   1   9
BRANCH   5  16
ATOM     16  N   LIG    1        0.163   8.154   0.815  0.00  0.00    -0.580 N 
ATOM     17  H   LIG    1       -0.121   9.087   0.558  0.00  0.00    +0.380 HD
ATOM     18  H   LIG    1        0.964   8.175   1.427  0.00  0.00    +0.370 HD
ENDBRANCH   5  16
BRANCH   4  19
ATOM     19  S   LIG    1        1.432   9.464  -1.879  0.00  0.00    +0.080 S 
BRANCH  19  20
ATOM     20  C   LIG    1        2.000   9.220  -3.580  0.00  0.00    +0.140 C 
BRANCH  20  21
ATOM     21  C   LIG    1        2.481  10.532  -4.143  0.00  0.00    +0.540 C 
ATOM     22  N   LIG    1        2.952  10.592  -5.404  0.00  0.00    -0.690 N 
ATOM     23  H   LIG    1        2.982   9.791  -5.950  0.00  0.00    +0.410 HD
ATOM     24  C   LIG    1        3.382  11.766  -5.908  0.00  0.00    +0.700 C 
ATOM     25  N   LIG    1        3.854  11.826  -7.169  0.00  0.00    -0.730 N 
ATOM     26  H   LIG    1        3.884  11.025  -7.714  0.00  0.00    +0.400 HD
ATOM     27  O   LIG    1        3.345  12.771  -5.224  0.00  0.00    -0.530 OA
ATOM     28  O   LIG    1        2.444  11.534  -3.461  0.00  0.00    -0.450 OA
BRANCH  25  29
ATOM     29  C   LIG    1        4.322  13.102  -7.716  0.00  0.00    +0.240 C 
ATOM     30  C   LIG    1        4.210  13.075  -9.242  0.00  0.00    +0.040 C 
ATOM     31  C   LIG    1        5.782  13.325  -7.316  0.00  0.00    +0.020 C 
ENDBRANCH  25  29
ENDBRANCH  20  21
ENDBRANCH  19  20
ENDBRANCH   4  19
TORSDOF 8
