REMARK  Name = ZINCvU0000000IoE.0
REMARK                            x       y       z     vdW  Elec       q    Type
REMARK                         _______ _______ _______ _____ _____    ______ ____
ROOT
ATOM      1  C   LIG    1       -3.400  -1.024   0.201  0.00  0.00    +0.080 A 
ATOM      2  C   LIG    1       -3.073  -2.317   0.254  0.00  0.00    -0.060 A 
ATOM      3  S   LIG    1       -1.317  -2.439   0.183  0.00  0.00    +0.160 S 
ATOM      4  C   LIG    1       -1.192  -0.736   0.089  0.00  0.00    +0.270 A 
ATOM      5  N   LIG    1       -2.372  -0.201   0.118  0.00  0.00    -0.470 NA
ENDROOT
BRANCH   4   6
ATOM      6  N   LIG    1        0.002  -0.028  -0.000  0.00  0.00    -0.480 N 
ATOM      7  C   LIG    1       -0.009   1.319   0.032  0.00  0.00    +0.510 C 
ATOM      8  O   LIG    1       -1.064   1.917   0.031  0.00  0.00    -0.470 OA
ATOM      9  C   LIG    1        1.290   2.083   0.062  0.00  0.00    +0.120 C 
BRANCH   6  10
ATOM     10  C   LIG    1        1.216  -0.716  -0.123  0.00  0.00    +0.110 A 
ATOM     11  C   LIG    1        1.961  -0.609  -1.290  0.00  0.00    +0.020 A 
ATOM     12  C   LIG    1        3.158  -1.289  -1.408  0.00  0.00    +0.040 A 
ATOM     13  C   LIG    1        3.615  -2.074  -0.366  0.00  0.00    +0.020 A 
ATOM     14  C   LIG    1        2.874  -2.183   0.797  0.00  0.00    -0.070 A 
ATOM     15  C   LIG    1        3.376  -3.041   1.931  0.00  0.00    +0.100 C 
ATOM     16  C   LIG    1        1.680  -1.502   0.924  0.00  0.00    +0.020 A 
ENDBRANCH   6  10
ENDBRANCH   4   6
BRANCH   1  17
ATOM     17  C   LIG    1       -4.828  -0.543   0.238  0.00  0.00    +0.320 C 
BRANCH  17  18
ATOM     18  O   LIG    1       -5.707  -1.666   0.335  0.00  0.00    -0.300 OA
BRANCH  18  25
ATOM     19  C   LIG    1      -11.185  -0.583   0.521  0.00  0.00    +0.040 A 
ATOM     20  C   LIG    1      -12.033  -1.640   0.613  0.00  0.00    -0.100 A 
ATOM     21  C   LIG    1      -11.517  -2.951   0.658  0.00  0.00    +0.510 A 
ATOM     22  O   LIG    1      -10.197  -3.192   0.612  0.00  0.00    -0.270 OA
ATOM     23  C   LIG    1       -9.301  -2.186   0.520  0.00  0.00    +0.190 A 
ATOM     24  C   LIG    1       -7.941  -2.452   0.474  0.00  0.00    -0.020 A 
ATOM     25  C   LIG    1       -7.038  -1.405   0.380  0.00  0.00    +0.190 A 
ATOM     26  C   LIG    1       -7.485  -0.086   0.337  0.00  0.00    -0.090 A 
ATOM     27  C   LIG    1       -8.821   0.193   0.377  0.00  0.00    +0.130 A 
ATOM     28  O   LIG    1      -12.289  -3.890   0.740  0.00  0.00    -0.460 OA
ATOM     29  C   LIG    1       -9.746  -0.852   0.471  0.00  0.00    -0.190 A 
BRANCH  19  31
ATOM     30  C   LIG    1      -11.707   1.425   1.880  0.00  0.00    +0.040 C 
ATOM     31  C   LIG    1      -11.710   0.829   0.470  0.00  0.00    +0.080 C 
ENDBRANCH  19  31
ENDBRANCH  18  25
ENDBRANCH  17  18
ENDBRANCH   1  17
TORSDOF 6
