REMARK  Name = ZINCpe00000Mxigt.0
REMARK                            x       y       z     vdW  Elec       q    Type
REMARK                         _______ _______ _______ _____ _____    ______ ____
ROOT
ATOM      1  C   LIG    1        0.248   1.361   0.053  0.00  0.00    +0.140 C 
ATOM      2  C   LIG    1       -0.656   1.860   1.183  0.00  0.00    +0.010 C 
ATOM      3  C   LIG    1       -0.884   3.365   1.029  0.00  0.00    +0.030 C 
ATOM      4  C   LIG    1        0.460   4.094   1.127  0.00  0.00    +0.290 C 
ATOM      5  N   LIG    1        1.383   3.519   0.139  0.00  0.00    -0.580 N 
ATOM      6  C   LIG    1        1.605   2.066   0.140  0.00  0.00    +0.310 C 
ENDROOT
BRANCH   5   7
ATOM      7  C   LIG    1        2.035   4.334  -0.780  0.00  0.00    +0.420 A 
ATOM      8  N   LIG    1        2.767   3.791  -1.724  0.00  0.00    -0.330 NA
ATOM      9  N   LIG    1        3.425   4.591  -2.660  0.00  0.00    -0.260 N 
ATOM     10  C   LIG    1        3.318   5.958  -2.593  0.00  0.00    +0.110 A 
ATOM     11  C   LIG    1        2.537   6.540  -1.577  0.00  0.00    +0.190 A 
ATOM     12  N   LIG    1        4.039   6.449  -3.588  0.00  0.00    -0.250 NA
ATOM     13  N   LIG    1        4.570   5.478  -4.247  0.00  0.00    -0.260 NA
ATOM     14  C   LIG    1        4.223   4.330  -3.717  0.00  0.00    +0.220 A 
ATOM     15  C   LIG    1        1.904   5.734  -0.684  0.00  0.00    -0.020 A 
BRANCH  14  16
ATOM     16  C   LIG    1        4.640   2.965  -4.202  0.00  0.00    +0.030 C 
ATOM     17  C   LIG    1        3.397   2.158  -4.581  0.00  0.00    +0.060 C 
ATOM     18  C   LIG    1        5.400   2.240  -3.090  0.00  0.00    +0.050 C 
ATOM     19  C   LIG    1        5.546   3.113  -5.426  0.00  0.00    +0.080 C 
ENDBRANCH  14  16
ENDBRANCH   5   7
BRANCH   1  20
ATOM     20  O   LIG    1       -0.360   1.650  -1.208  0.00  0.00    -0.550 OA
ATOM     21  H   LIG    1       -1.225   1.235  -1.332  0.00  0.00    +0.380 HD
ENDBRANCH   1  20
BRANCH   1  22
ATOM     22  C   LIG    1        0.448  -0.150   0.189  0.00  0.00    +0.050 C 
BRANCH  22  26
ATOM     23  C   LIG    1       -2.254  -2.860   0.114  0.00  0.00    +0.280 C 
ATOM     24  N   LIG    1       -0.956  -2.186   0.197  0.00  0.00    -0.730 N 
ATOM     25  H   LIG    1       -0.147  -2.706   0.321  0.00  0.00    +0.400 HD
ATOM     26  C   LIG    1       -0.887  -0.844   0.102  0.00  0.00    +0.520 C 
ATOM     27  O   LIG    1       -1.899  -0.194  -0.052  0.00  0.00    -0.540 OA
ENDBRANCH  22  26
ENDBRANCH   1  22
TORSDOF 5
