REMARK  Name = ZINCrH00000tj1av.0
REMARK                            x       y       z     vdW  Elec       q    Type
REMARK                         _______ _______ _______ _____ _____    ______ ____
ROOT
ATOM      1  C   LIG    1       -0.018   1.503   0.010  0.00  0.00    +0.300 C 
ATOM      2  C   LIG    1       -0.754   2.011  -1.232  0.00  0.00    +0.180 C 
ATOM      3  N   LIG    1       -0.704   3.480  -1.259  0.00  0.00    -0.520 NA
ATOM      4  C   LIG    1        0.688   3.954  -1.268  0.00  0.00    +0.160 C 
ATOM      5  C   LIG    1        1.409   3.426  -0.025  0.00  0.00    +0.200 C 
ATOM      6  C   LIG    1        0.749   4.000   1.231  0.00  0.00    +0.020 C 
ATOM      7  O   LIG    1        1.323   1.999   0.000  0.00  0.00    -0.370 OA
ENDROOT
BRANCH   1  10
ATOM      8  C   LIG    1       -0.403  -2.040   0.432  0.00  0.00    +0.230 A 
ATOM      9  N   LIG    1       -0.746  -0.811   0.771  0.00  0.00    -0.430 NA
ATOM     10  C   LIG    1        0.002  -0.004   0.002  0.00  0.00    +0.170 A 
ATOM     11  N   LIG    1        0.743  -0.758  -0.755  0.00  0.00    -0.350 NA
ATOM     12  O   LIG    1        0.533  -1.929  -0.523  0.00  0.00    +0.100 OA
BRANCH   8  17
ATOM     13  C   LIG    1       -2.554  -6.834   2.668  0.00  0.00    +0.110 C 
ATOM     14  C   LIG    1       -1.963  -5.590   2.054  0.00  0.00    -0.110 A 
ATOM     15  C   LIG    1       -0.995  -5.690   1.067  0.00  0.00    +0.080 A 
ATOM     16  C   LIG    1       -0.477  -4.523   0.529  0.00  0.00    +0.020 A 
ATOM     17  C   LIG    1       -0.946  -3.296   0.996  0.00  0.00    +0.180 A 
ATOM     18  N   LIG    1       -1.871  -3.245   1.947  0.00  0.00    -0.430 NA
ATOM     19  C   LIG    1       -2.382  -4.338   2.471  0.00  0.00    +0.140 A 
ATOM     20  C   LIG    1       -3.434  -4.226   3.545  0.00  0.00    +0.130 C 
ENDBRANCH   8  17
ENDBRANCH   1  10
BRANCH   3  21
ATOM     21  C   LIG    1       -1.448   4.012  -2.408  0.00  0.00    +0.240 C 
BRANCH  21  22
ATOM     22  C   LIG    1       -2.916   3.713  -2.238  0.00  0.00    -0.080 A 
ATOM     23  C   LIG    1       -3.445   2.538  -2.740  0.00  0.00    +0.000 A 
ATOM     24  C   LIG    1       -4.790   2.262  -2.579  0.00  0.00    +0.000 A 
ATOM     25  C   LIG    1       -5.607   3.164  -1.926  0.00  0.00    +0.000 A 
ATOM     26  C   LIG    1       -5.080   4.342  -1.429  0.00  0.00    +0.000 A 
ATOM     27  C   LIG    1       -3.734   4.615  -1.585  0.00  0.00    +0.020 A 
ENDBRANCH  21  22
ENDBRANCH   3  21
TORSDOF 4
