REMARK  Name = ZINCvU0000000EjW.0
REMARK                            x       y       z     vdW  Elec       q    Type
REMARK                         _______ _______ _______ _____ _____    ______ ____
ROOT
ATOM      1  C   LIG    1       -1.228   2.084   0.047  0.00  0.00    -0.200 A 
ATOM      2  C   LIG    1       -1.420   3.468   0.064  0.00  0.00    +0.150 A 
ATOM      3  C   LIG    1       -2.695   3.985   0.039  0.00  0.00    -0.050 A 
ATOM      4  C   LIG    1       -3.794   3.131   0.009  0.00  0.00    +0.320 A 
ATOM      5  C   LIG    1       -3.606   1.751  -0.002  0.00  0.00    -0.140 A 
ATOM      6  C   LIG    1       -2.334   1.228   0.017  0.00  0.00    +0.240 A 
ENDROOT
BRANCH   1   9
ATOM      7  N   LIG    1        1.202   2.352   0.091  0.00  0.00    -0.630 N 
ATOM      8  H   LIG    1        1.070   3.313   0.099  0.00  0.00    +0.410 HD
ATOM      9  C   LIG    1        0.137   1.526   0.068  0.00  0.00    +0.570 C 
ATOM     10  O   LIG    1        0.302   0.322   0.058  0.00  0.00    -0.490 OA
BRANCH   7  12
ATOM     11  C   LIG    1        3.633   2.579   0.123  0.00  0.00    -0.190 A 
ATOM     12  C   LIG    1        2.484   1.829   0.104  0.00  0.00    +0.050 A 
ATOM     13  S   LIG    1        2.852   0.165   0.093  0.00  0.00    +0.320 S 
ATOM     14  C   LIG    1        4.580   0.467   0.120  0.00  0.00    -0.250 A 
ATOM     15  C   LIG    1        5.636  -0.608   0.124  0.00  0.00    +0.150 C 
ATOM     16  C   LIG    1        4.831   1.768   0.137  0.00  0.00    -0.050 A 
ATOM     17  C   LIG    1        6.223   2.345   0.163  0.00  0.00    +0.120 C 
BRANCH  11  18
ATOM     18  C   LIG    1        3.645   4.043   0.131  0.00  0.00    +0.540 C 
ATOM     19  O   LIG    1        3.637   4.646   1.188  0.00  0.00    -0.490 OA
BRANCH  18  20
ATOM     20  O   LIG    1        3.664   4.724  -1.033  0.00  0.00    -0.350 OA
BRANCH  20  22
ATOM     21  C   LIG    1        3.697   6.766  -2.359  0.00  0.00    +0.070 C 
ATOM     22  C   LIG    1        3.675   6.174  -0.949  0.00  0.00    +0.200 C 
ENDBRANCH  20  22
ENDBRANCH  18  20
ENDBRANCH  11  18
ENDBRANCH   7  12
ENDBRANCH   1   9
BRANCH   5  23
ATOM     23  N   LIG    1       -4.777   0.846  -0.035  0.00  0.00    +0.050 N 
ATOM     24  O   LIG    1       -5.902   1.302   0.061  0.00  0.00    -0.200 OA
ATOM     25  O   LIG    1       -4.616  -0.355  -0.157  0.00  0.00    -0.140 OA
ENDBRANCH   5  23
BRANCH   4  26
ATOM     26  N   LIG    1       -5.081   3.656  -0.011  0.00  0.00    -0.700 N 
ATOM     27  H   LIG    1       -5.847   3.065   0.054  0.00  0.00    +0.420 HD
BRANCH  26  28
ATOM     28  C   LIG    1       -5.280   5.103  -0.128  0.00  0.00    +0.220 C 
ATOM     29  C   LIG    1       -5.197   5.744   1.258  0.00  0.00    +0.000 C 
ATOM     30  C   LIG    1       -5.405   7.255   1.135  0.00  0.00    +0.020 C 
ATOM     31  C   LIG    1       -6.781   7.532   0.527  0.00  0.00    +0.010 C 
ATOM     32  C   LIG    1       -6.864   6.891  -0.860  0.00  0.00    +0.020 C 
ATOM     33  C   LIG    1       -6.656   5.380  -0.737  0.00  0.00    +0.010 C 
ENDBRANCH  26  28
ENDBRANCH   4  26
TORSDOF 8
