REMARK  Name = ZINCrH000004mchf.0
REMARK                            x       y       z     vdW  Elec       q    Type
REMARK                         _______ _______ _______ _____ _____    ______ ____
ROOT
ATOM      1  C   LIG    1       -2.480  -2.826  -0.204  0.00  0.00    +0.290 C 
ENDROOT
BRANCH   1   4
ATOM      2  N   LIG    1       -1.200  -0.720   0.010  0.00  0.00    -0.670 N 
ATOM      3  H   LIG    1       -2.044  -0.250   0.089  0.00  0.00    +0.420 HD
ATOM      4  C   LIG    1       -1.184  -2.064  -0.099  0.00  0.00    +0.510 C 
ATOM      5  O   LIG    1       -0.128  -2.659  -0.113  0.00  0.00    -0.500 OA
BRANCH   2   8
ATOM      6  C   LIG    1        1.257   1.956  -0.585  0.00  0.00    +0.180 A 
ATOM      7  C   LIG    1        0.065   1.247  -0.586  0.00  0.00    -0.070 A 
ATOM      8  C   LIG    1        0.003  -0.005   0.010  0.00  0.00    +0.220 A 
ATOM      9  C   LIG    1        1.133  -0.546   0.607  0.00  0.00    -0.040 A 
ATOM     10  C   LIG    1        2.324   0.164   0.607  0.00  0.00    +0.180 A 
ATOM     11  C   LIG    1        2.386   1.415   0.011  0.00  0.00    -0.170 A 
BRANCH   6  13
ATOM     12  C   LIG    1        2.578   3.856  -1.131  0.00  0.00    +0.250 C 
ATOM     13  O   LIG    1        1.319   3.182  -1.169  0.00  0.00    -0.310 OA
ENDBRANCH   6  13
BRANCH  10  14
ATOM     14  O   LIG    1        3.431  -0.366   1.190  0.00  0.00    -0.310 OA
ATOM     15  C   LIG    1        4.623   0.420   1.153  0.00  0.00    +0.250 C 
ENDBRANCH  10  14
ENDBRANCH   2   8
ENDBRANCH   1   4
BRANCH   1  16
ATOM     16  N   LIG    1       -2.196  -4.259  -0.311  0.00  0.00    -0.730 N 
ATOM     17  H   LIG    1       -1.279  -4.574  -0.307  0.00  0.00    +0.420 HD
BRANCH  16  18
ATOM     18  C   LIG    1       -3.249  -5.175  -0.421  0.00  0.00    +0.240 A 
ATOM     19  C   LIG    1       -4.562  -4.728  -0.427  0.00  0.00    -0.080 A 
ATOM     20  C   LIG    1       -5.601  -5.635  -0.536  0.00  0.00    +0.050 A 
ATOM     21  C   LIG    1       -5.335  -6.987  -0.638  0.00  0.00    -0.050 A 
ATOM     22  C   LIG    1       -4.029  -7.442  -0.632  0.00  0.00    +0.020 A 
ATOM     23  C   LIG    1       -2.981  -6.540  -0.529  0.00  0.00    +0.010 A 
BRANCH  23  24
ATOM     24  N   LIG    1       -1.658  -6.998  -0.529  0.00  0.00    -0.500 N 
ATOM     25  C   LIG    1       -1.318  -7.626  -1.812  0.00  0.00    +0.170 C 
ATOM     26  C   LIG    1        0.170  -7.982  -1.829  0.00  0.00    +0.020 C 
ATOM     27  C   LIG    1        0.474  -8.940  -0.673  0.00  0.00    +0.000 C 
ATOM     28  C   LIG    1        0.067  -8.280   0.647  0.00  0.00    +0.020 C 
ATOM     29  C   LIG    1       -1.419  -7.916   0.592  0.00  0.00    +0.170 C 
ENDBRANCH  23  24
ENDBRANCH  16  18
ENDBRANCH   1  16
TORSDOF 7
