REMARK  Name = ZINCvU000000057r.0
REMARK                            x       y       z     vdW  Elec       q    Type
REMARK                         _______ _______ _______ _____ _____    ______ ____
ROOT
ATOM      1  C   LIG    1       -0.816   1.597  -1.150  0.00  0.00    +0.290 A 
ATOM      2  N   LIG    1       -1.018   2.855  -1.412  0.00  0.00    -0.480 NA
ATOM      3  C   LIG    1       -1.789   2.971  -2.524  0.00  0.00    +0.050 A 
ATOM      4  C   LIG    1       -2.297   4.062  -3.234  0.00  0.00    +0.070 A 
ATOM      5  C   LIG    1       -3.062   3.853  -4.347  0.00  0.00    +0.000 A 
ATOM      6  C   LIG    1       -3.342   2.565  -4.782  0.00  0.00    +0.030 A 
ATOM      7  C   LIG    1       -2.851   1.474  -4.096  0.00  0.00    +0.010 A 
ATOM      8  C   LIG    1       -2.072   1.667  -2.964  0.00  0.00    +0.050 A 
ATOM      9  N   LIG    1       -1.438   0.820  -2.077  0.00  0.00    -0.480 N 
ENDROOT
BRANCH   1  12
ATOM     10  N   LIG    1        0.625   1.838   2.194  0.00  0.00    -0.560 N 
ATOM     11  C   LIG    1       -0.555   1.607   1.352  0.00  0.00    +0.300 C 
ATOM     12  C   LIG    1       -0.006   1.076   0.009  0.00  0.00    +0.090 C 
ATOM     13  C   LIG    1        1.423   1.669  -0.004  0.00  0.00    +0.100 C 
ATOM     14  C   LIG    1        1.749   1.882   1.458  0.00  0.00    +0.520 C 
ATOM     15  O   LIG    1        2.863   2.068   1.901  0.00  0.00    -0.500 OA
BRANCH  10  21
ATOM     16  C   LIG    1        3.005   2.337   6.467  0.00  0.00    +0.090 C 
ATOM     17  C   LIG    1        1.724   2.235   5.680  0.00  0.00    -0.050 A 
ATOM     18  C   LIG    1        0.506   2.293   6.333  0.00  0.00    -0.030 A 
ATOM     19  C   LIG    1       -0.672   2.200   5.615  0.00  0.00    -0.060 A 
ATOM     20  C   LIG    1       -0.636   2.049   4.243  0.00  0.00    -0.040 A 
ATOM     21  C   LIG    1        0.585   1.991   3.584  0.00  0.00    +0.170 A 
ATOM     22  C   LIG    1       -1.997   2.263   6.331  0.00  0.00    +0.100 C 
ATOM     23  C   LIG    1        1.766   2.079   4.309  0.00  0.00    -0.010 A 
ENDBRANCH  10  21
ENDBRANCH   1  12
BRANCH   9  24
ATOM     24  C   LIG    1       -1.438  -0.644  -2.124  0.00  0.00    +0.310 C 
BRANCH  24  25
ATOM     25  C   LIG    1       -2.626  -1.180  -1.322  0.00  0.00    +0.070 C 
BRANCH  25  26
ATOM     26  C   LIG    1       -2.626  -2.687  -1.370  0.00  0.00    -0.090 A 
ATOM     27  C   LIG    1       -3.310  -3.346  -2.374  0.00  0.00    +0.010 A 
ATOM     28  C   LIG    1       -3.306  -4.728  -2.421  0.00  0.00    +0.000 A 
ATOM     29  C   LIG    1       -2.626  -5.450  -1.458  0.00  0.00    +0.000 A 
ATOM     30  C   LIG    1       -1.946  -4.790  -0.451  0.00  0.00    +0.000 A 
ATOM     31  C   LIG    1       -1.946  -3.409  -0.407  0.00  0.00    +0.010 A 
ENDBRANCH  25  26
ENDBRANCH  24  25
ENDBRANCH   9  24
TORSDOF 5
