REMARK  Name = ZINCpk00000y6w55.0
REMARK                            x       y       z     vdW  Elec       q    Type
REMARK                         _______ _______ _______ _____ _____    ______ ____
ROOT
ATOM      1  C   LIG    1       -1.201   7.491  -0.201  0.00  0.00    +0.160 C 
ATOM      2  C   LIG    1       -1.817   6.113   0.122  0.00  0.00    +0.070 C 
ATOM      3  C   LIG    1       -0.696   5.127  -0.299  0.00  0.00    +0.040 C 
ATOM      4  C   LIG    1       -0.104   5.840  -1.540  0.00  0.00    +0.250 C 
ATOM      5  N   LIG    1       -0.155   7.276  -1.211  0.00  0.00    -0.610 N 
ATOM      6  C   LIG    1        0.632   8.232  -1.742  0.00  0.00    +0.570 C 
ATOM      7  O   LIG    1        0.580   9.369  -1.315  0.00  0.00    -0.450 OA
ENDROOT
BRANCH   6   8
ATOM      8  C   LIG    1        1.556   7.899  -2.843  0.00  0.00    -0.210 A 
ATOM      9  C   LIG    1        1.538   6.628  -3.429  0.00  0.00    +0.130 A 
ATOM     10  C   LIG    1        2.421   6.369  -4.462  0.00  0.00    -0.080 A 
ATOM     11  C   LIG    1        3.295   7.358  -4.875  0.00  0.00    +0.330 A 
ATOM     12  N   LIG    1        3.296   8.549  -4.308  0.00  0.00    -0.550 NA
ATOM     13  C   LIG    1        2.470   8.851  -3.321  0.00  0.00    +0.380 A 
BRANCH  13  14
ATOM     14  O   LIG    1        2.504  10.087  -2.769  0.00  0.00    -0.270 OA
BRANCH  14  15
ATOM     15  C   LIG    1        3.457  11.009  -3.303  0.00  0.00    +0.210 C 
BRANCH  15  16
ATOM     16  C   LIG    1        3.349  12.342  -2.558  0.00  0.00    -0.010 C 
ATOM     17  C   LIG    1        4.279  13.367  -3.210  0.00  0.00    +0.040 C 
ATOM     18  C   LIG    1        3.752  12.144  -1.096  0.00  0.00    +0.020 C 
ENDBRANCH  15  16
ENDBRANCH  14  15
ENDBRANCH  13  14
ENDBRANCH   6   8
BRANCH   1  22
ATOM     19  C   LIG    1        1.242   8.299   2.627  0.00  0.00    +0.280 C 
ATOM     20  N   LIG    1        0.565   7.608   1.527  0.00  0.00    -0.730 N 
ATOM     21  H   LIG    1        0.952   6.804   1.147  0.00  0.00    +0.400 HD
ATOM     22  C   LIG    1       -0.598   8.089   1.044  0.00  0.00    +0.530 C 
ATOM     23  O   LIG    1       -1.158   9.004   1.610  0.00  0.00    -0.520 OA
ENDBRANCH   1  22
BRANCH   1  24
ATOM     24  C   LIG    1       -2.280   8.421  -0.759  0.00  0.00    +0.190 C 
BRANCH  24  25
ATOM     25  O   LIG    1       -1.679   9.648  -1.181  0.00  0.00    -0.350 OA
ATOM     26  C   LIG    1       -2.604  10.593  -1.722  0.00  0.00    +0.180 C 
ENDBRANCH  24  25
ENDBRANCH   1  24
TORSDOF 7
