REMARK  Name = ZINCrH000004tey7.0
REMARK                            x       y       z     vdW  Elec       q    Type
REMARK                         _______ _______ _______ _____ _____    ______ ____
ROOT
ATOM      1  C   LIG    1        0.239   5.410  -0.030  0.00  0.00    +0.210 A 
ATOM      2  N   LIG    1        1.222   6.267   0.069  0.00  0.00    -0.360 NA
ATOM      3  O   LIG    1        0.786   7.397   0.117  0.00  0.00    +0.110 OA
ATOM      4  C   LIG    1       -0.549   7.377   0.052  0.00  0.00    +0.200 A 
ATOM      5  N   LIG    1       -0.911   6.122  -0.048  0.00  0.00    -0.450 NA
ENDROOT
BRANCH   1  12
ATOM      6  F   LIG    1       -2.003   3.716  -0.241  0.00  0.00    -0.110 F 
ATOM      7  C   LIG    1       -0.781   3.140  -0.218  0.00  0.00    +0.120 A 
ATOM      8  C   LIG    1       -0.662   1.765  -0.301  0.00  0.00    +0.030 A 
ATOM      9  C   LIG    1        0.587   1.174  -0.272  0.00  0.00    +0.010 A 
ATOM     10  C   LIG    1        1.728   1.957  -0.169  0.00  0.00    +0.100 A 
ATOM     11  C   LIG    1        1.620   3.335  -0.090  0.00  0.00    +0.080 A 
ATOM     12  C   LIG    1        0.362   3.934  -0.114  0.00  0.00    -0.020 A 
BRANCH  10  13
ATOM     13  O   LIG    1        2.954   1.370  -0.146  0.00  0.00    -0.310 OA
BRANCH  13  14
ATOM     14  C   LIG    1        2.993  -0.056  -0.232  0.00  0.00    +0.600 C 
ATOM     15  F   LIG    1        2.402  -0.467  -1.431  0.00  0.00    -0.200 F 
ATOM     16  F   LIG    1        2.292  -0.607   0.846  0.00  0.00    -0.200 F 
ENDBRANCH  13  14
ENDBRANCH  10  13
ENDBRANCH   1  12
BRANCH   4  17
ATOM     17  C   LIG    1       -1.465   8.572   0.081  0.00  0.00    +0.240 C 
ATOM     18  C   LIG    1       -1.526   9.135   1.504  0.00  0.00    +0.250 C 
ATOM     19  O   LIG    1       -2.337  10.313   1.511  0.00  0.00    -0.370 OA
ATOM     20  C   LIG    1       -1.865  11.342   0.638  0.00  0.00    +0.240 C 
ATOM     21  C   LIG    1       -1.807  10.802  -0.794  0.00  0.00    +0.170 C 
ATOM     22  N   LIG    1       -0.951   9.608  -0.827  0.00  0.00    -0.520 NA
BRANCH  22  23
ATOM     23  C   LIG    1       -0.823   9.090  -2.196  0.00  0.00    +0.160 C 
ATOM     24  C   LIG    1       -0.135  10.138  -3.095  0.00  0.00    +0.040 C 
ATOM     25  C   LIG    1       -0.859  10.002  -4.458  0.00  0.00    +0.010 C 
ATOM     26  C   LIG    1       -2.329   9.746  -4.042  0.00  0.00    +0.020 C 
ATOM     27  C   LIG    1       -2.217   8.841  -2.798  0.00  0.00    -0.020 C 
ENDBRANCH  22  23
ENDBRANCH   4  17
TORSDOF 5
