REMARK  Name = ZINCpk00000y6uyy.0
REMARK                            x       y       z     vdW  Elec       q    Type
REMARK                         _______ _______ _______ _____ _____    ______ ____
ROOT
ATOM      1  C   LIG    1       -1.486   4.120  -0.158  0.00  0.00    +0.590 C 
ATOM      2  N   LIG    1       -2.832   4.078  -0.228  0.00  0.00    -0.590 N 
ATOM      3  C   LIG    1       -3.605   5.335  -0.363  0.00  0.00    +0.290 C 
ATOM      4  C   LIG    1       -4.052   5.514  -1.754  0.00  0.00    +0.000 C 
ATOM      5  C   LIG    1       -4.917   4.335  -2.233  0.00  0.00    +0.300 C 
ATOM      6  N   LIG    1       -4.040   3.247  -2.557  0.00  0.00    -0.600 N 
ATOM      7  C   LIG    1       -3.703   2.182  -1.573  0.00  0.00    +0.280 C 
ATOM      8  C   LIG    1       -3.514   2.815  -0.179  0.00  0.00    +0.270 C 
ATOM      9  O   LIG    1       -0.913   5.192  -0.108  0.00  0.00    -0.540 OA
ENDROOT
BRANCH   6  10
ATOM     10  C   LIG    1       -3.489   3.185  -3.830  0.00  0.00    +0.390 A 
ATOM     11  C   LIG    1       -3.199   1.969  -4.389  0.00  0.00    -0.050 A 
ATOM     12  C   LIG    1       -2.647   1.942  -5.681  0.00  0.00    +0.240 A 
ATOM     13  N   LIG    1       -2.259   0.985  -6.504  0.00  0.00    -0.300 NA
ATOM     14  N   LIG    1       -1.808   1.508  -7.591  0.00  0.00    -0.240 NA
ATOM     15  C   LIG    1       -1.878   2.812  -7.533  0.00  0.00    +0.350 A 
ATOM     16  N   LIG    1       -2.412   3.140  -6.322  0.00  0.00    -0.450 N 
ATOM     17  C   LIG    1       -2.721   4.308  -5.701  0.00  0.00    +0.590 A 
ATOM     18  N   LIG    1       -3.237   4.318  -4.504  0.00  0.00    -0.500 NA
ENDBRANCH   6  10
BRANCH   1  25
ATOM     19  C   LIG    1        1.564   3.869   0.320  0.00  0.00    +0.350 C 
ATOM     20  N   LIG    1        0.641   2.759   0.072  0.00  0.00    -0.400 N 
ATOM     21  C   LIG    1        0.981   1.447   0.009  0.00  0.00    +0.220 A 
ATOM     22  C   LIG    1       -0.136   0.717  -0.230  0.00  0.00    -0.120 A 
ATOM     23  C   LIG    1       -1.215   1.602  -0.327  0.00  0.00    +0.020 A 
ATOM     24 CL   LIG    1       -0.213  -1.010  -0.388  0.00  0.00    -0.040 Cl
ATOM     25  C   LIG    1       -0.714   2.873  -0.140  0.00  0.00    -0.040 A 
ENDBRANCH   1  25
TORSDOF 2
