REMARK  Name = ZINCvU000000054P.0
REMARK                            x       y       z     vdW  Elec       q    Type
REMARK                         _______ _______ _______ _____ _____    ______ ____
ROOT
ATOM      1  C   LIG    1        1.240   3.227  -0.026  0.00  0.00    +0.220 A 
ATOM      2  C   LIG    1        0.032   3.901   0.080  0.00  0.00    +0.010 A 
ATOM      3  C   LIG    1       -1.157   3.200   0.051  0.00  0.00    +0.080 A 
ATOM      4  C   LIG    1       -1.155   1.822  -0.089  0.00  0.00    -0.010 A 
ATOM      5  C   LIG    1        0.036   1.134  -0.190  0.00  0.00    +0.070 A 
ATOM      6  C   LIG    1        1.246   1.830  -0.162  0.00  0.00    -0.180 A 
ENDROOT
BRANCH   1   9
ATOM      7  O   LIG    1        1.653   5.346   1.524  0.00  0.00    -0.520 OA
ATOM      8  C   LIG    1        2.559   5.028   0.778  0.00  0.00    +0.560 C 
ATOM      9  N   LIG    1        2.440   3.932   0.003  0.00  0.00    -0.660 N 
ATOM     10  H   LIG    1        3.191   3.634  -0.534  0.00  0.00    +0.430 HD
BRANCH   8  11
ATOM     11  C   LIG    1        3.789   5.843   0.721  0.00  0.00    -0.140 A 
ATOM     12  C   LIG    1        3.904   6.972   1.516  0.00  0.00    +0.110 A 
ATOM     13  C   LIG    1        5.077   7.739   1.460  0.00  0.00    -0.070 A 
ATOM     14  C   LIG    1        5.233   8.888   2.255  0.00  0.00    +0.040 A 
ATOM     15  C   LIG    1        6.382   9.614   2.173  0.00  0.00    +0.010 A 
ATOM     16  C   LIG    1        7.409   9.234   1.311  0.00  0.00    +0.030 A 
ATOM     17  C   LIG    1        7.293   8.127   0.527  0.00  0.00    +0.020 A 
ATOM     18  C   LIG    1        6.123   7.353   0.583  0.00  0.00    -0.030 A 
ATOM     19  C   LIG    1        5.974   6.204  -0.215  0.00  0.00    +0.030 A 
ATOM     20  C   LIG    1        4.834   5.471  -0.144  0.00  0.00    +0.040 A 
ENDBRANCH   8  11
ENDBRANCH   1   9
BRANCH   6  21
ATOM     21  C   LIG    1        2.524   1.101  -0.275  0.00  0.00    +0.570 C 
ATOM     22  N   LIG    1        2.530  -0.247  -0.304  0.00  0.00    -0.660 N 
ATOM     23  H   LIG    1        1.703  -0.738  -0.181  0.00  0.00    +0.420 HD
ATOM     24  O   LIG    1        3.571   1.716  -0.342  0.00  0.00    -0.520 OA
BRANCH  22  25
ATOM     25  C   LIG    1        3.731  -0.937  -0.510  0.00  0.00    +0.150 A 
ATOM     26  C   LIG    1        3.735  -2.123  -1.230  0.00  0.00    +0.010 A 
ATOM     27  C   LIG    1        4.920  -2.803  -1.439  0.00  0.00    +0.060 A 
ATOM     28  C   LIG    1        6.106  -2.307  -0.922  0.00  0.00    +0.020 A 
ATOM     29  O   LIG    1        7.386  -2.780  -0.982  0.00  0.00    -0.310 OA
ATOM     30  C   LIG    1        8.100  -2.089   0.060  0.00  0.00    +0.430 C 
ATOM     31  O   LIG    1        7.383  -0.849   0.201  0.00  0.00    -0.310 OA
ATOM     32  C   LIG    1        6.104  -1.119  -0.194  0.00  0.00    +0.050 A 
ATOM     33  C   LIG    1        4.917  -0.437   0.010  0.00  0.00    +0.050 A 
ENDBRANCH  22  25
ENDBRANCH   6  21
TORSDOF 4
