REMARK  Name = ZINCrH00000tj1at.0
REMARK                            x       y       z     vdW  Elec       q    Type
REMARK                         _______ _______ _______ _____ _____    ______ ____
ROOT
ATOM      1  C   LIG    1        0.422   6.647  -2.005  0.00  0.00    +0.090 C 
ATOM      2  C   LIG    1        0.940   5.706  -0.948  0.00  0.00    -0.110 A 
ATOM      3  C   LIG    1        1.531   6.225   0.186  0.00  0.00    +0.050 A 
ATOM      4  C   LIG    1        2.026   5.411   1.194  0.00  0.00    +0.000 A 
ATOM      5  C   LIG    1        1.904   4.032   1.018  0.00  0.00    +0.150 A 
ATOM      6  N   LIG    1        2.306   3.002   1.850  0.00  0.00    -0.660 N 
ATOM      7  H   LIG    1        2.745   3.134   2.704  0.00  0.00    +0.410 HD
ATOM      8  C   LIG    1        2.014   1.790   1.331  0.00  0.00    +0.550 C 
ATOM      9  C   LIG    1        1.337   2.030   0.000  0.00  0.00    +0.210 C 
ATOM     10  N   LIG    1       -0.018   1.465   0.010  0.00  0.00    -0.650 NA
ATOM     11  H   LIG    1       -0.565   1.823  -0.758  0.00  0.00    +0.350 HD
ATOM     12  C   LIG    1        0.002  -0.004   0.002  0.00  0.00    +0.220 C 
ATOM     13  C   LIG    1        0.439  -0.519  -1.377  0.00  0.00    +0.070 C 
ATOM     14  C   LIG    1        1.705   0.206  -1.760  0.00  0.00    -0.150 A 
ATOM     15  C   LIG    1        2.612  -0.087  -2.697  0.00  0.00    +0.040 A 
ATOM     16  N   LIG    1        3.588   0.874  -2.657  0.00  0.00    -0.410 N 
ATOM     17  C   LIG    1        3.276   1.778  -1.677  0.00  0.00    +0.070 A 
ATOM     18  C   LIG    1        4.088   2.990  -1.301  0.00  0.00    +0.130 C 
ATOM     19  C   LIG    1        2.569  -1.267  -3.633  0.00  0.00    +0.130 C 
ATOM     20  C   LIG    1        2.126   1.396  -1.111  0.00  0.00    -0.190 A 
ATOM     21  O   LIG    1        2.249   0.713   1.837  0.00  0.00    -0.490 OA
ATOM     22  C   LIG    1        1.302   3.518  -0.138  0.00  0.00    -0.120 A 
ATOM     23  C   LIG    1        0.812   4.334  -1.135  0.00  0.00    +0.080 A 
ENDROOT
BRANCH  16  24
ATOM     24  C   LIG    1        4.719   0.923  -3.484  0.00  0.00    +0.120 A 
ATOM     25  C   LIG    1        4.875   1.963  -4.389  0.00  0.00    +0.020 A 
ATOM     26  C   LIG    1        5.992   2.011  -5.199  0.00  0.00    +0.020 A 
ATOM     27  C   LIG    1        6.951   1.019  -5.115  0.00  0.00    +0.020 A 
ATOM     28  C   LIG    1        6.797  -0.022  -4.218  0.00  0.00    +0.020 A 
ATOM     29  C   LIG    1        5.684  -0.072  -3.402  0.00  0.00    +0.020 A 
ENDBRANCH  16  24
TORSDOF 1
