REMARK  Name = ZINCrD00000F5Lws.0
REMARK                            x       y       z     vdW  Elec       q    Type
REMARK                         _______ _______ _______ _____ _____    ______ ____
ROOT
ATOM      1  C   LIG    1        1.152   3.178   0.008  0.00  0.00    -0.010 A 
ATOM      2  C   LIG    1        1.173   1.780   0.000  0.00  0.00    +0.020 A 
ATOM      3  C   LIG    1       -0.013   1.076   0.008  0.00  0.00    +0.130 A 
ATOM      4  C   LIG    1       -1.221   1.750   0.017  0.00  0.00    -0.670 A 
ATOM      5  C   LIG    1       -1.251   3.133   0.030  0.00  0.00    +0.120 A 
ATOM      6  C   LIG    1       -0.073   3.851   0.022  0.00  0.00    +0.010 A 
ENDROOT
BRANCH   4   7
ATOM      7  S   LIG    1       -2.731   0.841   0.020  0.00  0.00    +2.700 S 
ATOM      8  O   LIG    1       -2.433  -0.434  -0.532  0.00  0.00    -0.940 OA
ATOM      9  O   LIG    1       -3.722   1.708  -0.515  0.00  0.00    -0.940 OA
BRANCH   7  10
ATOM     10  N   LIG    1       -3.143   0.580   1.603  0.00  0.00    -0.940 N 
ATOM     11  C   LIG    1       -2.738  -0.584   2.395  0.00  0.00    +0.280 C 
ATOM     12  C   LIG    1       -3.361  -0.363   3.783  0.00  0.00    +0.100 C 
ATOM     13  C   LIG    1       -4.104   0.949   3.662  0.00  0.00    -0.130 A 
ATOM     14  C   LIG    1       -4.856   1.652   4.582  0.00  0.00    +0.050 A 
ATOM     15  C   LIG    1       -5.446   2.851   4.226  0.00  0.00    -0.010 A 
ATOM     16  C   LIG    1       -5.282   3.344   2.945  0.00  0.00    +0.040 A 
ATOM     17  C   LIG    1       -4.532   2.646   2.022  0.00  0.00    -0.010 A 
ATOM     18  C   LIG    1       -3.933   1.434   2.375  0.00  0.00    +0.160 A 
ENDBRANCH   7  10
ENDBRANCH   4   7
BRANCH   1  20
ATOM     19  C   LIG    1        2.389   5.285   0.007  0.00  0.00    -0.060 C 
ATOM     20  C   LIG    1        2.413   3.937   0.000  0.00  0.00    +0.100 C 
BRANCH  19  23
ATOM     21  N   LIG    1        3.619   7.387   0.007  0.00  0.00    -0.720 N 
ATOM     22  H   LIG    1        2.771   7.857   0.017  0.00  0.00    +0.400 HD
ATOM     23  C   LIG    1        3.644   6.040  -0.000  0.00  0.00    +0.550 C 
ATOM     24  O   LIG    1        4.708   5.450  -0.013  0.00  0.00    -0.540 OA
BRANCH  21  25
ATOM     25  C   LIG    1        4.875   8.143  -0.001  0.00  0.00    +0.230 C 
ATOM     26  C   LIG    1        5.363   8.305  -1.441  0.00  0.00    +0.020 C 
BRANCH  25  28
ATOM     27  C   LIG    1        4.275   9.364   2.095  0.00  0.00    +0.020 C 
ATOM     28  C   LIG    1        4.643   9.523   0.618  0.00  0.00    +0.020 C 
ENDBRANCH  25  28
ENDBRANCH  21  25
ENDBRANCH  19  23
ENDBRANCH   1  20
TORSDOF 6
