REMARK  Name = ZINCvU0000000G4q.0
REMARK                            x       y       z     vdW  Elec       q    Type
REMARK                         _______ _______ _______ _____ _____    ______ ____
ROOT
ATOM      1  C   LIG    1       -1.250   0.292  -1.878  0.00  0.00    -0.220 A 
ATOM      2  C   LIG    1       -2.512  -0.188  -1.837  0.00  0.00    +0.250 A 
ATOM      3  N   LIG    1       -2.703  -0.953  -2.944  0.00  0.00    -0.310 N 
ATOM      4  N   LIG    1       -1.516  -0.940  -3.689  0.00  0.00    -0.260 NA
ATOM      5  C   LIG    1       -0.642  -0.188  -3.054  0.00  0.00    +0.140 A 
ENDROOT
BRANCH   1  12
ATOM      6  C   LIG    1       -3.565   3.342   0.428  0.00  0.00    +0.120 C 
ATOM      7  C   LIG    1       -2.571   2.715  -0.515  0.00  0.00    +0.550 C 
ATOM      8  N   LIG    1       -1.636   1.867  -0.043  0.00  0.00    -0.470 N 
ATOM      9  N   LIG    1       -1.484   1.489   1.290  0.00  0.00    -0.220 NA
ATOM     10  C   LIG    1       -0.511   0.662   1.497  0.00  0.00    +0.180 C 
ATOM     11  C   LIG    1        0.173   0.356   0.184  0.00  0.00    +0.100 C 
ATOM     12  C   LIG    1       -0.610   1.189  -0.850  0.00  0.00    +0.300 C 
ATOM     13  O   LIG    1       -2.611   2.974  -1.700  0.00  0.00    -0.510 OA
BRANCH  10  14
ATOM     14  C   LIG    1       -0.130   0.106   2.799  0.00  0.00    +0.020 A 
ATOM     15  C   LIG    1       -0.736   0.372   3.993  0.00  0.00    +0.020 A 
ATOM     16  C   LIG    1       -0.049  -0.371   4.970  0.00  0.00    -0.060 A 
ATOM     17  C   LIG    1        0.931  -1.048   4.337  0.00  0.00    +0.200 A 
ATOM     18  O   LIG    1        0.877  -0.761   3.026  0.00  0.00    -0.160 OA
ENDBRANCH  10  14
ENDBRANCH   1  12
BRANCH   5  19
ATOM     19  C   LIG    1        0.745   0.099  -3.498  0.00  0.00    -0.000 A 
ATOM     20  C   LIG    1        1.254   1.393  -3.406  0.00  0.00    +0.040 A 
ATOM     21  C   LIG    1        2.546   1.655  -3.815  0.00  0.00    +0.040 A 
ATOM     22  C   LIG    1        3.332   0.638  -4.325  0.00  0.00    +0.040 A 
ATOM     23  C   LIG    1        2.830  -0.649  -4.424  0.00  0.00    -0.030 A 
ATOM     24 CL   LIG    1        3.823  -1.920  -5.065  0.00  0.00    -0.060 Cl
ATOM     25  C   LIG    1        1.540  -0.922  -4.012  0.00  0.00    +0.060 A 
ENDBRANCH   5  19
BRANCH   3  26
ATOM     26  C   LIG    1       -3.880  -1.634  -3.282  0.00  0.00    +0.160 A 
ATOM     27  C   LIG    1       -4.987  -1.565  -2.447  0.00  0.00    -0.010 A 
ATOM     28  C   LIG    1       -6.147  -2.234  -2.785  0.00  0.00    +0.040 A 
ATOM     29  C   LIG    1       -6.204  -2.979  -3.949  0.00  0.00    +0.000 A 
ATOM     30  C   LIG    1       -5.101  -3.054  -4.779  0.00  0.00    +0.040 A 
ATOM     31  C   LIG    1       -3.939  -2.384  -4.449  0.00  0.00    +0.020 A 
ENDBRANCH   3  26
TORSDOF 4
