REMARK  Name = ZINCtj00001ogBPh.0
REMARK                            x       y       z     vdW  Elec       q    Type
REMARK                         _______ _______ _______ _____ _____    ______ ____
ROOT
ATOM      1  C   LIG    1        2.329   1.305  -7.994  0.00  0.00    +0.500 C 
ATOM      2  N   LIG    1        1.607   0.730  -7.012  0.00  0.00    -0.580 N 
ATOM      3  C   LIG    1        0.375   0.059  -7.310  0.00  0.00    +0.270 C 
ATOM      4  C   LIG    1       -0.899   0.940  -7.301  0.00  0.00    +0.030 C 
ATOM      5  C   LIG    1       -0.857   1.926  -6.107  0.00  0.00    +0.040 C 
ATOM      6  C   LIG    1       -0.281   1.264  -4.889  0.00  0.00    +0.130 C 
ATOM      7  C   LIG    1        1.187   1.678  -4.858  0.00  0.00    -0.010 C 
ATOM      8  C   LIG    1        2.081   0.780  -5.587  0.00  0.00    +0.320 C 
ATOM      9  O   LIG    1        3.370   1.869  -7.730  0.00  0.00    -0.530 OA
ENDROOT
BRANCH   6  10
ATOM     10  O   LIG    1       -0.392  -0.157  -4.995  0.00  0.00    -0.540 OA
ATOM     11  H   LIG    1       -0.008  -0.638  -4.249  0.00  0.00    +0.380 HD
ENDBRANCH   6  10
BRANCH   1  12
ATOM     12  C   LIG    1        1.843   1.247  -9.419  0.00  0.00    +0.290 C 
BRANCH  12  17
ATOM     13  C   LIG    1        3.363   0.594 -13.491  0.00  0.00    +0.060 C 
ATOM     14  C   LIG    1        3.509   1.837 -12.611  0.00  0.00    -0.080 C 
ATOM     15  C   LIG    1        4.724   1.687 -11.667  0.00  0.00    +0.080 C 
ATOM     16  C   LIG    1        4.080   1.190 -10.348  0.00  0.00    +0.270 C 
ATOM     17  N   LIG    1        2.800   1.942 -10.291  0.00  0.00    -0.380 N 
ATOM     18  H   LIG    1        2.961   2.879  -9.954  0.00  0.00    +0.430 HD
ATOM     19  C   LIG    1        3.660   3.087 -13.480  0.00  0.00    +0.060 C 
ATOM     20  C   LIG    1        2.291   1.979 -11.679  0.00  0.00    +0.260 C 
ENDBRANCH  12  17
ENDBRANCH   1  12
BRANCH   6  21
ATOM     21  C   LIG    1       -0.997   1.758  -3.630  0.00  0.00    +0.260 C 
BRANCH  21  22
ATOM     22  N   LIG    1       -0.288   1.272  -2.443  0.00  0.00    -0.740 N 
ATOM     23  H   LIG    1        0.507   0.726  -2.543  0.00  0.00    +0.400 HD
ATOM     24  C   LIG    1       -0.742   1.585  -1.213  0.00  0.00    +0.520 C 
ATOM     25  O   LIG    1       -1.736   2.268  -1.088  0.00  0.00    -0.520 OA
BRANCH  24  26
ATOM     26  C   LIG    1       -0.013   1.086   0.008  0.00  0.00    +0.060 C 
BRANCH  26  27
ATOM     27  C   LIG    1       -0.729   1.579   1.267  0.00  0.00    +0.000 C 
ATOM     28  C   LIG    1       -0.632   3.106   1.346  0.00  0.00    +0.010 C 
ATOM     29  C   LIG    1       -1.282   3.584   2.647  0.00  0.00    +0.200 C 
ATOM     30  O   LIG    1       -0.638   2.957   3.758  0.00  0.00    -0.380 OA
ATOM     31  C   LIG    1       -0.736   1.532   3.762  0.00  0.00    +0.210 C 
ATOM     32  C   LIG    1       -0.064   0.972   2.506  0.00  0.00    -0.010 C 
ENDBRANCH  26  27
ENDBRANCH  24  26
ENDBRANCH  21  22
ENDBRANCH   6  21
TORSDOF 7
