REMARK  Name = ZINCtj00001ogBPh.1
REMARK                            x       y       z     vdW  Elec       q    Type
REMARK                         _______ _______ _______ _____ _____    ______ ____
ROOT
ATOM      1  C   LIG    1        5.203  -0.430   0.076  0.00  0.00    +0.510 C 
ATOM      2  N   LIG    1        4.218  -1.174  -0.465  0.00  0.00    -0.570 N 
ATOM      3  C   LIG    1        3.905  -2.538   0.079  0.00  0.00    +0.290 C 
ATOM      4  C   LIG    1        2.613  -2.456   0.759  0.00  0.00    +0.030 C 
ATOM      5  C   LIG    1        1.465  -1.991  -0.130  0.00  0.00    +0.060 C 
ATOM      6  C   LIG    1        1.451  -0.494  -0.015  0.00  0.00    +0.130 C 
ATOM      7  C   LIG    1        2.196   0.156  -1.206  0.00  0.00    +0.000 C 
ATOM      8  C   LIG    1        3.451  -0.675  -1.569  0.00  0.00    +0.290 C 
ATOM      9  O   LIG    1        5.448   0.670  -0.371  0.00  0.00    -0.530 OA
ENDROOT
BRANCH   6  10
ATOM     10  O   LIG    1        2.091  -0.111   1.205  0.00  0.00    -0.550 OA
ATOM     11  H   LIG    1        2.112   0.844   1.355  0.00  0.00    +0.370 HD
ENDBRANCH   6  10
BRANCH   1  12
ATOM     12  C   LIG    1        6.002  -0.967   1.237  0.00  0.00    +0.280 C 
BRANCH  12  17
ATOM     13  C   LIG    1       10.165  -1.163   2.630  0.00  0.00    +0.060 C 
ATOM     14  C   LIG    1        9.207   0.029   2.666  0.00  0.00    -0.080 C 
ATOM     15  C   LIG    1        9.238   0.783   1.316  0.00  0.00    +0.080 C 
ATOM     16  C   LIG    1        8.016   0.199   0.565  0.00  0.00    +0.270 C 
ATOM     17  N   LIG    1        7.006   0.026   1.640  0.00  0.00    -0.380 N 
ATOM     18  H   LIG    1        6.562   0.908   1.845  0.00  0.00    +0.430 HD
ATOM     19  C   LIG    1        9.579   0.974   3.810  0.00  0.00    +0.060 C 
ATOM     20  C   LIG    1        7.754  -0.456   2.821  0.00  0.00    +0.260 C 
ENDBRANCH  12  17
ENDBRANCH   1  12
BRANCH   6  21
ATOM     21  C   LIG    1        0.002  -0.004   0.002  0.00  0.00    +0.250 C 
BRANCH  21  22
ATOM     22  N   LIG    1       -0.018   1.461   0.010  0.00  0.00    -0.740 N 
ATOM     23  H   LIG    1        0.816   1.957   0.005  0.00  0.00    +0.390 HD
ATOM     24  C   LIG    1       -1.194   2.119   0.019  0.00  0.00    +0.510 C 
ATOM     25  O   LIG    1       -2.236   1.498   0.021  0.00  0.00    -0.520 OA
BRANCH  24  26
ATOM     26  C   LIG    1       -1.214   3.626   0.028  0.00  0.00    +0.050 C 
BRANCH  26  27
ATOM     27  C   LIG    1       -2.664   4.116   0.037  0.00  0.00    +0.010 C 
ATOM     28  C   LIG    1       -3.348   3.719  -1.275  0.00  0.00    +0.010 C 
ATOM     29  C   LIG    1       -4.771   4.281  -1.290  0.00  0.00    +0.200 C 
ATOM     30  O   LIG    1       -4.723   5.701  -1.130  0.00  0.00    -0.380 OA
ATOM     31  C   LIG    1       -4.137   6.130   0.101  0.00  0.00    +0.210 C 
ATOM     32  C   LIG    1       -2.688   5.642   0.171  0.00  0.00    -0.010 C 
ENDBRANCH  26  27
ENDBRANCH  24  26
ENDBRANCH  21  22
ENDBRANCH   6  21
TORSDOF 7
