REMARK  Name = ZINCpk00000xI9Lp.0
REMARK                            x       y       z     vdW  Elec       q    Type
REMARK                         _______ _______ _______ _____ _____    ______ ____
ROOT
ATOM      1  N   LIG    1        1.411  -2.590  -2.284  0.00  0.00    -0.530 NA
ATOM      2  C   LIG    1        2.696  -1.891  -2.408  0.00  0.00    +0.200 C 
ATOM      3  C   LIG    1        3.386  -2.316  -3.706  0.00  0.00    +0.050 C 
ATOM      4  C   LIG    1        3.607  -3.832  -3.688  0.00  0.00    +0.210 C 
ATOM      5  C   LIG    1        2.258  -4.534  -3.510  0.00  0.00    +0.090 C 
ATOM      6  C   LIG    1        1.601  -4.044  -2.217  0.00  0.00    +0.200 C 
ENDROOT
BRANCH   4   7
ATOM      7  C   LIG    1        4.232  -4.266  -4.989  0.00  0.00    +0.160 A 
ATOM      8  N   LIG    1        5.425  -3.942  -5.428  0.00  0.00    -0.470 NA
ATOM      9  C   LIG    1        5.550  -4.554  -6.619  0.00  0.00    +0.180 A 
ATOM     10  N   LIG    1        4.448  -5.207  -6.839  0.00  0.00    -0.370 NA
ATOM     11  O   LIG    1        3.680  -5.059  -5.912  0.00  0.00    +0.090 OA
BRANCH   9  12
ATOM     12  C   LIG    1        6.748  -4.495  -7.531  0.00  0.00    +0.100 C 
ATOM     13  C   LIG    1        6.334  -3.909  -8.884  0.00  0.00    +0.010 C 
ATOM     14  C   LIG    1        7.539  -3.925  -9.829  0.00  0.00    +0.220 C 
ATOM     15  O   LIG    1        8.021  -5.264  -9.961  0.00  0.00    -0.380 OA
ATOM     16  C   LIG    1        8.466  -5.847  -8.735  0.00  0.00    +0.220 C 
ATOM     17  C   LIG    1        7.299  -5.908  -7.746  0.00  0.00    +0.010 C 
ENDBRANCH   9  12
ENDBRANCH   4   7
BRANCH   4  18
ATOM     18  O   LIG    1        4.472  -4.176  -2.604  0.00  0.00    -0.350 OA
ATOM     19  C   LIG    1        5.763  -3.569  -2.676  0.00  0.00    +0.220 C 
ENDBRANCH   4  18
BRANCH   1  20
ATOM     20  C   LIG    1        0.657  -2.104  -1.120  0.00  0.00    +0.260 C 
BRANCH  20  21
ATOM     21  C   LIG    1       -0.748  -2.644  -1.169  0.00  0.00    +0.460 C 
ATOM     22  O   LIG    1       -1.122  -3.266  -2.135  0.00  0.00    -0.490 OA
BRANCH  21  23
ATOM     23  O   LIG    1       -1.585  -2.435  -0.141  0.00  0.00    -0.360 OA
BRANCH  23  25
ATOM     24  C   LIG    1       -3.725  -2.647   1.002  0.00  0.00    +0.070 C 
ATOM     25  C   LIG    1       -2.924  -2.985  -0.257  0.00  0.00    +0.200 C 
ENDBRANCH  23  25
ENDBRANCH  21  23
ENDBRANCH  20  21
ENDBRANCH   1  20
TORSDOF 7
