REMARK  Name = ZINCpk00001AZj41.0
REMARK                            x       y       z     vdW  Elec       q    Type
REMARK                         _______ _______ _______ _____ _____    ______ ____
ROOT
ATOM      1  C   LIG    1        6.900  -4.912   1.332  0.00  0.00    +0.570 C 
ATOM      2  N   LIG    1        5.939  -5.259   0.453  0.00  0.00    -0.600 N 
ATOM      3  C   LIG    1        6.119  -6.415  -0.435  0.00  0.00    +0.260 C 
ATOM      4  C   LIG    1        5.889  -5.966  -1.882  0.00  0.00    +0.030 C 
ATOM      5  C   LIG    1        4.519  -5.295  -1.993  0.00  0.00    +0.060 C 
ATOM      6  C   LIG    1        4.479  -4.060  -1.091  0.00  0.00    +0.130 C 
ATOM      7  C   LIG    1        4.692  -4.487   0.365  0.00  0.00    +0.260 C 
ATOM      8  O   LIG    1        6.774  -3.908   2.006  0.00  0.00    -0.520 OA
ENDROOT
BRANCH   1  13
ATOM      9  C   LIG    1       10.484  -5.963   1.833  0.00  0.00    -0.020 A 
ATOM     10  C   LIG    1       10.365  -7.351   1.748  0.00  0.00    +0.100 A 
ATOM     11  C   LIG    1        9.130  -7.930   1.530  0.00  0.00    +0.020 A 
ATOM     12  C   LIG    1        8.004  -7.144   1.401  0.00  0.00    +0.090 A 
ATOM     13  C   LIG    1        8.106  -5.753   1.478  0.00  0.00    -0.170 A 
ATOM     14  C   LIG    1        9.350  -5.159   1.698  0.00  0.00    +0.170 A 
ATOM     15  F   LIG    1        9.457  -3.815   1.778  0.00  0.00    -0.110 F 
BRANCH   9  17
ATOM     16  C   LIG    1       12.816  -4.874   2.243  0.00  0.00    +0.090 C 
ATOM     17  C   LIG    1       11.765  -5.365   2.059  0.00  0.00    -0.170 C 
ENDBRANCH   9  17
ENDBRANCH   1  13
BRANCH   6  18
ATOM     18  O   LIG    1        5.513  -3.153  -1.478  0.00  0.00    -0.550 OA
ATOM     19  H   LIG    1        5.548  -2.345  -0.947  0.00  0.00    +0.380 HD
ENDBRANCH   6  18
BRANCH   6  20
ATOM     20  C   LIG    1        3.119  -3.371  -1.227  0.00  0.00    +0.010 C 
BRANCH  20  21
ATOM     21  C   LIG    1        3.079  -2.137  -0.324  0.00  0.00    +0.250 C 
BRANCH  21  22
ATOM     22  N   LIG    1        1.777  -1.478  -0.454  0.00  0.00    -0.730 N 
ATOM     23  H   LIG    1        1.105  -1.845  -1.050  0.00  0.00    +0.400 HD
ATOM     24  C   LIG    1        1.513  -0.362   0.253  0.00  0.00    +0.540 C 
ATOM     25  O   LIG    1        2.355   0.098   1.000  0.00  0.00    -0.540 OA
BRANCH  24  26
ATOM     26  C   LIG    1        0.206   0.299   0.122  0.00  0.00    -0.090 C 
ATOM     27  C   LIG    1       -0.055   1.401   0.821  0.00  0.00    +0.150 C 
ENDBRANCH  24  26
ENDBRANCH  21  22
ENDBRANCH  20  21
ENDBRANCH   6  20
TORSDOF 7
