REMARK  Name = ZINCpk00000y6vXL.0
REMARK                            x       y       z     vdW  Elec       q    Type
REMARK                         _______ _______ _______ _____ _____    ______ ____
ROOT
ATOM      1  N   LIG    1       -1.782  -1.030  -1.305  0.00  0.00    -0.540 NA
ATOM      2  C   LIG    1       -0.992  -2.010  -2.053  0.00  0.00    +0.230 C 
ATOM      3  C   LIG    1       -1.823  -2.580  -3.206  0.00  0.00    -0.320 C 
ATOM      4  S   LIG    1       -2.239  -1.227  -4.348  0.00  0.00    +2.410 S 
ATOM      5  C   LIG    1       -2.961  -0.014  -3.202  0.00  0.00    -0.310 C 
ATOM      6  O   LIG    1       -3.252  -1.677  -5.238  0.00  0.00    -0.940 OA
ATOM      7  O   LIG    1       -1.034  -0.692  -4.878  0.00  0.00    -0.940 OA
ATOM      8  C   LIG    1       -1.979   0.216  -2.049  0.00  0.00    +0.250 C 
ENDROOT
BRANCH   8   9
ATOM      9  C   LIG    1       -2.531   1.270  -1.124  0.00  0.00    -0.240 A 
ATOM     10  C   LIG    1       -2.072   2.536  -0.995  0.00  0.00    +0.250 A 
ATOM     11  N   LIG    1       -2.832   3.157  -0.069  0.00  0.00    -0.370 N 
ATOM     12  N   LIG    1       -3.790   2.243   0.386  0.00  0.00    -0.290 NA
ATOM     13  C   LIG    1       -2.681   4.543   0.381  0.00  0.00    +0.360 C 
ATOM     14  C   LIG    1       -3.613   1.114  -0.251  0.00  0.00    +0.260 A 
ENDBRANCH   8   9
BRANCH   1  15
ATOM     15  C   LIG    1       -1.187  -0.768   0.012  0.00  0.00    +0.270 C 
BRANCH  15  23
ATOM     16  C   LIG    1        0.208  -2.726   0.751  0.00  0.00    +0.330 A 
ATOM     17  N   LIG    1        0.362  -3.867   1.401  0.00  0.00    -0.540 NA
ATOM     18  C   LIG    1       -0.630  -4.422   2.071  0.00  0.00    +0.170 A 
ATOM     19  C   LIG    1       -1.874  -3.825   2.117  0.00  0.00    -0.070 A 
ATOM     20  C   LIG    1       -2.077  -2.625   1.447  0.00  0.00    +0.020 A 
ATOM     21  C   LIG    1       -3.421  -1.944   1.476  0.00  0.00    +0.120 C 
ATOM     22  C   LIG    1       -0.404  -5.724   2.795  0.00  0.00    +0.130 C 
ATOM     23  C   LIG    1       -1.016  -2.069   0.754  0.00  0.00    -0.170 A 
BRANCH  16  25
ATOM     24  C   LIG    1        2.515  -2.855   0.198  0.00  0.00    +0.260 C 
ATOM     25  O   LIG    1        1.254  -2.194   0.070  0.00  0.00    -0.310 OA
ENDBRANCH  16  25
ENDBRANCH  15  23
ENDBRANCH   1  15
TORSDOF 4
