REMARK  Name = ZINCrD000000A5Ac.0
REMARK                            x       y       z     vdW  Elec       q    Type
REMARK                         _______ _______ _______ _____ _____    ______ ____
ROOT
ATOM      1  C   LIG    1        3.597  -1.845  -0.048  0.00  0.00    +0.540 C 
ATOM      2  N   LIG    1        3.754  -0.506  -0.044  0.00  0.00    -0.650 N 
ATOM      3  H   LIG    1        4.639  -0.122   0.055  0.00  0.00    +0.420 HD
ATOM      4  O   LIG    1        2.494  -2.326  -0.199  0.00  0.00    -0.510 OA
ENDROOT
BRANCH   2   5
ATOM      5  C   LIG    1        2.639   0.330  -0.185  0.00  0.00    +0.120 A 
ATOM      6  C   LIG    1        1.478  -0.151  -0.772  0.00  0.00    +0.070 A 
ATOM      7  C   LIG    1        0.379   0.676  -0.910  0.00  0.00    +0.000 A 
ATOM      8  C   LIG    1        0.434   1.984  -0.464  0.00  0.00    +0.030 A 
ATOM      9  C   LIG    1        1.587   2.471   0.123  0.00  0.00    -0.040 A 
ATOM     10  C   LIG    1        2.693   1.648   0.265  0.00  0.00    +0.090 A 
BRANCH  10  11
ATOM     11  O   LIG    1        3.828   2.126   0.841  0.00  0.00    -0.260 OA
BRANCH  11  12
ATOM     12  C   LIG    1        3.802   3.382   1.356  0.00  0.00    +0.080 A 
ATOM     13  C   LIG    1        4.434   4.421   0.688  0.00  0.00    +0.010 A 
ATOM     14  C   LIG    1        4.402   5.699   1.212  0.00  0.00    +0.030 A 
ATOM     15  C   LIG    1        3.749   5.941   2.406  0.00  0.00    +0.010 A 
ATOM     16  C   LIG    1        3.123   4.907   3.077  0.00  0.00    +0.030 A 
ATOM     17  C   LIG    1        3.147   3.629   2.555  0.00  0.00    +0.000 A 
ENDBRANCH  11  12
ENDBRANCH  10  11
ENDBRANCH   2   5
BRANCH   1  18
ATOM     18  C   LIG    1        4.792  -2.744   0.138  0.00  0.00    +0.100 C 
BRANCH  18  19
ATOM     19  S   LIG    1        4.259  -4.473   0.086  0.00  0.00    +0.120 S 
BRANCH  19  21
ATOM     20  N   LIG    1        6.025  -6.625   0.372  0.00  0.00    -0.300 N 
ATOM     21  C   LIG    1        5.809  -5.278   0.321  0.00  0.00    +0.170 A 
ATOM     22  N   LIG    1        6.976  -4.695   0.475  0.00  0.00    -0.290 NA
ATOM     23  N   LIG    1        7.892  -5.585   0.624  0.00  0.00    -0.270 NA
ATOM     24  C   LIG    1        7.370  -6.778   0.567  0.00  0.00    +0.190 A 
BRANCH  20  25
ATOM     25  N   LIG    1        5.092  -7.615   0.253  0.00  0.00    -0.580 N 
ATOM     26  H   LIG    1        5.329  -8.408   0.831  0.00  0.00    +0.380 HD
ATOM     27  H   LIG    1        4.979  -7.891  -0.711  0.00  0.00    +0.370 HD
ENDBRANCH  20  25
BRANCH  24  28
ATOM     28  C   LIG    1        8.112  -8.083   0.693  0.00  0.00    +0.020 C 
ATOM     29  C   LIG    1        9.584  -8.023   1.108  0.00  0.00    +0.080 C 
ATOM     30  C   LIG    1        9.209  -8.374  -0.333  0.00  0.00    +0.060 C 
ENDBRANCH  24  28
ENDBRANCH  19  21
ENDBRANCH  18  19
ENDBRANCH   1  18
TORSDOF 8
