REMARK  Name = ZINCvU00000009Y2.0
REMARK                            x       y       z     vdW  Elec       q    Type
REMARK                         _______ _______ _______ _____ _____    ______ ____
ROOT
ATOM      1  N   LIG    1        3.395   2.336  -0.017  0.00  0.00    -0.490 N 
ATOM      2  C   LIG    1        2.404   1.375  -0.013  0.00  0.00    +0.050 A 
ATOM      3  C   LIG    1        2.403  -0.013  -0.021  0.00  0.00    +0.010 A 
ATOM      4  C   LIG    1        1.205  -0.695  -0.014  0.00  0.00    +0.030 A 
ATOM      5  C   LIG    1        0.002  -0.004   0.002  0.00  0.00    +0.000 A 
ATOM      6  C   LIG    1       -0.017   1.362   0.009  0.00  0.00    +0.070 A 
ATOM      7  C   LIG    1        1.185   2.075   0.002  0.00  0.00    +0.050 A 
ATOM      8  N   LIG    1        1.489   3.398   0.007  0.00  0.00    -0.480 NA
ATOM      9  C   LIG    1        2.781   3.550  -0.004  0.00  0.00    +0.290 A 
ENDROOT
BRANCH   1  10
ATOM     10  C   LIG    1        4.840   2.093  -0.033  0.00  0.00    +0.310 C 
BRANCH  10  11
ATOM     11  C   LIG    1        5.329   2.018  -1.480  0.00  0.00    +0.030 C 
BRANCH  11  12
ATOM     12  C   LIG    1        6.838   1.765  -1.496  0.00  0.00    +0.210 C 
BRANCH  12  13
ATOM     13  O   LIG    1        7.295   1.694  -2.848  0.00  0.00    -0.310 OA
BRANCH  13  19
ATOM     14  C   LIG    1       11.040   1.081  -5.918  0.00  0.00    +0.100 C 
ATOM     15  C   LIG    1       10.483   1.167  -4.520  0.00  0.00    -0.050 A 
ATOM     16  C   LIG    1       11.323   1.020  -3.432  0.00  0.00    -0.040 A 
ATOM     17  C   LIG    1       10.815   1.099  -2.148  0.00  0.00    +0.050 A 
ATOM     18  C   LIG    1        9.467   1.331  -1.950  0.00  0.00    -0.090 A 
ATOM     19  C   LIG    1        8.621   1.472  -3.041  0.00  0.00    +0.130 A 
ATOM     20  C   LIG    1        9.133   1.393  -4.327  0.00  0.00    -0.020 A 
ENDBRANCH  13  19
ENDBRANCH  12  13
ENDBRANCH  11  12
ENDBRANCH  10  11
ENDBRANCH   1  10
BRANCH   9  21
ATOM     21  C   LIG    1        3.494   4.878  -0.002  0.00  0.00    +0.150 C 
BRANCH  21  22
ATOM     22  C   LIG    1        3.723   5.336  -1.444  0.00  0.00    +0.270 C 
BRANCH  22  23
ATOM     23  N   LIG    1        4.416   6.627  -1.442  0.00  0.00    -0.730 N 
ATOM     24  H   LIG    1        4.653   7.049  -0.602  0.00  0.00    +0.400 HD
ATOM     25  C   LIG    1        4.724   7.228  -2.608  0.00  0.00    +0.520 C 
ATOM     26  O   LIG    1        4.428   6.700  -3.659  0.00  0.00    -0.530 OA
BRANCH  25  27
ATOM     27  C   LIG    1        5.437   8.555  -2.607  0.00  0.00    +0.000 C 
ATOM     28  C   LIG    1        4.585   9.591  -1.871  0.00  0.00    +0.030 C 
ATOM     29  C   LIG    1        5.309  10.939  -1.869  0.00  0.00    +0.010 C 
ATOM     30  C   LIG    1        5.537  11.397  -3.311  0.00  0.00    +0.000 C 
ATOM     31  C   LIG    1        6.390  10.361  -4.046  0.00  0.00    +0.010 C 
ATOM     32  C   LIG    1        5.666   9.014  -4.048  0.00  0.00    +0.040 C 
ENDBRANCH  25  27
ENDBRANCH  22  23
ENDBRANCH  21  22
ENDBRANCH   9  21
TORSDOF 9
