REMARK  Name = ZINCqH0000032lF2.0
REMARK                            x       y       z     vdW  Elec       q    Type
REMARK                         _______ _______ _______ _____ _____    ______ ____
ROOT
ATOM      1  C   LIG    1        3.782   2.553   0.322  0.00  0.00    +0.570 C 
ATOM      2  N   LIG    1        4.798   1.670   0.394  0.00  0.00    -0.600 N 
ATOM      3  C   LIG    1        4.516   0.234   0.472  0.00  0.00    +0.300 C 
ATOM      4  O   LIG    1        4.015   3.736   0.164  0.00  0.00    -0.510 OA
ENDROOT
BRANCH   1  10
ATOM      5  C   LIG    1        1.341   3.013   0.475  0.00  0.00    +0.150 A 
ATOM      6  C   LIG    1        0.031   2.551   0.581  0.00  0.00    -0.030 A 
ATOM      7  C   LIG    1       -0.183   1.185   0.643  0.00  0.00    +0.040 A 
ATOM      8  C   LIG    1        0.902   0.323   0.597  0.00  0.00    +0.220 A 
ATOM      9  N   LIG    1        2.130   0.781   0.497  0.00  0.00    -0.410 NA
ATOM     10  C   LIG    1        2.385   2.083   0.434  0.00  0.00    +0.040 A 
BRANCH   5  11
ATOM     11  O   LIG    1        1.599   4.343   0.411  0.00  0.00    -0.270 OA
BRANCH  11  13
ATOM     12  C   LIG    1        0.994   6.579   1.102  0.00  0.00    +0.070 C 
ATOM     13  C   LIG    1        0.491   5.229   0.587  0.00  0.00    +0.140 C 
ATOM     14  C   LIG    1       -0.221   5.427  -0.753  0.00  0.00    +0.030 C 
ENDBRANCH  11  13
ENDBRANCH   5  11
ENDBRANCH   1  10
BRANCH   2  15
ATOM     15  C   LIG    1        6.184   2.146   0.394  0.00  0.00    +0.350 C 
BRANCH  15  16
ATOM     16  C   LIG    1        6.659   2.306   1.815  0.00  0.00    -0.110 A 
ATOM     17  C   LIG    1        5.878   1.855   2.861  0.00  0.00    +0.030 A 
ATOM     18  C   LIG    1        6.316   1.997   4.165  0.00  0.00    -0.020 A 
ATOM     19  C   LIG    1        7.532   2.601   4.427  0.00  0.00    +0.020 A 
ATOM     20  C   LIG    1        8.316   3.059   3.386  0.00  0.00    -0.040 A 
ATOM     21  C   LIG    1        7.882   2.913   2.075  0.00  0.00    +0.110 A 
BRANCH  21  22
ATOM     22  N   LIG    1        8.672   3.375   1.020  0.00  0.00    -0.470 N 
ATOM     23  C   LIG    1        9.943   3.956   1.523  0.00  0.00    +0.180 C 
ATOM     24  C   LIG    1       10.867   3.915   0.280  0.00  0.00    +0.040 C 
ATOM     25  C   LIG    1       10.475   2.582  -0.399  0.00  0.00    +0.020 C 
ATOM     26  C   LIG    1        9.062   2.265   0.124  0.00  0.00    +0.170 C 
ENDBRANCH  21  22
ENDBRANCH  15  16
ENDBRANCH   2  15
TORSDOF 6
