REMARK  Name = ZINCb700000010j4.0
REMARK                            x       y       z     vdW  Elec       q    Type
REMARK                         _______ _______ _______ _____ _____    ______ ____
ROOT
ATOM      1  C   LIG    1       -0.668  -0.705   0.938  0.00  0.00    +0.650 C 
ATOM      2  N   LIG    1        0.002  -0.004   0.002  0.00  0.00    -0.600 N 
ATOM      3  C   LIG    1       -0.018   1.465   0.010  0.00  0.00    +0.290 C 
ATOM      4  C   LIG    1        1.426   1.978  -0.001  0.00  0.00    +0.050 C 
ATOM      5  C   LIG    1        2.171   1.366  -1.189  0.00  0.00    +0.050 C 
ATOM      6  C   LIG    1        2.201  -0.158  -1.045  0.00  0.00    +0.160 C 
ATOM      7  C   LIG    1        0.766  -0.695  -1.046  0.00  0.00    +0.330 C 
ATOM      8  O   LIG    1       -0.644  -1.920   0.920  0.00  0.00    -0.560 OA
ENDROOT
BRANCH   6   9
ATOM      9  N   LIG    1        2.944  -0.742  -2.170  0.00  0.00    -0.630 N 
ATOM     10  H   LIG    1        2.961  -1.746  -2.076  0.00  0.00    +0.440 HD
ATOM     11  H   LIG    1        3.889  -0.388  -2.169  0.00  0.00    +0.440 HD
ATOM     12  H   LIG    1        2.492  -0.493  -3.037  0.00  0.00    +0.440 HD
ENDBRANCH   6   9
BRANCH   1  14
ATOM     13  C   LIG    1       -2.062  -0.878   2.868  0.00  0.00    +0.300 C 
ATOM     14  O   LIG    1       -1.364  -0.059   1.892  0.00  0.00    -0.360 OA
ENDBRANCH   1  14
TORSDOF 2
