REMARK  Name = ZINCrD00000l54Vv.0
REMARK                            x       y       z     vdW  Elec       q    Type
REMARK                         _______ _______ _______ _____ _____    ______ ____
ROOT
ATOM      1  N   LIG    1        0.002   0.945   0.546  0.00  0.00    -0.700 N 
ATOM      2  H   LIG    1        0.012  -0.021   0.463  0.00  0.00    +0.410 HD
ATOM      3  C   LIG    1        1.148   1.644   0.427  0.00  0.00    +0.600 C 
ATOM      4  O   LIG    1        1.123   2.860   0.437  0.00  0.00    -0.530 OA
ENDROOT
BRANCH   3   5
ATOM      5  C   LIG    1        2.430   0.935   0.285  0.00  0.00    -0.040 A 
ATOM      6  C   LIG    1        2.617  -0.432   0.215  0.00  0.00    -0.010 A 
ATOM      7  C   LIG    1        4.006  -0.611   0.082  0.00  0.00    +0.060 A 
ATOM      8  N   LIG    1        4.562   0.582   0.085  0.00  0.00    -0.260 NA
ATOM      9  N   LIG    1        3.672   1.500   0.201  0.00  0.00    -0.250 N 
ATOM     10  C   LIG    1        3.947   2.938   0.240  0.00  0.00    +0.380 C 
BRANCH   7  11
ATOM     11  C   LIG    1        4.715  -1.910  -0.036  0.00  0.00    -0.000 A 
ATOM     12  C   LIG    1        3.996  -3.103  -0.019  0.00  0.00    +0.050 A 
ATOM     13  C   LIG    1        4.660  -4.308  -0.134  0.00  0.00    +0.030 A 
ATOM     14  C   LIG    1        6.039  -4.332  -0.255  0.00  0.00    -0.030 A 
ATOM     15  C   LIG    1        6.758  -3.149  -0.267  0.00  0.00    +0.030 A 
ATOM     16 CL   LIG    1        6.868  -5.851  -0.391  0.00  0.00    -0.070 Cl
ATOM     17  C   LIG    1        6.103  -1.940  -0.158  0.00  0.00    +0.060 A 
ENDBRANCH   7  11
ENDBRANCH   3   5
BRANCH   1  18
ATOM     18  C   LIG    1       -1.261   1.646   0.793  0.00  0.00    +0.320 C 
BRANCH  18  19
ATOM     19  C   LIG    1       -2.407   0.810   0.286  0.00  0.00    -0.120 A 
ATOM     20  C   LIG    1       -2.405  -0.561   0.462  0.00  0.00    +0.280 A 
ATOM     21  N   LIG    1       -3.404  -1.300   0.021  0.00  0.00    -0.450 NA
ATOM     22  C   LIG    1       -4.438  -0.770  -0.601  0.00  0.00    +0.250 A 
ATOM     23  C   LIG    1       -4.511   0.596  -0.814  0.00  0.00    +0.050 A 
ATOM     24  F   LIG    1       -5.574   1.134  -1.451  0.00  0.00    -0.130 F 
ATOM     25  C   LIG    1       -3.480   1.407  -0.358  0.00  0.00    +0.050 A 
ENDBRANCH  18  19
BRANCH  18  26
ATOM     26  C   LIG    1       -1.427   1.881   2.296  0.00  0.00    +0.190 C 
BRANCH  26  28
ATOM     27  C   LIG    1       -1.716   0.732   4.380  0.00  0.00    +0.200 C 
ATOM     28  O   LIG    1       -1.555   0.625   2.964  0.00  0.00    -0.390 OA
ENDBRANCH  26  28
ENDBRANCH  18  26
ENDBRANCH   1  18
TORSDOF 6
