REMARK  Name = ZINCqH0000033eZm.0
REMARK                            x       y       z     vdW  Elec       q    Type
REMARK                         _______ _______ _______ _____ _____    ______ ____
ROOT
ATOM      1  N   LIG    1       -8.373   0.135   1.001  0.00  0.00    -0.590 N 
ATOM      2  C   LIG    1       -7.306  -0.452   1.578  0.00  0.00    +0.530 C 
ATOM      3  O   LIG    1       -6.191  -0.232   1.156  0.00  0.00    -0.510 OA
ENDROOT
BRANCH   2   4
ATOM      4  C   LIG    1       -7.500  -1.383   2.748  0.00  0.00    +0.180 C 
ATOM      5  C   LIG    1       -8.171  -2.701   2.294  0.00  0.00    +0.100 C 
ATOM      6  C   LIG    1       -7.479  -3.725   3.172  0.00  0.00    -0.170 A 
ATOM      7  C   LIG    1       -7.788  -5.029   3.491  0.00  0.00    +0.060 A 
ATOM      8  C   LIG    1       -6.975  -5.740   4.357  0.00  0.00    -0.020 A 
ATOM      9  C   LIG    1       -5.857  -5.135   4.902  0.00  0.00    +0.050 A 
ATOM     10  C   LIG    1       -5.547  -3.829   4.584  0.00  0.00    +0.000 A 
ATOM     11  C   LIG    1       -6.357  -3.108   3.711  0.00  0.00    +0.100 A 
ATOM     12  O   LIG    1       -6.232  -1.831   3.257  0.00  0.00    -0.270 OA
ENDBRANCH   2   4
BRANCH   1  14
ATOM     13  C   LIG    1      -10.067   0.892   2.595  0.00  0.00    +0.010 C 
ATOM     14  C   LIG    1       -9.721  -0.130   1.511  0.00  0.00    +0.270 C 
ENDBRANCH   1  14
BRANCH   1  15
ATOM     15  C   LIG    1       -8.185   1.040  -0.136  0.00  0.00    +0.340 C 
BRANCH  15  16
ATOM     16  C   LIG    1       -8.242   0.253  -1.419  0.00  0.00    +0.510 C 
ATOM     17  N   LIG    1       -8.093   0.881  -2.603  0.00  0.00    -0.690 N 
ATOM     18  H   LIG    1       -8.022   1.847  -2.633  0.00  0.00    +0.410 HD
ATOM     19  O   LIG    1       -8.422  -0.947  -1.388  0.00  0.00    -0.510 OA
BRANCH  17  20
ATOM     20  C   LIG    1       -8.041   0.137  -3.788  0.00  0.00    +0.150 A 
ATOM     21  C   LIG    1       -6.822  -0.332  -4.262  0.00  0.00    -0.020 A 
ATOM     22  C   LIG    1       -6.774  -1.070  -5.430  0.00  0.00    +0.050 A 
ATOM     23  C   LIG    1       -7.937  -1.332  -6.132  0.00  0.00    +0.060 A 
ATOM     24  C   LIG    1       -9.151  -0.861  -5.666  0.00  0.00    +0.050 A 
ATOM     25 CL   LIG    1       -5.361   0.001  -3.385  0.00  0.00    -0.040 Cl
ATOM     26  C   LIG    1       -9.206  -0.128  -4.496  0.00  0.00    -0.020 A 
ATOM     27 CL   LIG    1      -10.731   0.463  -3.912  0.00  0.00    -0.050 Cl
ENDBRANCH  17  20
ENDBRANCH  15  16
ENDBRANCH   1  15
TORSDOF 5
