REMARK  Name = ZINCrH000004ur7W.0
REMARK                            x       y       z     vdW  Elec       q    Type
REMARK                         _______ _______ _______ _____ _____    ______ ____
ROOT
ATOM      1  O   LIG    1       -8.171   3.906  -2.640  0.00  0.00    -0.530 OA
ATOM      2  C   LIG    1       -8.171   3.120  -1.713  0.00  0.00    +0.560 C 
ATOM      3  N   LIG    1       -7.018   2.823  -1.080  0.00  0.00    -0.730 N 
ATOM      4  H   LIG    1       -7.019   2.196  -0.341  0.00  0.00    +0.400 HD
ENDROOT
BRANCH   2   5
ATOM      5  C   LIG    1       -9.434   2.490  -1.279  0.00  0.00    -0.130 A 
ATOM      6  C   LIG    1       -9.435   1.587  -0.214  0.00  0.00    +0.050 A 
ATOM      7  C   LIG    1      -10.615   0.999   0.192  0.00  0.00    +0.020 A 
ATOM      8  C   LIG    1      -11.801   1.306  -0.459  0.00  0.00    +0.090 A 
ATOM      9  O   LIG    1      -12.970   0.729  -0.061  0.00  0.00    -0.320 OA
ATOM     10  C   LIG    1      -13.554  -0.198  -0.979  0.00  0.00    +0.230 C 
ATOM     11  C   LIG    1      -14.398   0.529  -2.015  0.00  0.00    -0.010 C 
ATOM     12  C   LIG    1      -13.565   1.435  -2.908  0.00  0.00    +0.230 C 
ATOM     13  O   LIG    1      -12.982   2.496  -2.150  0.00  0.00    -0.320 OA
ATOM     14  C   LIG    1      -11.806   2.204  -1.520  0.00  0.00    +0.060 A 
ATOM     15  C   LIG    1      -10.632   2.802  -1.931  0.00  0.00    +0.100 A 
ENDBRANCH   2   5
BRANCH   3  16
ATOM     16  C   LIG    1       -5.765   3.448  -1.511  0.00  0.00    +0.280 C 
BRANCH  16  17
ATOM     17  C   LIG    1       -4.617   2.943  -0.634  0.00  0.00    -0.040 C 
ATOM     18  C   LIG    1       -4.715   3.531   0.798  0.00  0.00    +0.040 C 
ATOM     19  C   LIG    1       -3.236   3.488   1.256  0.00  0.00    +0.190 C 
ATOM     20  N   LIG    1       -2.456   3.822   0.045  0.00  0.00    -0.490 N 
ATOM     21  C   LIG    1       -3.264   3.487  -1.141  0.00  0.00    +0.210 C 
BRANCH  20  22
ATOM     22  C   LIG    1       -1.237   3.138   0.030  0.00  0.00    +0.090 A 
ATOM     23  C   LIG    1       -1.219   1.749   0.017  0.00  0.00    -0.010 A 
ATOM     24  C   LIG    1       -0.013   1.076   0.008  0.00  0.00    +0.020 A 
ATOM     25  C   LIG    1        1.176   1.782   0.000  0.00  0.00    +0.020 A 
ATOM     26  C   LIG    1        1.162   3.165   0.008  0.00  0.00    +0.030 A 
ATOM     27  C   LIG    1       -0.041   3.845   0.023  0.00  0.00    -0.010 A 
ATOM     28 CL   LIG    1       -0.058   5.581   0.033  0.00  0.00    -0.050 Cl
ENDBRANCH  20  22
ENDBRANCH  16  17
ENDBRANCH   3  16
TORSDOF 4
