REMARK  Name = ZINCnE000001OLM1.1
REMARK                            x       y       z     vdW  Elec       q    Type
REMARK                         _______ _______ _______ _____ _____    ______ ____
ROOT
ATOM      1  N   LIG    1        6.567   2.118  -0.050  0.00  0.00    -0.470 NA
ATOM      2  C   LIG    1        5.974   0.908  -0.050  0.00  0.00    +0.450 C 
ATOM      3  O   LIG    1        6.652  -0.102  -0.062  0.00  0.00    -0.660 OA
ENDROOT
BRANCH   2   4
ATOM      4  C   LIG    1        4.507   0.809  -0.037  0.00  0.00    +0.080 A 
ATOM      5  C   LIG    1        3.803  -0.352  -0.036  0.00  0.00    -0.170 A 
ATOM      6  C   LIG    1        2.391   0.031  -0.021  0.00  0.00    -0.120 A 
ATOM      7  C   LIG    1        1.190  -0.680  -0.013  0.00  0.00    +0.050 A 
ATOM      8  C   LIG    1        0.002  -0.004   0.002  0.00  0.00    -0.030 A 
ATOM      9  C   LIG    1       -0.017   1.384   0.010  0.00  0.00    +0.020 A 
ATOM     10  C   LIG    1        1.158   2.104   0.002  0.00  0.00    +0.020 A 
ATOM     11  C   LIG    1        2.378   1.439  -0.013  0.00  0.00    +0.050 A 
ATOM     12  C   LIG    1        4.362  -1.751  -0.049  0.00  0.00    +0.130 C 
ATOM     13  O   LIG    1        3.658   1.858  -0.023  0.00  0.00    -0.170 OA
ENDBRANCH   2   4
BRANCH   1  15
ATOM     14  C   LIG    1        8.559   3.422  -0.062  0.00  0.00    +0.570 C 
ATOM     15  N   LIG    1        7.965   2.212  -0.062  0.00  0.00    -0.530 N 
ATOM     16  H   LIG    1        8.506   1.407  -0.072  0.00  0.00    +0.360 HD
ATOM     17  O   LIG    1        7.881   4.433  -0.050  0.00  0.00    -0.550 OA
BRANCH  14  21
ATOM     18  C   LIG    1       13.326   1.710  -0.117  0.00  0.00    +0.140 C 
ATOM     19  C   LIG    1       12.190   2.700  -0.101  0.00  0.00    -0.210 A 
ATOM     20  C   LIG    1       10.903   2.373  -0.090  0.00  0.00    +0.040 A 
ATOM     21  C   LIG    1       10.027   3.522  -0.075  0.00  0.00    -0.150 A 
ATOM     22  C   LIG    1       10.699   4.704  -0.081  0.00  0.00    -0.150 A 
ATOM     23  C   LIG    1       10.043   6.061  -0.074  0.00  0.00    +0.150 C 
ATOM     24  S   LIG    1       12.384   4.444  -0.092  0.00  0.00    +0.140 S 
ENDBRANCH  14  21
ENDBRANCH   1  15
TORSDOF 3
