REMARK  Name = ZINCb70000002E50.0
REMARK                            x       y       z     vdW  Elec       q    Type
REMARK                         _______ _______ _______ _____ _____    ______ ____
ROOT
ATOM      1  N   LIG    1       -0.723   1.572  -1.182  0.00  0.00    -0.530 NA
ATOM      2  C   LIG    1       -1.059   2.996  -1.049  0.00  0.00    +0.180 C 
ATOM      3  C   LIG    1       -1.922   3.431  -2.236  0.00  0.00    +0.030 C 
ATOM      4  C   LIG    1       -1.151   3.189  -3.537  0.00  0.00    -0.030 C 
ATOM      5  C   LIG    1       -0.771   1.708  -3.627  0.00  0.00    +0.070 C 
ATOM      6  C   LIG    1        0.058   1.323  -2.400  0.00  0.00    +0.200 C 
ENDROOT
BRANCH   1   7
ATOM      7  C   LIG    1       -0.013   1.086   0.008  0.00  0.00    +0.370 C 
BRANCH   7   9
ATOM      8  N   LIG    1       -1.233   1.927   2.154  0.00  0.00    -0.410 NA
ATOM      9  C   LIG    1       -0.702   1.560   1.219  0.00  0.00    +0.200 C 
ENDBRANCH   7   9
ENDBRANCH   1   7
BRANCH   4  10
ATOM     10  C   LIG    1       -2.031   3.565  -4.730  0.00  0.00    +0.280 C 
BRANCH  10  11
ATOM     11  N   LIG    1       -2.296   5.009  -4.707  0.00  0.00    -0.640 N 
ATOM     12  H   LIG    1       -2.771   5.250  -3.850  0.00  0.00    +0.430 HD
ATOM     13  H   LIG    1       -2.877   5.257  -5.494  0.00  0.00    +0.440 HD
ATOM     14  H   LIG    1       -1.423   5.512  -4.761  0.00  0.00    +0.440 HD
ENDBRANCH  10  11
ENDBRANCH   4  10
TORSDOF 4
