REMARK  Name = ZINCqH0000001R6r.0
REMARK                            x       y       z     vdW  Elec       q    Type
REMARK                         _______ _______ _______ _____ _____    ______ ____
ROOT
ATOM      1  C   LIG    1        6.657   4.468  -1.437  0.00  0.00    +0.510 C 
ATOM      2  O   LIG    1        7.182   5.131  -0.565  0.00  0.00    -0.500 OA
ENDROOT
BRANCH   1   7
ATOM      3  N   LIG    1       10.633   4.951  -3.958  0.00  0.00    -0.470 N 
ATOM      4  C   LIG    1       10.726   5.592  -2.754  0.00  0.00    +0.230 A 
ATOM      5  C   LIG    1        9.581   5.432  -2.068  0.00  0.00    -0.050 A 
ATOM      6  C   LIG    1        8.704   4.653  -2.862  0.00  0.00    -0.050 A 
ATOM      7  C   LIG    1        7.391   4.171  -2.678  0.00  0.00    -0.090 A 
ATOM      8  C   LIG    1        6.797   3.406  -3.680  0.00  0.00    +0.070 A 
ATOM      9  C   LIG    1        7.485   3.131  -4.847  0.00  0.00    +0.020 A 
ATOM     10  C   LIG    1        8.771   3.599  -5.037  0.00  0.00    +0.040 A 
ATOM     11  C   LIG    1        9.392   4.360  -4.054  0.00  0.00    +0.080 A 
BRANCH   3  13
ATOM     12  C   LIG    1       12.021   6.323  -5.432  0.00  0.00    +0.050 C 
ATOM     13  C   LIG    1       11.682   4.902  -4.979  0.00  0.00    +0.230 C 
ATOM     14  C   LIG    1       12.932   4.241  -4.396  0.00  0.00    +0.040 C 
ENDBRANCH   3  13
ENDBRANCH   1   7
BRANCH   1  15
ATOM     15  O   LIG    1        5.403   4.004  -1.268  0.00  0.00    -0.350 OA
BRANCH  15  16
ATOM     16  C   LIG    1        4.740   4.336  -0.019  0.00  0.00    +0.220 C 
BRANCH  16  17
ATOM     17  C   LIG    1        3.336   3.728  -0.009  0.00  0.00    +0.320 C 
BRANCH  17  18
ATOM     18  N   LIG    1        3.437   2.266  -0.018  0.00  0.00    -0.710 N 
ATOM     19  H   LIG    1        4.309   1.840  -0.029  0.00  0.00    +0.410 HD
BRANCH  18  20
ATOM     20  C   LIG    1        2.289   1.493  -0.012  0.00  0.00    +0.450 A 
ATOM     21  N   LIG    1        1.102   2.078   0.003  0.00  0.00    -0.540 NA
ATOM     22  C   LIG    1       -0.017   1.379   0.010  0.00  0.00    +0.350 A 
ATOM     23  C   LIG    1        0.002  -0.004   0.002  0.00  0.00    -0.100 A 
ATOM     24  C   LIG    1        1.216  -0.669  -0.013  0.00  0.00    +0.160 A 
ATOM     25  C   LIG    1        2.390   0.091  -0.020  0.00  0.00    -0.160 A 
BRANCH  25  26
ATOM     26  C   LIG    1        3.672  -0.548  -0.036  0.00  0.00    +0.250 C 
ATOM     27  N   LIG    1        4.689  -1.054  -0.048  0.00  0.00    -0.420 NA
ENDBRANCH  25  26
ENDBRANCH  18  20
ENDBRANCH  17  18
ENDBRANCH  16  17
ENDBRANCH  15  16
ENDBRANCH   1  15
TORSDOF 8
