REMARK  Name = ZINCpe000000Y42g.0
REMARK                            x       y       z     vdW  Elec       q    Type
REMARK                         _______ _______ _______ _____ _____    ______ ____
ROOT
ATOM      1  N   LIG    1       -2.708   1.700  -0.060  0.00  0.00    -0.640 N 
ATOM      2  C   LIG    1       -3.715   2.750  -0.266  0.00  0.00    +0.300 C 
ATOM      3  C   LIG    1       -4.656   2.309  -1.398  0.00  0.00    +0.010 C 
ATOM      4  C   LIG    1       -5.240   0.935  -1.061  0.00  0.00    +0.050 C 
ATOM      5  C   LIG    1       -4.108  -0.089  -0.950  0.00  0.00    -0.020 C 
ATOM      6  C   LIG    1       -3.161   0.324   0.181  0.00  0.00    +0.310 C 
ENDROOT
BRANCH   1  15
ATOM      7  C   LIG    1        1.178   4.008   1.849  0.00  0.00    +0.160 C 
ATOM      8  C   LIG    1        0.554   3.109   0.812  0.00  0.00    +0.240 A 
ATOM      9  N   LIG    1        1.301   2.591  -0.140  0.00  0.00    -0.470 NA
ATOM     10  C   LIG    1        0.777   1.789  -1.074  0.00  0.00    +0.460 A 
ATOM     11  N   LIG    1        1.310   1.158  -2.114  0.00  0.00    -0.530 NA
ATOM     12  C   LIG    1        0.369   0.474  -2.754  0.00  0.00    +0.480 A 
ATOM     13  N   LIG    1       -0.783   0.643  -2.152  0.00  0.00    -0.340 NA
ATOM     14  N   LIG    1       -0.556   1.489  -1.060  0.00  0.00    -0.340 N 
ATOM     15  C   LIG    1       -1.364   2.002  -0.087  0.00  0.00    +0.450 A 
ATOM     16  C   LIG    1       -0.810   2.832   0.868  0.00  0.00    -0.200 A 
ATOM     17  C   LIG    1       -1.667   3.425   1.957  0.00  0.00    +0.140 C 
ENDBRANCH   1  15
BRANCH   5  18
ATOM     18  C   LIG    1       -4.687  -1.448  -0.651  0.00  0.00    +0.520 C 
ATOM     19  N   LIG    1       -4.003  -2.560  -0.987  0.00  0.00    -0.620 N 
ATOM     20  C   LIG    1       -2.745  -2.476  -1.744  0.00  0.00    +0.250 C 
ATOM     21  C   LIG    1       -1.685  -3.310  -1.007  0.00  0.00    +0.210 C 
ATOM     22  O   LIG    1       -2.200  -4.624  -0.777  0.00  0.00    -0.380 OA
ATOM     23  C   LIG    1       -3.355  -4.661   0.065  0.00  0.00    +0.220 C 
ATOM     24  C   LIG    1       -4.497  -3.895  -0.613  0.00  0.00    +0.260 C 
ATOM     25  O   LIG    1       -5.767  -1.541  -0.108  0.00  0.00    -0.530 OA
ENDBRANCH   5  18
TORSDOF 2
