REMARK  Name = ZINC650000002rY1.0
REMARK                            x       y       z     vdW  Elec       q    Type
REMARK                         _______ _______ _______ _____ _____    ______ ____
ROOT
ATOM      1  C   LIG    1        2.064   1.114   1.238  0.00  0.00    +0.010 C 
ATOM      2  C   LIG    1        1.286   1.562  -0.002  0.00  0.00    +0.120 C 
ENDROOT
BRANCH   2   3
ATOM      3  C   LIG    1        2.028   1.134  -1.242  0.00  0.00    +0.470 C 
ATOM      4  O   LIG    1        1.533   0.315  -1.997  0.00  0.00    -0.690 OA
ATOM      5  O   LIG    1        3.124   1.607  -1.490  0.00  0.00    -0.700 OA
ENDBRANCH   2   3
BRANCH   2   6
ATOM      6  O   LIG    1       -0.011   0.963   0.007  0.00  0.00    -0.570 OA
ATOM      7  H   LIG    1        0.002  -0.004   0.002  0.00  0.00    +0.370 HD
ENDBRANCH   2   6
TORSDOF 2
