REMARK  Name = ZINCrD000000B6BX.0
REMARK                            x       y       z     vdW  Elec       q    Type
REMARK                         _______ _______ _______ _____ _____    ______ ____
ROOT
ATOM      1  O   LIG    1       -1.746   6.838  -3.611  0.00  0.00    -0.540 OA
ATOM      2  C   LIG    1       -1.948   7.403  -2.554  0.00  0.00    +0.570 C 
ATOM      3  N   LIG    1       -1.702   6.766  -1.392  0.00  0.00    -0.730 N 
ATOM      4  H   LIG    1       -1.863   7.217  -0.548  0.00  0.00    +0.400 HD
ENDROOT
BRANCH   2   5
ATOM      5  C   LIG    1       -2.463   8.785  -2.543  0.00  0.00    -0.260 A 
ATOM      6  C   LIG    1       -2.723   9.458  -3.747  0.00  0.00    +0.180 A 
ATOM      7  C   LIG    1       -3.200  10.739  -3.689  0.00  0.00    -0.110 A 
ATOM      8  C   LIG    1       -3.412  11.335  -2.447  0.00  0.00    +0.430 A 
ATOM      9  N   LIG    1       -3.159  10.677  -1.324  0.00  0.00    -0.550 NA
ATOM     10  C   LIG    1       -2.704   9.441  -1.335  0.00  0.00    +0.350 A 
BRANCH   8  11
ATOM     11  N   LIG    1       -3.894  12.631  -2.385  0.00  0.00    -0.710 N 
ATOM     12  H   LIG    1       -4.045  13.052  -1.524  0.00  0.00    +0.410 HD
BRANCH  11  13
ATOM     13  C   LIG    1       -4.178  13.367  -3.620  0.00  0.00    +0.290 C 
BRANCH  13  14
ATOM     14  C   LIG    1       -4.695  14.765  -3.273  0.00  0.00    -0.060 C 
ATOM     15  C   LIG    1       -6.126  15.111  -3.689  0.00  0.00    +0.020 C 
ATOM     16  C   LIG    1       -4.941  15.734  -4.431  0.00  0.00    +0.030 C 
ENDBRANCH  13  14
ENDBRANCH  11  13
ENDBRANCH   8  11
ENDBRANCH   2   5
BRANCH   3  17
ATOM     17  C   LIG    1       -1.191   5.393  -1.403  0.00  0.00    +0.280 C 
BRANCH  17  18
ATOM     18  C   LIG    1       -1.000   4.909   0.036  0.00  0.00    +0.150 C 
BRANCH  18  19
ATOM     19  C   LIG    1       -0.474   3.496   0.025  0.00  0.00    +0.050 A 
ATOM     20  N   LIG    1        0.773   3.178   0.011  0.00  0.00    -0.450 NA
ATOM     21  C   LIG    1        1.067   1.885   0.002  0.00  0.00    +0.100 A 
ATOM     22  C   LIG    1       -0.013   1.076   0.008  0.00  0.00    -0.020 A 
ATOM     23  S   LIG    1       -1.451   2.094   0.019  0.00  0.00    +0.150 S 
BRANCH  21  24
ATOM     24  C   LIG    1        2.458   1.374  -0.014  0.00  0.00    +0.190 A 
ATOM     25  C   LIG    1        3.525   2.272  -0.020  0.00  0.00    +0.000 A 
ATOM     26  C   LIG    1        4.818   1.779  -0.035  0.00  0.00    +0.060 A 
ATOM     27  C   LIG    1        5.003   0.404  -0.043  0.00  0.00    -0.030 A 
ATOM     28  C   LIG    1        3.900  -0.429  -0.037  0.00  0.00    +0.260 A 
ATOM     29  N   LIG    1        2.679   0.065  -0.017  0.00  0.00    -0.480 NA
ENDBRANCH  21  24
ENDBRANCH  18  19
ENDBRANCH  17  18
ENDBRANCH   3  17
TORSDOF 8
