REMARK  Name = ZINCrD000000AkWo.0
REMARK                            x       y       z     vdW  Elec       q    Type
REMARK                         _______ _______ _______ _____ _____    ______ ____
ROOT
ATOM      1  O   LIG    1        2.098  -4.508  -0.042  0.00  0.00    -0.440 OA
ATOM      2  C   LIG    1        0.941  -4.145  -0.029  0.00  0.00    +0.390 C 
ENDROOT
BRANCH   2   3
ATOM      3  C   LIG    1        0.620  -2.708  -0.018  0.00  0.00    -0.170 A 
ATOM      4  C   LIG    1       -0.715  -2.289  -0.003  0.00  0.00    +0.070 A 
ATOM      5  C   LIG    1       -1.012  -0.941   0.007  0.00  0.00    +0.030 A 
ATOM      6  C   LIG    1        0.002  -0.004   0.002  0.00  0.00    -0.060 A 
ATOM      7  C   LIG    1       -0.018   1.505   0.010  0.00  0.00    +0.170 C 
ATOM      8  C   LIG    1        1.426   1.943  -0.001  0.00  0.00    -0.090 A 
ATOM      9  C   LIG    1        2.015   3.189   0.001  0.00  0.00    +0.030 A 
ATOM     10  C   LIG    1        3.394   3.304  -0.012  0.00  0.00    +0.020 A 
ATOM     11  C   LIG    1        4.184   2.169  -0.025  0.00  0.00    +0.010 A 
ATOM     12  C   LIG    1        3.603   0.917  -0.027  0.00  0.00    +0.030 A 
ATOM     13  C   LIG    1        2.212   0.794  -0.015  0.00  0.00    -0.060 A 
ATOM     14  C   LIG    1        1.337  -0.405  -0.013  0.00  0.00    -0.070 A 
ATOM     15  C   LIG    1        1.647  -1.763  -0.023  0.00  0.00    +0.100 A 
ENDBRANCH   2   3
BRANCH   2  16
ATOM     16  C   LIG    1       -0.169  -5.165  -0.023  0.00  0.00    +0.340 C 
BRANCH  16  17
ATOM     17  N   LIG    1        0.406  -6.512  -0.036  0.00  0.00    -0.570 N 
ATOM     18  C   LIG    1        0.686  -7.201  -1.150  0.00  0.00    +0.710 C 
ATOM     19  N   LIG    1        1.212  -8.414  -0.886  0.00  0.00    -0.710 N 
ATOM     20  H   LIG    1        1.491  -9.081  -1.532  0.00  0.00    +0.440 HD
ATOM     21  C   LIG    1        1.270  -8.525   0.573  0.00  0.00    +0.120 C 
ATOM     22  C   LIG    1        0.430  -9.708   1.073  0.00  0.00    +0.060 C 
ATOM     23  C   LIG    1        1.469 -10.836   1.302  0.00  0.00    +0.030 C 
ATOM     24  C   LIG    1        2.696 -10.067   1.856  0.00  0.00    +0.040 C 
ATOM     25  C   LIG    1        2.705  -8.743   1.060  0.00  0.00    +0.050 C 
ATOM     26  O   LIG    1        0.490  -6.779  -2.273  0.00  0.00    -0.540 OA
ATOM     27  C   LIG    1        0.716  -7.216   1.074  0.00  0.00    +0.540 C 
ATOM     28  O   LIG    1        0.577  -6.870   2.228  0.00  0.00    -0.460 OA
ENDBRANCH  16  17
ENDBRANCH   2  16
TORSDOF 3
