REMARK  Name = ZINCrg00000fS4Bd.1
REMARK                            x       y       z     vdW  Elec       q    Type
REMARK                         _______ _______ _______ _____ _____    ______ ____
ROOT
ATOM      1  C   LIG    1        3.249   3.147  -0.412  0.00  0.00    -0.010 C 
ATOM      2  C   LIG    1        3.979   2.082   0.411  0.00  0.00    +0.090 C 
ATOM      3  C   LIG    1        3.517   0.687  -0.023  0.00  0.00    +0.330 C 
ATOM      4  N   LIG    1        2.053   0.652  -0.013  0.00  0.00    -0.400 N 
ATOM      5  C   LIG    1        1.253   1.766  -0.000  0.00  0.00    +0.060 C 
ATOM      6  C   LIG    1       -0.016   1.340   0.009  0.00  0.00    +0.240 C 
ATOM      7  N   LIG    1        0.002  -0.004   0.002  0.00  0.00    -0.480 N 
ATOM      8  H   LIG    1       -0.781  -0.576   0.007  0.00  0.00    +0.460 HD
ATOM      9  C   LIG    1        1.242  -0.420  -0.012  0.00  0.00    +0.320 C 
ATOM     10  C   LIG    1        1.771   3.182  -0.001  0.00  0.00    +0.180 C 
ENDROOT
BRANCH   9  11
ATOM     11  C   LIG    1        1.687  -1.860  -0.024  0.00  0.00    +0.080 C 
ATOM     12  C   LIG    1        1.705  -2.376  -1.464  0.00  0.00    +0.040 C 
ATOM     13  C   LIG    1        2.157  -3.838  -1.476  0.00  0.00    +0.030 C 
ATOM     14  C   LIG    1        1.186  -4.679  -0.645  0.00  0.00    +0.010 C 
ATOM     15  C   LIG    1        1.168  -4.162   0.795  0.00  0.00    +0.030 C 
ATOM     16  C   LIG    1        0.716  -2.701   0.807  0.00  0.00    +0.030 C 
ENDBRANCH   9  11
BRANCH   1  19
ATOM     17  N   LIG    1        3.389   5.590  -0.777  0.00  0.00    -0.720 N 
ATOM     18  H   LIG    1        2.639   5.510  -1.387  0.00  0.00    +0.400 HD
ATOM     19  C   LIG    1        3.874   4.495  -0.158  0.00  0.00    +0.510 C 
ATOM     20  O   LIG    1        4.812   4.594   0.604  0.00  0.00    -0.530 OA
BRANCH  17  21
ATOM     21  C   LIG    1        3.997   6.900  -0.530  0.00  0.00    +0.290 C 
BRANCH  21  22
ATOM     22  C   LIG    1        3.264   7.964  -1.350  0.00  0.00    +0.040 C 
BRANCH  22  24
ATOM     23  N   LIG    1        3.405  10.406  -1.715  0.00  0.00    -1.130 NA
ATOM     24  C   LIG    1        3.889   9.312  -1.096  0.00  0.00    +0.530 C 
ATOM     25  O   LIG    1        4.827   9.411  -0.334  0.00  0.00    -0.630 OA
BRANCH  23  27
ATOM     26  C   LIG    1        3.130  13.033  -2.463  0.00  0.00    -0.310 C 
ATOM     27  S   LIG    1        4.091  11.887  -1.436  0.00  0.00    +2.560 S 
ATOM     28  O   LIG    1        5.415  11.760  -1.937  0.00  0.00    -1.020 OA
ATOM     29  O   LIG    1        3.850  12.131  -0.057  0.00  0.00    -1.020 OA
ENDBRANCH  23  27
ENDBRANCH  22  24
ENDBRANCH  21  22
ENDBRANCH  17  21
ENDBRANCH   1  19
TORSDOF 6
