REMARK  Name = ZINCqH00000382xu.0
REMARK                            x       y       z     vdW  Elec       q    Type
REMARK                         _______ _______ _______ _____ _____    ______ ____
ROOT
ATOM      1  C   LIG    1        7.324  -3.138   1.712  0.00  0.00    -0.070 C 
ATOM      2  C   LIG    1        6.170  -3.089   1.093  0.00  0.00    -0.040 C 
ATOM      3  C   LIG    1        5.837  -2.067   0.046  0.00  0.00    +0.330 C 
ATOM      4  N   LIG    1        6.875  -1.028   0.033  0.00  0.00    -0.610 N 
ATOM      5  C   LIG    1        8.277  -1.470   0.130  0.00  0.00    +0.290 C 
ATOM      6  C   LIG    1        6.558   0.279  -0.059  0.00  0.00    +0.570 C 
ATOM      7  O   LIG    1        7.438   1.115  -0.131  0.00  0.00    -0.530 OA
ATOM      8  C   LIG    1        8.455  -2.183   1.473  0.00  0.00    +0.070 C 
ENDROOT
BRANCH   1  13
ATOM      9  C   LIG    1        8.202  -7.321   5.497  0.00  0.00    +0.130 C 
ATOM     10  C   LIG    1        7.952  -6.207   4.513  0.00  0.00    +0.130 A 
ATOM     11  C   LIG    1        6.987  -5.257   4.792  0.00  0.00    -0.030 A 
ATOM     12  C   LIG    1        6.764  -4.233   3.888  0.00  0.00    +0.070 A 
ATOM     13  C   LIG    1        7.524  -4.207   2.714  0.00  0.00    -0.110 A 
ATOM     14  C   LIG    1        8.479  -5.203   2.507  0.00  0.00    +0.280 A 
ATOM     15  N   LIG    1        8.658  -6.155   3.399  0.00  0.00    -0.480 NA
ENDBRANCH   1  13
BRANCH   6  16
ATOM     16  C   LIG    1        5.142   0.695  -0.072  0.00  0.00    -0.130 A 
ATOM     17  C   LIG    1        4.217   0.003  -0.859  0.00  0.00    +0.040 A 
ATOM     18  C   LIG    1        2.902   0.390  -0.870  0.00  0.00    +0.040 A 
ATOM     19  C   LIG    1        2.486   1.476  -0.097  0.00  0.00    +0.020 A 
ATOM     20  C   LIG    1        3.410   2.171   0.684  0.00  0.00    +0.010 A 
ATOM     21  C   LIG    1        4.725   1.782   0.702  0.00  0.00    +0.070 A 
BRANCH  19  22
ATOM     22  C   LIG    1        1.065   1.894  -0.111  0.00  0.00    +0.020 A 
ATOM     23  C   LIG    1        0.527   2.928   0.590  0.00  0.00    +0.160 A 
ATOM     24  N   LIG    1       -0.805   2.954   0.290  0.00  0.00    -0.570 N 
ATOM     25  H   LIG    1       -1.460   3.578   0.639  0.00  0.00    +0.420 HD
ATOM     26  C   LIG    1       -1.043   1.947  -0.588  0.00  0.00    +0.400 A 
ATOM     27  N   LIG    1        0.073   1.317  -0.821  0.00  0.00    -0.480 NA
ENDBRANCH  19  22
ENDBRANCH   6  16
TORSDOF 3
