REMARK  Name = ZINCrg00000fRZYg.0
REMARK                            x       y       z     vdW  Elec       q    Type
REMARK                         _______ _______ _______ _____ _____    ______ ____
ROOT
ATOM      1  N   LIG    1       -1.191   1.867   0.018  0.00  0.00    -0.510 N 
ATOM      2  H   LIG    1       -1.204   2.837   0.023  0.00  0.00    +0.440 HD
ATOM      3  C   LIG    1       -0.014   1.209   0.009  0.00  0.00    +0.500 C 
ATOM      4  O   LIG    1        0.002  -0.004   0.002  0.00  0.00    -0.530 OA
ENDROOT
BRANCH   1   6
ATOM      5  C   LIG    1       -3.571   1.808   0.029  0.00  0.00    +0.570 C 
ATOM      6  N   LIG    1       -2.394   1.150   0.020  0.00  0.00    -0.520 N 
ATOM      7  H   LIG    1       -2.381   0.180   0.014  0.00  0.00    +0.430 HD
ATOM      8  O   LIG    1       -3.587   3.023   0.035  0.00  0.00    -0.510 OA
BRANCH   5  15
ATOM      9  C   LIG    1       -6.063   1.733   0.046  0.00  0.00    +0.200 A 
ATOM     10  C   LIG    1       -7.249   1.014   0.042  0.00  0.00    -0.060 A 
ATOM     11  C   LIG    1       -7.222  -0.367   0.035  0.00  0.00    +0.120 A 
ATOM     12  C   LIG    1       -6.012  -1.044   0.025  0.00  0.00    -0.080 A 
ATOM     13  C   LIG    1       -4.824  -0.344   0.023  0.00  0.00    +0.100 A 
ATOM     14 CL   LIG    1       -5.993  -2.780   0.015  0.00  0.00    -0.060 Cl
ATOM     15  C   LIG    1       -4.838   1.053   0.031  0.00  0.00    -0.160 A 
BRANCH   9  17
ATOM     16  C   LIG    1       -7.375   3.713   0.074  0.00  0.00    +0.250 C 
ATOM     17  O   LIG    1       -6.089   3.089   0.059  0.00  0.00    -0.280 OA
ENDBRANCH   9  17
ENDBRANCH   5  15
ENDBRANCH   1   6
BRANCH   3  18
ATOM     18  C   LIG    1        1.280   1.980   0.001  0.00  0.00    +0.350 C 
BRANCH  18  19
ATOM     19  N   LIG    1        2.407   1.043  -0.015  0.00  0.00    -0.580 N 
ATOM     20  C   LIG    1        2.994   0.565   1.113  0.00  0.00    +0.550 C 
ATOM     21  C   LIG    1        3.868  -0.573   0.678  0.00  0.00    +0.000 C 
ATOM     22  C   LIG    1        5.177  -0.788   1.409  0.00  0.00    +0.110 C 
ATOM     23  C   LIG    1        6.001  -1.737   0.565  0.00  0.00    -0.030 C 
ATOM     24  C   LIG    1        5.782  -1.979  -0.693  0.00  0.00    -0.030 C 
ATOM     25  C   LIG    1        4.686  -1.328  -1.510  0.00  0.00    +0.110 C 
ATOM     26  C   LIG    1        4.250  -0.090  -0.755  0.00  0.00    +0.000 C 
ATOM     27  O   LIG    1        2.840   0.976   2.243  0.00  0.00    -0.460 OA
ATOM     28  C   LIG    1        2.968   0.573  -1.159  0.00  0.00    +0.550 C 
ATOM     29  O   LIG    1        2.522   0.670  -2.282  0.00  0.00    -0.460 OA
ENDBRANCH  18  19
ENDBRANCH   3  18
TORSDOF 5
