REMARK  Name = ZINCtV00000L6kTj.0
REMARK                            x       y       z     vdW  Elec       q    Type
REMARK                         _______ _______ _______ _____ _____    ______ ____
ROOT
ATOM      1  C   LIG    1       -3.370   2.661  -2.404  0.00  0.00    +0.500 A 
ATOM      2  C   LIG    1       -4.601   3.346  -2.557  0.00  0.00    -0.230 A 
ATOM      3  C   LIG    1       -4.881   4.774  -2.649  0.00  0.00    -0.020 A 
ATOM      4  C   LIG    1       -6.170   5.074  -2.801  0.00  0.00    -0.020 A 
ATOM      5  S   LIG    1       -7.158   3.627  -2.852  0.00  0.00    +0.170 S 
ATOM      6  C   LIG    1       -5.761   2.578  -2.659  0.00  0.00    +0.120 A 
ATOM      7  N   LIG    1       -5.665   1.243  -2.598  0.00  0.00    -0.530 NA
ATOM      8  C   LIG    1       -4.501   0.654  -2.449  0.00  0.00    +0.550 A 
ATOM      9  N   LIG    1       -3.375   1.337  -2.353  0.00  0.00    -0.570 NA
ENDROOT
BRANCH   3  10
ATOM     10  C   LIG    1       -3.820   5.807  -2.575  0.00  0.00    -0.040 A 
ATOM     11  C   LIG    1       -2.988   5.875  -1.458  0.00  0.00    +0.050 A 
ATOM     12  C   LIG    1       -1.999   6.835  -1.396  0.00  0.00    +0.040 A 
ATOM     13  C   LIG    1       -1.839   7.736  -2.434  0.00  0.00    -0.030 A 
ATOM     14  C   LIG    1       -2.666   7.676  -3.543  0.00  0.00    +0.030 A 
ATOM     15 CL   LIG    1       -0.597   8.946  -2.346  0.00  0.00    -0.060 Cl
ATOM     16  C   LIG    1       -3.655   6.716  -3.618  0.00  0.00    +0.050 A 
ENDBRANCH   3  10
BRANCH   1  17
ATOM     17  N   LIG    1       -2.183   3.364  -2.302  0.00  0.00    -0.690 N 
ATOM     18  H   LIG    1       -2.178   4.327  -2.419  0.00  0.00    +0.410 HD
BRANCH  17  19
ATOM     19  C   LIG    1       -0.934   2.654  -2.016  0.00  0.00    +0.300 C 
BRANCH  19  20
ATOM     20  C   LIG    1       -0.757   2.523  -0.502  0.00  0.00    +0.170 C 
BRANCH  20  21
ATOM     21  C   LIG    1       -1.871   1.680   0.063  0.00  0.00    -0.050 A 
ATOM     22  C   LIG    1       -3.014   2.284   0.553  0.00  0.00    +0.050 A 
ATOM     23  C   LIG    1       -4.039   1.511   1.066  0.00  0.00    +0.000 A 
ATOM     24  C   LIG    1       -3.921   0.134   1.090  0.00  0.00    +0.020 A 
ATOM     25  C   LIG    1       -2.779  -0.471   0.600  0.00  0.00    +0.020 A 
ATOM     26  C   LIG    1       -1.754   0.302   0.085  0.00  0.00    -0.010 A 
ATOM     27 CL   LIG    1       -0.319  -0.458  -0.531  0.00  0.00    -0.070 Cl
ENDBRANCH  20  21
BRANCH  20  29
ATOM     28  C   LIG    1       -0.531   3.777   1.556  0.00  0.00    +0.190 C 
ATOM     29  N   LIG    1       -0.791   3.856   0.113  0.00  0.00    -0.530 NA
ATOM     30  C   LIG    1        0.159   4.763  -0.544  0.00  0.00    +0.190 C 
ENDBRANCH  20  29
ENDBRANCH  19  20
ENDBRANCH  17  19
ENDBRANCH   1  17
TORSDOF 6
