REMARK  Name = ZINCpe00000yI94A.0
REMARK                            x       y       z     vdW  Elec       q    Type
REMARK                         _______ _______ _______ _____ _____    ______ ____
ROOT
ATOM      1  C   LIG    1       -9.971   1.376  -2.149  0.00  0.00    +0.610 C 
ATOM      2  N   LIG    1       -9.144   2.142  -1.410  0.00  0.00    -0.610 N 
ATOM      3  C   LIG    1       -9.549   3.278  -0.570  0.00  0.00    +0.260 C 
ATOM      4  C   LIG    1       -8.274   3.830   0.101  0.00  0.00    +0.040 C 
ATOM      5  C   LIG    1       -7.302   2.622   0.045  0.00  0.00    -0.010 C 
ATOM      6  C   LIG    1       -7.681   1.978  -1.312  0.00  0.00    +0.280 C 
ATOM      7  O   LIG    1       -9.523   0.459  -2.808  0.00  0.00    -0.520 OA
ENDROOT
BRANCH   1  10
ATOM      8  C   LIG    1      -13.578   1.581  -2.551  0.00  0.00    -0.030 A 
ATOM      9  C   LIG    1      -12.429   0.947  -2.882  0.00  0.00    +0.030 A 
ATOM     10  C   LIG    1      -11.428   1.653  -2.157  0.00  0.00    -0.030 A 
ATOM     11  N   LIG    1      -12.053   2.599  -1.502  0.00  0.00    -0.320 NA
ATOM     12  O   LIG    1      -13.244   2.570  -1.712  0.00  0.00    +0.130 OA
BRANCH   8  13
ATOM     13  C   LIG    1      -14.964   1.243  -3.038  0.00  0.00    +0.310 C 
BRANCH  13  15
ATOM     14  C   LIG    1      -16.890  -0.086  -2.518  0.00  0.00    +0.220 C 
ATOM     15  O   LIG    1      -15.566   0.303  -2.146  0.00  0.00    -0.390 OA
ENDBRANCH  13  15
ENDBRANCH   8  13
ENDBRANCH   1  10
BRANCH   5  16
ATOM     16  C   LIG    1       -5.845   3.090   0.042  0.00  0.00    +0.040 C 
BRANCH  16  17
ATOM     17  C   LIG    1       -4.918   1.873   0.032  0.00  0.00    +0.260 C 
BRANCH  17  18
ATOM     18  N   LIG    1       -3.523   2.322   0.029  0.00  0.00    -0.730 N 
ATOM     19  H   LIG    1       -3.319   3.270   0.033  0.00  0.00    +0.390 HD
ATOM     20  C   LIG    1       -2.525   1.417   0.020  0.00  0.00    +0.600 C 
ATOM     21  O   LIG    1       -2.781   0.227   0.015  0.00  0.00    -0.520 OA
BRANCH  20  22
ATOM     22  C   LIG    1       -1.127   1.866   0.017  0.00  0.00    -0.100 A 
ATOM     23  C   LIG    1       -0.013   1.076   0.008  0.00  0.00    +0.270 A 
ATOM     24  N   LIG    1        1.054   1.876   0.002  0.00  0.00    -0.500 NA
ATOM     25  C   LIG    1        0.667   3.126   0.012  0.00  0.00    +0.440 A 
ATOM     26  N   LIG    1       -0.677   3.172   0.025  0.00  0.00    -0.560 N 
ATOM     27  H   LIG    1       -1.227   3.971   0.034  0.00  0.00    +0.420 HD
ENDBRANCH  20  22
ENDBRANCH  17  18
ENDBRANCH  16  17
ENDBRANCH   5  16
TORSDOF 7
