REMARK  Name = ZINCvU00000007TE.0
REMARK                            x       y       z     vdW  Elec       q    Type
REMARK                         _______ _______ _______ _____ _____    ______ ____
ROOT
ATOM      1  C   LIG    1        3.426   6.454  -3.330  0.00  0.00    -0.030 A 
ATOM      2  C   LIG    1        3.840   7.529  -3.999  0.00  0.00    -0.010 A 
ATOM      3  S   LIG    1        3.191   9.001  -3.304  0.00  0.00    +0.190 S 
ATOM      4  C   LIG    1        2.325   8.117  -2.056  0.00  0.00    +0.100 A 
ATOM      5  N   LIG    1        1.539   8.544  -1.059  0.00  0.00    -0.490 NA
ATOM      6  C   LIG    1        0.982   7.698  -0.225  0.00  0.00    +0.540 A 
ATOM      7  N   LIG    1        1.159   6.393  -0.324  0.00  0.00    -0.500 NA
ATOM      8  C   LIG    1        1.925   5.876  -1.275  0.00  0.00    +0.190 A 
ATOM      9  C   LIG    1        2.551   6.747  -2.202  0.00  0.00    -0.150 A 
ENDROOT
BRANCH   1  14
ATOM     10  C   LIG    1        4.964   1.096  -4.773  0.00  0.00    +0.090 C 
ATOM     11  C   LIG    1        4.561   2.499  -4.396  0.00  0.00    -0.070 A 
ATOM     12  C   LIG    1        4.063   3.356  -5.360  0.00  0.00    +0.020 A 
ATOM     13  C   LIG    1        3.693   4.641  -5.020  0.00  0.00    +0.040 A 
ATOM     14  C   LIG    1        3.821   5.075  -3.701  0.00  0.00    -0.040 A 
ATOM     15  C   LIG    1        4.330   4.208  -2.735  0.00  0.00    +0.040 A 
ATOM     16  C   LIG    1        4.692   2.924  -3.086  0.00  0.00    +0.020 A 
ENDBRANCH   1  14
BRANCH   8  17
ATOM     17  S   LIG    1        2.157   4.133  -1.389  0.00  0.00    +0.050 S 
BRANCH  17  18
ATOM     18  C   LIG    1        1.148   3.590   0.012  0.00  0.00    +0.040 C 
BRANCH  18  19
ATOM     19  C   LIG    1        1.097   2.084   0.041  0.00  0.00    -0.080 A 
ATOM     20  C   LIG    1        2.268   1.352  -0.024  0.00  0.00    +0.050 A 
ATOM     21  C   LIG    1        2.223  -0.029   0.002  0.00  0.00    +0.000 A 
ATOM     22  C   LIG    1        1.004  -0.679   0.093  0.00  0.00    +0.110 A 
ATOM     23  C   LIG    1       -0.168   0.055   0.158  0.00  0.00    -0.010 A 
ATOM     24  F   LIG    1        0.959  -2.029   0.119  0.00  0.00    -0.130 F 
ATOM     25  C   LIG    1       -0.120   1.435   0.131  0.00  0.00    +0.080 A 
ENDBRANCH  18  19
BRANCH  18  26
ATOM     26  C   LIG    1        1.754   4.097   1.295  0.00  0.00    +0.540 C 
ATOM     27  N   LIG    1        2.993   3.706   1.655  0.00  0.00    -0.700 N 
ATOM     28  H   LIG    1        3.523   3.159   1.054  0.00  0.00    +0.400 HD
ATOM     29  O   LIG    1        1.128   4.856   2.004  0.00  0.00    -0.500 OA
BRANCH  27  30
ATOM     30  C   LIG    1        3.539   4.107   2.954  0.00  0.00    +0.220 C 
ATOM     31  C   LIG    1        4.989   4.592   2.991  0.00  0.00    +0.010 C 
ATOM     32  C   LIG    1        4.625   3.222   3.568  0.00  0.00    +0.020 C 
ENDBRANCH  27  30
ENDBRANCH  18  26
ENDBRANCH  17  18
ENDBRANCH   8  17
TORSDOF 6
