REMARK  Name = ZINCrg000000rExS.0
REMARK                            x       y       z     vdW  Elec       q    Type
REMARK                         _______ _______ _______ _____ _____    ______ ____
ROOT
ATOM      1  N   LIG    1       -1.244   3.969   0.127  0.00  0.00    -0.740 N 
ATOM      2  H   LIG    1       -1.666   4.842   0.134  0.00  0.00    +0.410 HD
ATOM      3  C   LIG    1       -1.289   3.189   1.226  0.00  0.00    +0.710 C 
ATOM      4  N   LIG    1       -1.831   3.662   2.366  0.00  0.00    -0.630 N 
ATOM      5  C   LIG    1       -1.799   2.868   3.603  0.00  0.00    +0.310 C 
ATOM      6  C   LIG    1       -1.231   3.750   4.727  0.00  0.00    +0.170 C 
ATOM      7  N   LIG    1       -2.009   4.993   4.808  0.00  0.00    -0.530 NA
ATOM      8  C   LIG    1       -1.886   5.780   3.573  0.00  0.00    +0.170 C 
ATOM      9  C   LIG    1       -2.475   4.984   2.404  0.00  0.00    +0.280 C 
ATOM     10  O   LIG    1       -0.842   2.059   1.189  0.00  0.00    -0.590 OA
ENDROOT
BRANCH   1  12
ATOM     11  C   LIG    1       -1.513   2.637  -1.906  0.00  0.00    +0.060 C 
ATOM     12  C   LIG    1       -0.556   3.497  -1.077  0.00  0.00    +0.360 C 
BRANCH  12  13
ATOM     13  C   LIG    1       -0.107   4.680  -1.895  0.00  0.00    +0.160 A 
ATOM     14  N   LIG    1       -0.817   5.738  -2.180  0.00  0.00    -0.280 NA
ATOM     15  N   LIG    1       -0.119   6.549  -2.893  0.00  0.00    -0.290 NA
ATOM     16  C   LIG    1        1.065   6.041  -3.104  0.00  0.00    +0.380 A 
ATOM     17  N   LIG    1        1.106   4.841  -2.476  0.00  0.00    -0.470 N 
ATOM     18  C   LIG    1        2.234   3.906  -2.435  0.00  0.00    +0.350 C 
ENDBRANCH  12  13
ENDBRANCH   1  12
BRANCH   7  19
ATOM     19  C   LIG    1       -1.614   5.786   5.979  0.00  0.00    +0.290 C 
BRANCH  19  20
ATOM     20  C   LIG    1       -1.981   5.042   7.237  0.00  0.00    +0.070 A 
ATOM     21  C   LIG    1       -1.160   4.235   7.943  0.00  0.00    +0.080 A 
ATOM     22  N   LIG    1       -1.877   3.761   9.008  0.00  0.00    -0.360 N 
ATOM     23  C   LIG    1       -1.558   2.922  10.036  0.00  0.00    +0.210 A 
ATOM     24  C   LIG    1       -2.475   2.605  10.974  0.00  0.00    +0.010 A 
ATOM     25  C   LIG    1       -3.773   3.138  10.905  0.00  0.00    +0.040 A 
ATOM     26  C   LIG    1       -4.104   3.976   9.886  0.00  0.00    +0.070 A 
ATOM     27  C   LIG    1       -3.136   4.297   8.914  0.00  0.00    +0.220 A 
ATOM     28  N   LIG    1       -3.174   5.067   7.836  0.00  0.00    -0.470 NA
ENDBRANCH  19  20
ENDBRANCH   7  19
TORSDOF 4
