REMARK  Name = ZINCrD0000072S5w.0
REMARK                            x       y       z     vdW  Elec       q    Type
REMARK                         _______ _______ _______ _____ _____    ______ ____
ROOT
ATOM      1  C   LIG    1       -0.686  -0.695  -0.928  0.00  0.00    +0.690 C 
ATOM      2  N   LIG    1        0.002  -0.004   0.002  0.00  0.00    -0.600 N 
ATOM      3  C   LIG    1        0.786  -0.706   1.028  0.00  0.00    +0.280 C 
ATOM      4  C   LIG    1        2.220  -0.169   1.005  0.00  0.00    -0.010 C 
ATOM      5  C   LIG    1        2.194   1.353   1.166  0.00  0.00    +0.020 C 
ATOM      6  C   LIG    1        1.426   1.978  -0.001  0.00  0.00    -0.020 C 
ATOM      7  C   LIG    1       -0.018   1.465   0.010  0.00  0.00    +0.290 C 
ATOM      8  O   LIG    1       -1.332  -0.102  -1.773  0.00  0.00    -0.610 OA
ENDROOT
BRANCH   1  14
ATOM      9  C   LIG    1       -2.665  -3.197  -3.619  0.00  0.00    +0.120 A 
ATOM     10  C   LIG    1       -2.155  -2.155  -2.916  0.00  0.00    +0.010 A 
ATOM     11  C   LIG    1       -1.335  -2.716  -1.839  0.00  0.00    +0.490 A 
ATOM     12  N   LIG    1       -1.399  -4.081  -1.965  0.00  0.00    -0.460 N 
ATOM     13  H   LIG    1       -0.954  -4.729  -1.396  0.00  0.00    +0.450 HD
ATOM     14  N   LIG    1       -0.659  -2.036  -0.924  0.00  0.00    -0.660 NA
ATOM     15  N   LIG    1       -2.222  -4.373  -3.059  0.00  0.00    -0.380 N 
ATOM     16  C   LIG    1       -2.556  -5.718  -3.535  0.00  0.00    +0.380 C 
BRANCH   9  17
ATOM     17  C   LIG    1       -3.554  -3.086  -4.799  0.00  0.00    +0.540 C 
ATOM     18  O   LIG    1       -3.954  -4.089  -5.354  0.00  0.00    -0.490 OA
BRANCH  17  20
ATOM     19  C   LIG    1       -4.792  -1.841  -6.416  0.00  0.00    +0.290 C 
ATOM     20  O   LIG    1       -3.919  -1.873  -5.256  0.00  0.00    -0.330 OA
ENDBRANCH  17  20
ENDBRANCH   9  17
ENDBRANCH   1  14
BRANCH   6  21
ATOM     21  C   LIG    1        1.428   3.501   0.143  0.00  0.00    +0.080 C 
BRANCH  21  22
ATOM     22  C   LIG    1        0.775   4.121  -1.066  0.00  0.00    -0.080 A 
ATOM     23  C   LIG    1        1.541   4.461  -2.166  0.00  0.00    +0.030 A 
ATOM     24  C   LIG    1        0.943   5.025  -3.276  0.00  0.00    +0.020 A 
ATOM     25  C   LIG    1       -0.421   5.260  -3.283  0.00  0.00    -0.040 A 
ATOM     26  C   LIG    1       -1.186   4.924  -2.180  0.00  0.00    +0.030 A 
ATOM     27 CL   LIG    1       -1.172   5.975  -4.675  0.00  0.00    -0.070 Cl
ATOM     28  C   LIG    1       -0.587   4.355  -1.072  0.00  0.00    +0.030 A 
ENDBRANCH  21  22
ENDBRANCH   6  21
TORSDOF 5
