REMARK  Name = ZINCqH0000002aHV.1
REMARK                            x       y       z     vdW  Elec       q    Type
REMARK                         _______ _______ _______ _____ _____    ______ ____
ROOT
ATOM      1  C   LIG    1       -3.510   3.566  -1.746  0.00  0.00    +0.560 C 
ATOM      2  N   LIG    1       -3.354   4.739  -1.102  0.00  0.00    -0.730 N 
ATOM      3  H   LIG    1       -2.544   5.258  -1.228  0.00  0.00    +0.400 HD
ATOM      4  O   LIG    1       -4.524   2.916  -1.587  0.00  0.00    -0.520 OA
ENDROOT
BRANCH   1   9
ATOM      5  C   LIG    1       -1.606   1.399  -4.159  0.00  0.00    +0.140 A 
ATOM      6  C   LIG    1       -0.451   2.151  -4.339  0.00  0.00    +0.010 A 
ATOM      7  C   LIG    1       -0.294   3.354  -3.677  0.00  0.00    +0.040 A 
ATOM      8  C   LIG    1       -1.282   3.817  -2.833  0.00  0.00    +0.020 A 
ATOM      9  C   LIG    1       -2.446   3.069  -2.645  0.00  0.00    -0.120 A 
ATOM     10  C   LIG    1       -2.605   1.855  -3.313  0.00  0.00    +0.080 A 
BRANCH   5  12
ATOM     11  C   LIG    1       -2.964  -0.168  -5.326  0.00  0.00    +0.510 C 
ATOM     12  N   LIG    1       -1.760   0.181  -4.831  0.00  0.00    -0.680 N 
ATOM     13  H   LIG    1       -1.000  -0.412  -4.940  0.00  0.00    +0.410 HD
ATOM     14  O   LIG    1       -3.897   0.604  -5.251  0.00  0.00    -0.510 OA
BRANCH  11  16
ATOM     15  C   LIG    1       -4.599  -1.658  -6.447  0.00  0.00    +0.050 C 
ATOM     16  C   LIG    1       -3.151  -1.516  -5.973  0.00  0.00    +0.060 C 
ENDBRANCH  11  16
ENDBRANCH   5  12
ENDBRANCH   1   9
BRANCH   2  17
ATOM     17  C   LIG    1       -4.408   5.231  -0.210  0.00  0.00    +0.260 C 
BRANCH  17  18
ATOM     18  C   LIG    1       -3.912   6.478   0.526  0.00  0.00    +0.210 C 
BRANCH  18  19
ATOM     19  C   LIG    1       -5.042   7.069   1.329  0.00  0.00    -0.070 A 
ATOM     20  C   LIG    1       -5.214   6.703   2.651  0.00  0.00    +0.050 A 
ATOM     21  C   LIG    1       -6.247   7.249   3.391  0.00  0.00    +0.020 A 
ATOM     22  C   LIG    1       -7.115   8.153   2.804  0.00  0.00    -0.030 A 
ATOM     23  C   LIG    1       -6.945   8.514   1.479  0.00  0.00    +0.020 A 
ATOM     24 CL   LIG    1       -8.415   8.834   3.730  0.00  0.00    -0.070 Cl
ATOM     25  C   LIG    1       -5.909   7.971   0.743  0.00  0.00    +0.030 A 
ENDBRANCH  18  19
BRANCH  18  26
ATOM     26  N   LIG    1       -2.811   6.109   1.426  0.00  0.00    -0.530 NA
ATOM     27  C   LIG    1       -1.515   6.216   0.743  0.00  0.00    +0.200 C 
ATOM     28  C   LIG    1       -3.008   4.761   1.974  0.00  0.00    +0.190 C 
ENDBRANCH  18  26
ENDBRANCH  17  18
ENDBRANCH   2  17
TORSDOF 7
