REMARK  Name = ZINCrH000004mVgD.0
REMARK                            x       y       z     vdW  Elec       q    Type
REMARK                         _______ _______ _______ _____ _____    ______ ____
ROOT
ATOM      1  C   LIG    1        2.740   1.169   3.313  0.00  0.00    +0.030 A 
ATOM      2  N   LIG    1        2.077   1.662   2.322  0.00  0.00    -0.430 NA
ATOM      3  C   LIG    1        2.095   0.986   1.191  0.00  0.00    +0.070 A 
ATOM      4  C   LIG    1        2.810  -0.142   1.231  0.00  0.00    -0.070 A 
ATOM      5  S   LIG    1        3.491  -0.295   2.849  0.00  0.00    +0.160 S 
ENDROOT
BRANCH   1   6
ATOM      6  C   LIG    1        2.839   1.793   4.681  0.00  0.00    +0.310 C 
BRANCH   6   7
ATOM      7  O   LIG    1        1.778   1.306   5.505  0.00  0.00    -0.310 OA
BRANCH   7  11
ATOM      8  C   LIG    1        1.609   2.727   9.377  0.00  0.00    +0.090 A 
ATOM      9  C   LIG    1        0.661   1.818   8.930  0.00  0.00    +0.030 A 
ATOM     10  C   LIG    1        0.718   1.343   7.634  0.00  0.00    +0.030 A 
ATOM     11  C   LIG    1        1.722   1.774   6.780  0.00  0.00    +0.100 A 
ATOM     12  C   LIG    1        2.673   2.679   7.229  0.00  0.00    -0.040 A 
ATOM     13  C   LIG    1        2.613   3.158   8.524  0.00  0.00    -0.040 A 
BRANCH   8  15
ATOM     14  C   LIG    1        2.562   4.127  11.046  0.00  0.00    +0.230 C 
ATOM     15  O   LIG    1        1.554   3.194  10.653  0.00  0.00    -0.320 OA
ENDBRANCH   8  15
ENDBRANCH   7  11
ENDBRANCH   6   7
ENDBRANCH   1   6
BRANCH   3  16
ATOM     16  C   LIG    1        1.364   1.445  -0.044  0.00  0.00    +0.290 C 
BRANCH  16  17
ATOM     17  N   LIG    1       -0.032   0.990   0.015  0.00  0.00    -0.660 NA
ATOM     18  H   LIG    1       -0.083  -0.017   0.045  0.00  0.00    +0.360 HD
BRANCH  17  19
ATOM     19  C   LIG    1       -0.808   1.523  -1.112  0.00  0.00    +0.300 C 
BRANCH  19  20
ATOM     20  C   LIG    1       -2.262   1.606  -0.727  0.00  0.00    +0.230 A 
ATOM     21  N   LIG    1       -2.939   0.676  -0.109  0.00  0.00    -0.470 NA
ATOM     22  C   LIG    1       -4.202   1.093   0.069  0.00  0.00    +0.140 A 
ATOM     23  C   LIG    1       -4.311   2.328  -0.458  0.00  0.00    +0.110 A 
ATOM     24  N   LIG    1       -3.080   2.655  -0.958  0.00  0.00    -0.460 N 
ATOM     25  C   LIG    1       -2.717   3.910  -1.622  0.00  0.00    +0.320 C 
ENDBRANCH  19  20
BRANCH  19  26
ATOM     26  C   LIG    1       -0.652   0.599  -2.321  0.00  0.00    -0.070 C 
ATOM     27  C   LIG    1        0.208   1.096  -3.485  0.00  0.00    +0.030 C 
ATOM     28  C   LIG    1       -1.314   1.031  -3.631  0.00  0.00    +0.020 C 
ENDBRANCH  19  26
ENDBRANCH  17  19
ENDBRANCH  16  17
ENDBRANCH   3  16
TORSDOF 9
