REMARK  Name = ZINCqH0000005iRG.0
REMARK                            x       y       z     vdW  Elec       q    Type
REMARK                         _______ _______ _______ _____ _____    ______ ____
ROOT
ATOM      1  C   LIG    1        5.838   2.906   3.603  0.00  0.00    -0.040 A 
ATOM      2  C   LIG    1        4.764   2.341   3.004  0.00  0.00    +0.160 A 
ATOM      3  N   LIG    1        5.220   1.788   1.857  0.00  0.00    -0.280 N 
ATOM      4  N   LIG    1        6.484   2.016   1.773  0.00  0.00    -0.080 NA
ATOM      5  N   LIG    1        6.884   2.681   2.799  0.00  0.00    -0.260 NA
ENDROOT
BRANCH   3   6
ATOM      6  C   LIG    1        4.413   1.060   0.875  0.00  0.00    +0.260 C 
ATOM      7  C   LIG    1        3.712   1.972  -0.145  0.00  0.00    +0.100 C 
ATOM      8  C   LIG    1        2.490   1.048  -0.016  0.00  0.00    +0.060 C 
ATOM      9  C   LIG    1        3.011   0.686   1.385  0.00  0.00    +0.100 C 
BRANCH   8  10
ATOM     10  C   LIG    1        1.175   1.783   0.000  0.00  0.00    -0.080 A 
ATOM     11  C   LIG    1        0.282   1.581   1.036  0.00  0.00    +0.030 A 
ATOM     12  C   LIG    1       -0.926   2.252   1.048  0.00  0.00    +0.010 A 
ATOM     13  C   LIG    1       -1.238   3.132   0.029  0.00  0.00    +0.020 A 
ATOM     14  C   LIG    1       -0.345   3.335  -1.006  0.00  0.00    +0.010 A 
ATOM     15  C   LIG    1        0.861   2.661  -1.021  0.00  0.00    +0.030 A 
ENDBRANCH   8  10
BRANCH   8  16
ATOM     16  C   LIG    1        2.502  -0.081  -0.961  0.00  0.00    +0.220 C 
ATOM     17  N   LIG    1        2.512  -0.952  -1.690  0.00  0.00    -0.400 NA
ENDBRANCH   8  16
ENDBRANCH   3   6
BRANCH   1  18
ATOM     18  C   LIG    1        5.853   3.649   4.914  0.00  0.00    +0.410 C 
BRANCH  18  20
ATOM     19  C   LIG    1        7.643   2.564   6.350  0.00  0.00    +0.280 C 
ATOM     20  N   LIG    1        6.232   2.730   5.991  0.00  0.00    -0.620 N 
BRANCH  20  21
ATOM     21  C   LIG    1        5.248   2.013   6.676  0.00  0.00    +0.220 A 
ATOM     22  C   LIG    1        3.910   2.173   6.340  0.00  0.00    -0.080 A 
ATOM     23  C   LIG    1        2.940   1.458   7.016  0.00  0.00    +0.050 A 
ATOM     24  C   LIG    1        3.300   0.592   8.032  0.00  0.00    -0.060 A 
ATOM     25  C   LIG    1        4.631   0.434   8.372  0.00  0.00    +0.050 A 
ATOM     26  C   LIG    1        5.606   1.141   7.697  0.00  0.00    -0.080 A 
ENDBRANCH  20  21
ENDBRANCH  18  20
ENDBRANCH   1  18
TORSDOF 6
