REMARK  Name = ZINC5a0000002hkX.0
REMARK                            x       y       z     vdW  Elec       q    Type
REMARK                         _______ _______ _______ _____ _____    ______ ____
ROOT
ATOM      1  C   LIG    1       -1.157   1.881   0.017  0.00  0.00    -0.130 A 
ATOM      2  C   LIG    1       -0.756   3.173   0.025  0.00  0.00    +0.240 A 
ATOM      3  N   LIG    1        0.593   3.186   0.013  0.00  0.00    -0.480 N 
ATOM      4  H   LIG    1        1.156   3.976   0.012  0.00  0.00    +0.440 HD
ATOM      5  N   LIG    1        1.037   1.857   0.002  0.00  0.00    -0.300 NA
ATOM      6  C   LIG    1       -0.013   1.076   0.008  0.00  0.00    +0.230 A 
ENDROOT
TORSDOF 0
