REMARK  Name = ZINCvU0000000F9B.0
REMARK                            x       y       z     vdW  Elec       q    Type
REMARK                         _______ _______ _______ _____ _____    ______ ____
ROOT
ATOM      1  C   LIG    1        8.439  -0.805   0.002  0.00  0.00    +0.160 A 
ATOM      2  C   LIG    1        8.367  -2.192  -0.002  0.00  0.00    +0.010 A 
ATOM      3  C   LIG    1        9.523  -2.945   0.083  0.00  0.00    +0.050 A 
ATOM      4  C   LIG    1       10.752  -2.322   0.172  0.00  0.00    -0.020 A 
ATOM      5  C   LIG    1       10.831  -0.935   0.176  0.00  0.00    +0.180 A 
ATOM      6  C   LIG    1        9.673  -0.176   0.086  0.00  0.00    +0.010 A 
ENDROOT
BRANCH   5   7
ATOM      7  N   LIG    1       12.076  -0.304   0.266  0.00  0.00    -0.680 N 
ATOM      8  H   LIG    1       12.852  -0.699  -0.162  0.00  0.00    +0.410 HD
ATOM      9  C   LIG    1       12.198   0.854   0.945  0.00  0.00    +0.700 C 
ATOM     10  N   LIG    1       13.413   1.413   1.111  0.00  0.00    -0.680 N 
ATOM     11  H   LIG    1       14.189   1.026   0.676  0.00  0.00    +0.410 HD
ATOM     12  O   LIG    1       11.212   1.393   1.409  0.00  0.00    -0.550 OA
BRANCH  10  13
ATOM     13  C   LIG    1       13.556   2.553   1.911  0.00  0.00    +0.160 A 
ATOM     14  C   LIG    1       14.492   3.523   1.579  0.00  0.00    -0.020 A 
ATOM     15  C   LIG    1       14.627   4.649   2.368  0.00  0.00    +0.030 A 
ATOM     16  C   LIG    1       13.838   4.805   3.493  0.00  0.00    -0.010 A 
ATOM     17  C   LIG    1       12.908   3.838   3.829  0.00  0.00    +0.030 A 
ATOM     18  C   LIG    1       12.765   2.713   3.041  0.00  0.00    +0.010 A 
ENDBRANCH  10  13
ENDBRANCH   5   7
BRANCH   1  21
ATOM     19  O   LIG    1        6.111  -1.565   1.040  0.00  0.00    -0.490 OA
ATOM     20  C   LIG    1        6.137  -0.477   0.506  0.00  0.00    +0.520 C 
ATOM     21  N   LIG    1        7.269  -0.043  -0.085  0.00  0.00    -0.670 N 
ATOM     22  H   LIG    1        7.271   0.797  -0.570  0.00  0.00    +0.410 HD
BRANCH  20  23
ATOM     23  C   LIG    1        4.905   0.391   0.502  0.00  0.00    +0.240 C 
BRANCH  23  24
ATOM     24  O   LIG    1        3.846  -0.283   1.184  0.00  0.00    -0.280 OA
BRANCH  24  25
ATOM     25  C   LIG    1        2.656   0.367   1.271  0.00  0.00    +0.150 A 
ATOM     26  C   LIG    1        2.510   1.609   0.721  0.00  0.00    -0.090 A 
ATOM     27  C   LIG    1        1.296   2.288   0.800  0.00  0.00    +0.050 A 
ATOM     28  C   LIG    1        0.223   1.736   1.429  0.00  0.00    -0.010 A 
ATOM     29  C   LIG    1        0.333   0.461   2.009  0.00  0.00    -0.020 A 
ATOM     30  C   LIG    1       -0.756  -0.139   2.665  0.00  0.00    +0.010 A 
ATOM     31  C   LIG    1       -0.612  -1.376   3.214  0.00  0.00    +0.030 A 
ATOM     32  C   LIG    1        0.600  -2.059   3.137  0.00  0.00    +0.000 A 
ATOM     33  C   LIG    1        1.675  -1.509   2.509  0.00  0.00    +0.050 A 
ATOM     34  C   LIG    1        1.565  -0.235   1.930  0.00  0.00    -0.070 A 
ENDBRANCH  24  25
ENDBRANCH  23  24
ENDBRANCH  20  23
ENDBRANCH   1  21
TORSDOF 6
