REMARK  Name = ZINCpk00000y6vUc.0
REMARK                            x       y       z     vdW  Elec       q    Type
REMARK                         _______ _______ _______ _____ _____    ______ ____
ROOT
ATOM      1  N   LIG    1       -0.961   0.339  -4.704  0.00  0.00    -0.990 NA
ENDROOT
BRANCH   1   3
ATOM      2  C   LIG    1       -1.553   0.408  -7.383  0.00  0.00    -0.290 C 
ATOM      3  S   LIG    1       -1.610  -0.619  -5.889  0.00  0.00    +2.600 S 
ATOM      4  O   LIG    1       -2.954  -0.825  -5.476  0.00  0.00    -0.950 OA
ATOM      5  O   LIG    1       -0.702  -1.707  -5.997  0.00  0.00    -0.940 OA
ENDBRANCH   1   3
BRANCH   1   6
ATOM      6  C   LIG    1        0.481   0.310  -4.447  0.00  0.00    +0.320 C 
BRANCH   6   7
ATOM      7  C   LIG    1        0.782  -0.709  -3.347  0.00  0.00    -0.020 C 
ATOM      8  C   LIG    1        0.123  -0.260  -2.041  0.00  0.00    +0.040 C 
ATOM      9  C   LIG    1        0.425  -1.279  -0.941  0.00  0.00    +0.020 C 
ATOM     10  C   LIG    1        1.938  -1.380  -0.740  0.00  0.00    +0.290 C 
ATOM     11  C   LIG    1        2.597  -1.829  -2.045  0.00  0.00    +0.030 C 
ATOM     12  F   LIG    1        2.444  -0.129  -0.368  0.00  0.00    -0.200 F 
ATOM     13  F   LIG    1        2.214  -2.312   0.267  0.00  0.00    -0.200 F 
ATOM     14  C   LIG    1        2.296  -0.810  -3.146  0.00  0.00    +0.050 C 
ENDBRANCH   6   7
ENDBRANCH   1   6
BRANCH   1  15
ATOM     15  C   LIG    1       -1.829   1.215  -3.913  0.00  0.00    +0.440 C 
BRANCH  15  16
ATOM     16  C   LIG    1       -1.855   2.588  -4.532  0.00  0.00    +0.150 A 
ATOM     17  N   LIG    1       -0.970   3.535  -4.358  0.00  0.00    -0.270 NA
ATOM     18  N   LIG    1       -1.302   4.572  -5.047  0.00  0.00    -0.280 NA
ATOM     19  C   LIG    1       -2.403   4.329  -5.695  0.00  0.00    +0.180 A 
ATOM     20  C   LIG    1       -3.129   5.234  -6.657  0.00  0.00    +0.140 C 
ATOM     21  C   LIG    1       -4.626   5.196  -6.335  0.00  0.00    +0.230 C 
ATOM     22  O   LIG    1       -5.235   4.114  -7.033  0.00  0.00    -0.370 OA
ATOM     23  C   LIG    1       -4.404   2.965  -7.207  0.00  0.00    +0.240 C 
ATOM     24  C   LIG    1       -4.009   2.401  -5.838  0.00  0.00    +0.270 C 
ATOM     25  N   LIG    1       -2.796   3.072  -5.371  0.00  0.00    -0.470 N 
ENDBRANCH  15  16
ENDBRANCH   1  15
TORSDOF 5
