REMARK  Name = ZINCpe00000ztCbI.0
REMARK                            x       y       z     vdW  Elec       q    Type
REMARK                         _______ _______ _______ _____ _____    ______ ____
ROOT
ATOM      1  N   LIG    1        1.259   1.780  -0.000  0.00  0.00    -0.470 N 
ATOM      2  C   LIG    1       -0.016   1.297   0.009  0.00  0.00    +0.490 A 
ATOM      3  N   LIG    1        0.002  -0.004   0.002  0.00  0.00    -0.460 NA
ATOM      4  C   LIG    1        1.286  -0.438  -0.013  0.00  0.00    -0.070 A 
ATOM      5  C   LIG    1        1.902  -1.700  -0.026  0.00  0.00    +0.430 A 
ATOM      6  N   LIG    1        3.230  -1.756  -0.039  0.00  0.00    -0.570 NA
ATOM      7  C   LIG    1        3.961  -0.656  -0.040  0.00  0.00    +0.550 A 
ATOM      8  N   LIG    1        3.427   0.547  -0.028  0.00  0.00    -0.530 NA
ATOM      9  C   LIG    1        2.107   0.702  -0.014  0.00  0.00    +0.300 A 
ENDROOT
BRANCH   5  10
ATOM     10  N   LIG    1        1.145  -2.858  -0.025  0.00  0.00    -0.460 N 
ATOM     11  C   LIG    1        0.222  -2.883   1.117  0.00  0.00    +0.220 C 
ATOM     12  C   LIG    1       -0.697  -4.102   1.006  0.00  0.00    +0.050 C 
ATOM     13  C   LIG    1        0.153  -5.375   0.984  0.00  0.00    +0.230 C 
ATOM     14  C   LIG    1        1.138  -5.303  -0.186  0.00  0.00    +0.030 C 
ATOM     15  C   LIG    1        2.003  -4.049  -0.040  0.00  0.00    +0.230 C 
BRANCH  13  16
ATOM     16  N   LIG    1       -0.718  -6.542   0.819  0.00  0.00    -0.440 N 
ATOM     17  C   LIG    1       -1.558  -6.764  -0.231  0.00  0.00    +0.150 A 
ATOM     18  C   LIG    1       -2.186  -7.940  -0.028  0.00  0.00    -0.070 A 
ATOM     19  C   LIG    1       -1.724  -8.458   1.198  0.00  0.00    -0.070 A 
ATOM     20  C   LIG    1       -0.827  -7.582   1.694  0.00  0.00    +0.140 A 
ENDBRANCH  13  16
ENDBRANCH   5  10
BRANCH   1  21
ATOM     21  C   LIG    1        1.651   3.192   0.003  0.00  0.00    +0.290 C 
BRANCH  21  22
ATOM     22  C   LIG    1        1.895   3.657  -1.435  0.00  0.00    +0.200 C 
BRANCH  22  23
ATOM     23  O   LIG    1        3.014   2.955  -1.979  0.00  0.00    -0.540 OA
ATOM     24  H   LIG    1        3.838   3.090  -1.492  0.00  0.00    +0.380 HD
ENDBRANCH  22  23
BRANCH  22  25
ATOM     25  C   LIG    1        2.182   5.159  -1.443  0.00  0.00    +0.160 C 
BRANCH  25  26
ATOM     26  O   LIG    1        2.294   5.616  -2.792  0.00  0.00    -0.560 OA
ATOM     27  H   LIG    1        2.477   6.562  -2.874  0.00  0.00    +0.380 HD
ENDBRANCH  25  26
ENDBRANCH  22  25
ENDBRANCH  21  22
ENDBRANCH   1  21
TORSDOF 7
