REMARK  Name = ZINCpe00000gMVy6.2
REMARK                            x       y       z     vdW  Elec       q    Type
REMARK                         _______ _______ _______ _____ _____    ______ ____
ROOT
ATOM      1  C   LIG    1       -2.548   1.121   2.497  0.00  0.00    +0.100 C 
ATOM      2  C   LIG    1       -3.041   0.558   1.189  0.00  0.00    +0.180 A 
ATOM      3  C   LIG    1       -2.462   0.950   0.019  0.00  0.00    -0.340 A 
ATOM      4  C   LIG    1       -2.936   0.403  -1.191  0.00  0.00    +0.500 A 
ATOM      5  N   LIG    1       -3.952  -0.485  -1.147  0.00  0.00    -0.610 NA
ATOM      6  C   LIG    1       -4.494  -0.832   0.054  0.00  0.00    +0.380 A 
ATOM      7  O   LIG    1       -2.438   0.726  -2.257  0.00  0.00    -0.620 OA
ATOM      8  N   LIG    1       -4.044  -0.318   1.179  0.00  0.00    -0.610 NA
ENDROOT
BRANCH   6   9
ATOM      9  C   LIG    1       -5.607  -1.806   0.095  0.00  0.00    +0.200 A 
ATOM     10  C   LIG    1       -6.166  -2.166   1.320  0.00  0.00    +0.020 A 
ATOM     11  C   LIG    1       -7.208  -3.079   1.342  0.00  0.00    +0.040 A 
ATOM     12  C   LIG    1       -7.656  -3.601   0.138  0.00  0.00    -0.050 A 
ATOM     13  C   LIG    1       -7.054  -3.198  -1.043  0.00  0.00    +0.240 A 
ATOM     14  N   LIG    1       -6.069  -2.326  -1.036  0.00  0.00    -0.440 NA
ENDBRANCH   6   9
BRANCH   3  15
ATOM     15  C   LIG    1       -1.330   1.944   0.019  0.00  0.00    +0.120 C 
BRANCH  15  16
ATOM     16  C   LIG    1       -0.014   1.209   0.009  0.00  0.00    +0.520 C 
ATOM     17  N   LIG    1        1.143   1.898   0.001  0.00  0.00    -0.740 N 
ATOM     18  H   LIG    1        1.130   2.868   0.007  0.00  0.00    +0.400 HD
ATOM     19  O   LIG    1        0.002  -0.004   0.002  0.00  0.00    -0.510 OA
BRANCH  17  20
ATOM     20  C   LIG    1        2.422   1.183  -0.015  0.00  0.00    +0.230 C 
ATOM     21  C   LIG    1        2.796   0.836  -1.459  0.00  0.00    +0.030 C 
ATOM     22  C   LIG    1        4.169   0.159  -1.472  0.00  0.00    +0.060 C 
ATOM     23  C   LIG    1        5.195   1.085  -0.814  0.00  0.00    +0.250 C 
ATOM     24  N   LIG    1        4.795   1.358   0.572  0.00  0.00    -0.380 N 
ATOM     25  C   LIG    1        5.821   2.183   1.223  0.00  0.00    +0.320 C 
ATOM     26  H   LIG    1        4.700   0.486   1.071  0.00  0.00    +0.430 HD
ATOM     27  C   LIG    1        3.512   2.071   0.589  0.00  0.00    +0.250 C 
ENDBRANCH  17  20
ENDBRANCH  15  16
ENDBRANCH   3  15
TORSDOF 4
