REMARK  Name = ZINCpe00000gMVy6.1
REMARK                            x       y       z     vdW  Elec       q    Type
REMARK                         _______ _______ _______ _____ _____    ______ ____
ROOT
ATOM      1  C   LIG    1       -1.195  -2.261   2.478  0.00  0.00    +0.100 C 
ATOM      2  C   LIG    1       -0.950  -2.959   1.165  0.00  0.00    +0.190 A 
ATOM      3  C   LIG    1       -0.997  -2.253  -0.001  0.00  0.00    -0.340 A 
ATOM      4  C   LIG    1       -0.770  -2.930  -1.216  0.00  0.00    +0.500 A 
ATOM      5  N   LIG    1       -0.505  -4.254  -1.181  0.00  0.00    -0.610 NA
ATOM      6  C   LIG    1       -0.471  -4.904   0.016  0.00  0.00    +0.380 A 
ATOM      7  O   LIG    1       -0.809  -2.332  -2.278  0.00  0.00    -0.620 OA
ATOM      8  N   LIG    1       -0.689  -4.265   1.145  0.00  0.00    -0.610 NA
ENDROOT
BRANCH   6   9
ATOM      9  C   LIG    1       -0.186  -6.356   0.046  0.00  0.00    +0.200 A 
ATOM     10  C   LIG    1       -0.150  -7.028   1.266  0.00  0.00    +0.020 A 
ATOM     11  C   LIG    1        0.119  -8.387   1.278  0.00  0.00    +0.040 A 
ATOM     12  C   LIG    1        0.343  -9.028   0.069  0.00  0.00    -0.050 A 
ATOM     13  C   LIG    1        0.293  -8.297  -1.107  0.00  0.00    +0.240 A 
ATOM     14  N   LIG    1        0.030  -7.008  -1.091  0.00  0.00    -0.440 NA
ENDBRANCH   6   9
BRANCH   3  15
ATOM     15  C   LIG    1       -1.293  -0.775   0.010  0.00  0.00    +0.120 C 
BRANCH  15  16
ATOM     16  C   LIG    1        0.002  -0.004   0.002  0.00  0.00    +0.520 C 
ATOM     17  N   LIG    1       -0.016   1.344   0.009  0.00  0.00    -0.760 N 
ATOM     18  H   LIG    1       -0.863   1.817   0.016  0.00  0.00    +0.380 HD
ATOM     19  O   LIG    1        1.060  -0.596  -0.011  0.00  0.00    -0.500 OA
BRANCH  17  20
ATOM     20  C   LIG    1        1.242   2.093   0.001  0.00  0.00    +0.260 C 
ATOM     21  C   LIG    1        1.732   2.255  -1.440  0.00  0.00    +0.040 C 
ATOM     22  C   LIG    1        0.710   3.079  -2.227  0.00  0.00    +0.050 C 
ATOM     23  C   LIG    1        0.504   4.426  -1.531  0.00  0.00    +0.250 C 
ATOM     24  N   LIG    1        0.011   4.205  -0.166  0.00  0.00    -0.390 N 
ATOM     25  C   LIG    1       -0.257   5.501   0.472  0.00  0.00    +0.310 C 
ATOM     26  H   LIG    1       -0.841   3.666  -0.201  0.00  0.00    +0.420 HD
ATOM     27  C   LIG    1        1.017   3.477   0.616  0.00  0.00    +0.270 C 
ENDBRANCH  17  20
ENDBRANCH  15  16
ENDBRANCH   3  15
TORSDOF 4
