REMARK  Name = ZINCqH0000008sKB.0
REMARK                            x       y       z     vdW  Elec       q    Type
REMARK                         _______ _______ _______ _____ _____    ______ ____
ROOT
ATOM      1  C   LIG    1       -0.275   4.364   4.236  0.00  0.00    +0.500 C 
ATOM      2  N   LIG    1       -1.133   3.497   3.663  0.00  0.00    -0.570 N 
ATOM      3  C   LIG    1       -1.647   3.730   2.304  0.00  0.00    +0.300 C 
ATOM      4  C   LIG    1       -0.754   3.100   1.269  0.00  0.00    +0.020 C 
ATOM      5  C   LIG    1       -0.729   1.579   1.267  0.00  0.00    +0.030 C 
ATOM      6  S   LIG    1        0.147   0.969   2.736  0.00  0.00    -0.140 S 
ATOM      7  C   LIG    1       -1.109   1.088   3.987  0.00  0.00    -0.100 A 
ATOM      8  C   LIG    1       -1.615  -0.051   4.584  0.00  0.00    +0.080 A 
ATOM      9  C   LIG    1       -2.573   0.075   5.577  0.00  0.00    +0.020 A 
ATOM     10  C   LIG    1       -3.005   1.329   5.965  0.00  0.00    +0.040 A 
ATOM     11  C   LIG    1       -2.504   2.467   5.359  0.00  0.00    +0.010 A 
ATOM     12  C   LIG    1       -0.013   1.086   0.008  0.00  0.00    +0.070 C 
ATOM     13  C   LIG    1       -1.559   2.350   4.347  0.00  0.00    +0.150 A 
ATOM     14  O   LIG    1        0.083   5.352   3.630  0.00  0.00    -0.510 OA
ENDROOT
BRANCH   1  15
ATOM     15  C   LIG    1        0.239   4.107   5.629  0.00  0.00    +0.340 C 
BRANCH  15  16
ATOM     16  N   LIG    1        1.149   5.186   6.021  0.00  0.00    -0.600 N 
BRANCH  16  17
ATOM     17  C   LIG    1        2.515   5.081   5.749  0.00  0.00    +0.220 A 
ATOM     18  C   LIG    1        3.378   6.106   6.114  0.00  0.00    -0.070 A 
ATOM     19  C   LIG    1        4.729   5.997   5.849  0.00  0.00    +0.050 A 
ATOM     20  C   LIG    1        5.221   4.873   5.210  0.00  0.00    -0.060 A 
ATOM     21  C   LIG    1        4.363   3.854   4.840  0.00  0.00    +0.050 A 
ATOM     22  C   LIG    1        3.012   3.954   5.107  0.00  0.00    -0.070 A 
ENDBRANCH  16  17
BRANCH  16  23
ATOM     23  C   LIG    1        0.626   6.376   6.697  0.00  0.00    +0.260 C 
BRANCH  23  25
ATOM     24  C   LIG    1        0.103   7.395   8.918  0.00  0.00    +0.010 C 
ATOM     25  C   LIG    1        0.649   6.153   8.211  0.00  0.00    +0.180 C 
BRANCH  25  26
ATOM     26  O   LIG    1       -0.162   5.023   8.539  0.00  0.00    -0.550 OA
ATOM     27  H   LIG    1       -1.089   5.115   8.278  0.00  0.00    +0.370 HD
ENDBRANCH  25  26
ENDBRANCH  23  25
ENDBRANCH  16  23
ENDBRANCH  15  16
ENDBRANCH   1  15
TORSDOF 6
