REMARK  Name = ZINCrH000004th7g.0
REMARK                            x       y       z     vdW  Elec       q    Type
REMARK                         _______ _______ _______ _____ _____    ______ ____
ROOT
ATOM      1  N   LIG    1        1.164   5.893   0.017  0.00  0.00    -0.690 N 
ATOM      2  H   LIG    1        1.152   6.860  -0.059  0.00  0.00    +0.410 HD
ATOM      3  C   LIG    1        2.339   5.239   0.110  0.00  0.00    +0.710 C 
ATOM      4  N   LIG    1        3.490   5.932   0.205  0.00  0.00    -0.630 N 
ATOM      5  C   LIG    1        4.785   5.238   0.197  0.00  0.00    +0.300 C 
ATOM      6  C   LIG    1        5.587   5.665   1.425  0.00  0.00    +0.050 C 
ATOM      7  C   LIG    1        5.692   7.192   1.457  0.00  0.00    -0.030 C 
ATOM      8  C   LIG    1        4.291   7.800   1.556  0.00  0.00    +0.040 C 
ATOM      9  C   LIG    1        3.475   7.397   0.324  0.00  0.00    +0.270 C 
ATOM     10  O   LIG    1        2.359   4.023   0.109  0.00  0.00    -0.570 OA
ENDROOT
BRANCH   1  14
ATOM     11  C   LIG    1       -2.418   3.758   0.049  0.00  0.00    +0.110 A 
ATOM     12  C   LIG    1       -1.335   3.307   0.789  0.00  0.00    +0.020 A 
ATOM     13  C   LIG    1       -0.148   4.012   0.777  0.00  0.00    +0.060 A 
ATOM     14  C   LIG    1       -0.040   5.176   0.029  0.00  0.00    +0.130 A 
ATOM     15  C   LIG    1       -1.126   5.631  -0.707  0.00  0.00    +0.020 A 
ATOM     16  C   LIG    1       -2.313   4.924  -0.695  0.00  0.00    -0.050 A 
BRANCH  11  17
ATOM     17  O   LIG    1       -3.584   3.059   0.056  0.00  0.00    -0.310 OA
BRANCH  17  18
ATOM     18  C   LIG    1       -4.658   3.582  -0.729  0.00  0.00    +0.380 C 
BRANCH  18  20
ATOM     19  N   LIG    1       -6.738   2.024  -0.504  0.00  0.00    -0.390 NA
ATOM     20  C   LIG    1       -5.832   2.702  -0.602  0.00  0.00    +0.210 C 
ENDBRANCH  18  20
ENDBRANCH  17  18
ENDBRANCH  11  17
ENDBRANCH   1  14
BRANCH   7  21
ATOM     21  C   LIG    1        6.509   7.614   2.651  0.00  0.00    +0.400 C 
ATOM     22  O   LIG    1        5.963   7.834   3.711  0.00  0.00    -0.450 OA
BRANCH  21  23
ATOM     23  C   LIG    1        7.968   7.760   2.530  0.00  0.00    -0.170 A 
ATOM     24  C   LIG    1        8.601   7.502   1.310  0.00  0.00    +0.060 A 
ATOM     25  C   LIG    1        9.969   7.646   1.203  0.00  0.00    +0.000 A 
ATOM     26  C   LIG    1       10.715   8.034   2.302  0.00  0.00    +0.040 A 
ATOM     27  C   LIG    1       10.097   8.286   3.514  0.00  0.00    +0.000 A 
ATOM     28  C   LIG    1        8.729   8.152   3.635  0.00  0.00    +0.070 A 
ENDBRANCH  21  23
ENDBRANCH   7  21
TORSDOF 6
