REMARK  Name = ZINCpe00000gMy8E.0
REMARK                            x       y       z     vdW  Elec       q    Type
REMARK                         _______ _______ _______ _____ _____    ______ ____
ROOT
ATOM      1  O   LIG    1       -5.221   1.068   1.402  0.00  0.00    -0.350 OA
ENDROOT
BRANCH   1   2
ATOM      2  C   LIG    1       -6.362   0.383   1.580  0.00  0.00    +0.470 C 
ATOM      3  O   LIG    1       -6.999   0.011   0.622  0.00  0.00    -0.490 OA
BRANCH   2   4
ATOM      4  C   LIG    1       -6.850   0.079   2.973  0.00  0.00    +0.170 C 
BRANCH   4   8
ATOM      5  C   LIG    1      -10.516  -2.113   2.756  0.00  0.00    +0.170 A 
ATOM      6  C   LIG    1      -10.536  -0.734   2.905  0.00  0.00    -0.110 A 
ATOM      7  C   LIG    1       -9.349  -0.029   2.980  0.00  0.00    +0.110 A 
ATOM      8  C   LIG    1       -8.141  -0.694   2.896  0.00  0.00    -0.150 A 
ATOM      9  C   LIG    1       -8.116  -2.073   2.747  0.00  0.00    +0.190 A 
ATOM     10  C   LIG    1       -9.305  -2.783   2.677  0.00  0.00    -0.100 A 
BRANCH   5  12
ATOM     11  C   LIG    1      -12.892  -2.051   2.775  0.00  0.00    +0.250 C 
ATOM     12  O   LIG    1      -11.682  -2.807   2.687  0.00  0.00    -0.320 OA
ENDBRANCH   5  12
BRANCH   9  13
ATOM     13  O   LIG    1       -6.927  -2.727   2.670  0.00  0.00    -0.310 OA
ATOM     14  C   LIG    1       -6.977  -4.147   2.517  0.00  0.00    +0.250 C 
ENDBRANCH   9  13
ENDBRANCH   4   8
ENDBRANCH   2   4
ENDBRANCH   1   2
BRANCH   1  15
ATOM     15  C   LIG    1       -4.813   1.324   0.033  0.00  0.00    +0.340 C 
BRANCH  15  16
ATOM     16  C   LIG    1       -3.520   2.098   0.031  0.00  0.00    +0.430 A 
ATOM     17  N   LIG    1       -2.366   1.454   0.021  0.00  0.00    -0.620 NA
ATOM     18  C   LIG    1       -1.222   2.134   0.019  0.00  0.00    +0.630 A 
ATOM     19  N   LIG    1       -1.241   3.463   0.032  0.00  0.00    -0.650 NA
ATOM     20  C   LIG    1       -2.403   4.107   0.037  0.00  0.00    +0.630 A 
ATOM     21  N   LIG    1       -3.543   3.420   0.039  0.00  0.00    -0.620 NA
BRANCH  20  22
ATOM     22  N   LIG    1       -2.428   5.487   0.046  0.00  0.00    -0.800 N 
ATOM     23  H   LIG    1       -1.597   5.987   0.045  0.00  0.00    +0.420 HD
ATOM     24  H   LIG    1       -3.277   5.956   0.054  0.00  0.00    +0.420 HD
ENDBRANCH  20  22
BRANCH  18  25
ATOM     25  N   LIG    1       -0.018   1.461   0.010  0.00  0.00    -0.580 N 
ATOM     26  C   LIG    1        1.241   2.211   0.002  0.00  0.00    +0.310 C 
ATOM     27  C   LIG    1        0.002  -0.004   0.002  0.00  0.00    +0.310 C 
ENDBRANCH  18  25
ENDBRANCH  15  16
ENDBRANCH   1  15
TORSDOF 9
