REMARK  Name = ZINCpe000000ZuVL.0
REMARK                            x       y       z     vdW  Elec       q    Type
REMARK                         _______ _______ _______ _____ _____    ______ ____
ROOT
ATOM      1  O   LIG    1       -2.987  -0.502   0.821  0.00  0.00    -0.470 OA
ATOM      2  C   LIG    1       -2.660  -1.088  -0.192  0.00  0.00    +0.570 C 
ATOM      3  N   LIG    1       -2.215  -0.394  -1.258  0.00  0.00    -0.610 N 
ATOM      4  C   LIG    1       -2.270  -0.997  -2.591  0.00  0.00    +0.350 C 
ATOM      5  C   LIG    1       -0.848  -1.183  -3.130  0.00  0.00    -0.320 C 
ATOM      6  S   LIG    1       -0.018   0.432  -3.175  0.00  0.00    +2.410 S 
ATOM      7  C   LIG    1       -0.194   0.973  -1.449  0.00  0.00    -0.430 C 
ATOM      8  C   LIG    1        0.572   0.010  -0.539  0.00  0.00    +0.060 C 
ATOM      9  C   LIG    1        0.406   0.442   0.919  0.00  0.00    +0.020 C 
ATOM     10  C   LIG    1       -1.078   0.417   1.292  0.00  0.00    +0.020 C 
ATOM     11  C   LIG    1       -1.845   1.381   0.385  0.00  0.00    +0.060 C 
ATOM     12  O   LIG    1        1.361   0.229  -3.449  0.00  0.00    -0.930 OA
ATOM     13  O   LIG    1       -0.770   1.307  -4.004  0.00  0.00    -0.930 OA
ATOM     14  C   LIG    1       -1.679   0.955  -1.074  0.00  0.00    +0.270 C 
ENDROOT
BRANCH   2  15
ATOM     15  C   LIG    1       -2.751  -2.564  -0.255  0.00  0.00    +0.000 A 
ATOM     16  C   LIG    1       -3.348  -3.275   0.791  0.00  0.00    +0.150 A 
ATOM     17  C   LIG    1       -3.410  -4.655   0.686  0.00  0.00    +0.040 A 
ATOM     18  C   LIG    1       -2.874  -5.250  -0.454  0.00  0.00    +0.320 A 
ATOM     19  N   LIG    1       -2.325  -4.496  -1.399  0.00  0.00    -0.250 NA
ATOM     20  N   LIG    1       -2.271  -3.217  -1.307  0.00  0.00    -0.170 NA
BRANCH  18  21
ATOM     21  N   LIG    1       -2.914  -6.636  -0.603  0.00  0.00    -0.420 N 
ATOM     22  C   LIG    1       -2.350  -7.365  -1.620  0.00  0.00    +0.160 A 
ATOM     23  C   LIG    1       -2.625  -8.659  -1.372  0.00  0.00    +0.160 A 
ATOM     24  N   LIG    1       -3.343  -8.725  -0.241  0.00  0.00    -0.470 NA
ATOM     25  C   LIG    1       -3.523  -7.522   0.230  0.00  0.00    +0.420 A 
ENDBRANCH  18  21
ENDBRANCH   2  15
TORSDOF 2
