REMARK  Name = ZINCah0000003XLl.0
REMARK                            x       y       z     vdW  Elec       q    Type
REMARK                         _______ _______ _______ _____ _____    ______ ____
ROOT
ATOM      1  C   LIG    1        2.425   0.041  -0.021  0.00  0.00    +0.280 A 
ATOM      2  C   LIG    1        1.227  -0.689  -0.013  0.00  0.00    -0.030 A 
ATOM      3  N   LIG    1        0.940  -2.016  -0.017  0.00  0.00    -0.490 NA
ATOM      4  C   LIG    1       -0.350  -2.184  -0.006  0.00  0.00    +0.450 A 
ATOM      5  N   LIG    1       -0.978  -0.977   0.007  0.00  0.00    -0.600 N 
ATOM      6  H   LIG    1       -1.936  -0.827   0.017  0.00  0.00    +0.420 HD
ATOM      7  C   LIG    1        0.002  -0.004   0.002  0.00  0.00    +0.100 A 
ATOM      8  C   LIG    1       -0.017   1.385   0.010  0.00  0.00    -0.060 A 
ATOM      9  C   LIG    1        1.168   2.090   0.002  0.00  0.00    +0.090 A 
ATOM     10  C   LIG    1        2.384   1.424  -0.013  0.00  0.00    -0.100 A 
ENDROOT
BRANCH   1  11
ATOM     11  N   LIG    1        3.653  -0.625  -0.036  0.00  0.00    -0.860 N 
ATOM     12  H   LIG    1        4.479  -0.117  -0.041  0.00  0.00    +0.400 HD
ATOM     13  H   LIG    1        3.679  -1.594  -0.041  0.00  0.00    +0.410 HD
ENDBRANCH   1  11
TORSDOF 1
