REMARK  Name = ZINCpk00000y6v2s.0
REMARK                            x       y       z     vdW  Elec       q    Type
REMARK                         _______ _______ _______ _____ _____    ______ ____
ROOT
ATOM      1  C   LIG    1       -3.858   3.506   2.425  0.00  0.00    +0.390 C 
ENDROOT
BRANCH   1   4
ATOM      2  O   LIG    1       -5.794   2.146   1.131  0.00  0.00    -0.530 OA
ATOM      3  C   LIG    1       -6.018   3.327   1.310  0.00  0.00    +0.570 C 
ATOM      4  N   LIG    1       -5.112   4.095   1.948  0.00  0.00    -0.710 N 
ATOM      5  H   LIG    1       -5.291   5.038   2.091  0.00  0.00    +0.410 HD
BRANCH   3   6
ATOM      6  C   LIG    1       -7.283   3.921   0.829  0.00  0.00    -0.140 A 
ATOM      7  C   LIG    1       -7.545   5.276   1.039  0.00  0.00    +0.050 A 
ATOM      8  C   LIG    1       -8.726   5.825   0.583  0.00  0.00    +0.000 A 
ATOM      9  C   LIG    1       -9.654   5.034  -0.071  0.00  0.00    +0.040 A 
ATOM     10  C   LIG    1       -9.402   3.690  -0.277  0.00  0.00    +0.000 A 
ATOM     11  C   LIG    1       -8.223   3.129   0.169  0.00  0.00    +0.080 A 
ENDBRANCH   3   6
ENDBRANCH   1   4
BRANCH   1  12
ATOM     12  C   LIG    1       -3.581   3.983   3.827  0.00  0.00    +0.420 C 
ATOM     13  O   LIG    1       -2.457   4.313   4.145  0.00  0.00    -0.440 OA
BRANCH  12  14
ATOM     14  C   LIG    1       -4.629   4.045   4.772  0.00  0.00    -0.330 A 
ATOM     15  C   LIG    1       -4.529   4.560   6.040  0.00  0.00    +0.130 A 
ATOM     16  C   LIG    1       -5.704   4.497   6.744  0.00  0.00    -0.010 A 
ATOM     17  C   LIG    1       -6.733   3.942   6.088  0.00  0.00    -0.050 A 
ATOM     18  S   LIG    1       -6.270   3.467   4.516  0.00  0.00    +0.250 S 
ENDBRANCH  12  14
ENDBRANCH   1  12
BRANCH   1  19
ATOM     19  N   LIG    1       -2.758   3.916   1.542  0.00  0.00    -0.670 NA
ATOM     20  H   LIG    1       -1.975   4.262   2.076  0.00  0.00    +0.370 HD
BRANCH  19  21
ATOM     21  C   LIG    1       -2.349   2.812   0.663  0.00  0.00    +0.210 C 
ATOM     22  C   LIG    1       -1.600   3.373  -0.558  0.00  0.00    +0.090 C 
ATOM     23  C   LIG    1       -0.917   2.167  -1.252  0.00  0.00    -0.310 C 
ATOM     24  S   LIG    1       -0.255   1.213   0.166  0.00  0.00    +2.400 S 
ATOM     25  O   LIG    1        1.065   1.654   0.455  0.00  0.00    -0.930 OA
ATOM     26  O   LIG    1       -0.511  -0.170  -0.036  0.00  0.00    -0.930 OA
ATOM     27  C   LIG    1       -1.402   1.864   1.434  0.00  0.00    -0.360 C 
ENDBRANCH  19  21
ENDBRANCH   1  19
TORSDOF 6
