REMARK  Name = ZINCrH00000No4XN.0
REMARK                            x       y       z     vdW  Elec       q    Type
REMARK                         _______ _______ _______ _____ _____    ______ ____
ROOT
ATOM      1  N   LIG    1        0.088   7.326  -0.284  0.00  0.00    -0.330 NA
ATOM      2  C   LIG    1        0.191   6.046  -0.443  0.00  0.00    +0.290 C 
ENDROOT
BRANCH   2   3
ATOM      3  C   LIG    1       -0.370   5.129   0.567  0.00  0.00    -0.050 A 
ATOM      4  C   LIG    1       -1.013   5.641   1.696  0.00  0.00    +0.070 A 
ATOM      5  C   LIG    1       -1.537   4.783   2.640  0.00  0.00    -0.010 A 
ATOM      6  C   LIG    1       -1.428   3.411   2.471  0.00  0.00    +0.100 A 
ATOM      7  C   LIG    1       -0.787   2.893   1.346  0.00  0.00    +0.110 A 
ATOM      8  C   LIG    1       -0.255   3.747   0.400  0.00  0.00    +0.010 A 
BRANCH   7   9
ATOM      9  O   LIG    1       -0.682   1.547   1.184  0.00  0.00    -0.300 OA
ATOM     10  C   LIG    1       -0.013   1.086   0.008  0.00  0.00    +0.240 C 
ENDBRANCH   7   9
BRANCH   6  11
ATOM     11  O   LIG    1       -1.947   2.569   3.403  0.00  0.00    -0.310 OA
BRANCH  11  12
ATOM     12  C   LIG    1       -2.590   3.167   4.530  0.00  0.00    +0.600 C 
ATOM     13  F   LIG    1       -3.663   3.952   4.094  0.00  0.00    -0.200 F 
ATOM     14  F   LIG    1       -1.674   3.971   5.218  0.00  0.00    -0.200 F 
ENDBRANCH  11  12
ENDBRANCH   6  11
ENDBRANCH   2   3
BRANCH   1  15
ATOM     15  O   LIG    1        0.627   8.206  -1.254  0.00  0.00    -0.240 OA
BRANCH  15  16
ATOM     16  C   LIG    1        0.441   9.590  -0.951  0.00  0.00    +0.280 C 
BRANCH  16  21
ATOM     17  C   LIG    1        2.227  10.602  -4.130  0.00  0.00    -0.140 A 
ATOM     18  C   LIG    1        2.166  11.995  -4.047  0.00  0.00    +0.120 A 
ATOM     19  C   LIG    1        1.550  12.592  -2.969  0.00  0.00    -0.010 A 
ATOM     20  C   LIG    1        0.991  11.813  -1.967  0.00  0.00    +0.150 A 
ATOM     21  C   LIG    1        1.049  10.430  -2.044  0.00  0.00    -0.130 A 
ATOM     22  F   LIG    1        0.389  12.404  -0.912  0.00  0.00    -0.130 F 
ATOM     23  C   LIG    1        1.667   9.822  -3.115  0.00  0.00    +0.140 A 
BRANCH  17  24
ATOM     24  C   LIG    1        2.886   9.957  -5.283  0.00  0.00    +0.510 C 
ATOM     25  O   LIG    1        2.937   8.745  -5.353  0.00  0.00    -0.500 OA
BRANCH  24  27
ATOM     26  C   LIG    1        4.060  10.009  -7.361  0.00  0.00    +0.290 C 
ATOM     27  O   LIG    1        3.429  10.711  -6.257  0.00  0.00    -0.350 OA
ENDBRANCH  24  27
ENDBRANCH  17  24
ENDBRANCH  16  21
ENDBRANCH  15  16
ENDBRANCH   1  15
TORSDOF 9
