REMARK  Name = ZINCc70000001mBr.0
REMARK                            x       y       z     vdW  Elec       q    Type
REMARK                         _______ _______ _______ _____ _____    ______ ____
ROOT
ATOM      1  C   LIG    1       -2.736   2.583   2.438  0.00  0.00    -0.330 A 
ATOM      2  C   LIG    1       -2.142   2.950   3.630  0.00  0.00    +0.310 A 
ATOM      3  N   LIG    1       -3.119   3.320   4.472  0.00  0.00    -0.450 N 
ATOM      4  H   LIG    1       -2.994   3.626   5.384  0.00  0.00    +0.450 HD
ATOM      5  N   LIG    1       -4.348   3.189   3.817  0.00  0.00    -0.360 NA
ATOM      6  C   LIG    1       -4.135   2.756   2.599  0.00  0.00    +0.390 A 
ENDROOT
BRANCH   1   9
ATOM      7  N   LIG    1       -0.704   1.998   1.216  0.00  0.00    -0.730 N 
ATOM      8  H   LIG    1       -0.192   2.232   2.006  0.00  0.00    +0.400 HD
ATOM      9  C   LIG    1       -2.048   2.109   1.227  0.00  0.00    +0.600 C 
ATOM     10  O   LIG    1       -2.690   1.816   0.237  0.00  0.00    -0.550 OA
BRANCH   7  12
ATOM     11  C   LIG    1        0.002  -0.004   0.002  0.00  0.00    +0.030 C 
ATOM     12  C   LIG    1       -0.019   1.526   0.010  0.00  0.00    +0.230 C 
ATOM     13  C   LIG    1        1.417   2.055  -0.000  0.00  0.00    +0.030 C 
ENDBRANCH   7  12
ENDBRANCH   1   9
BRANCH   6  14
ATOM     14  N   LIG    1       -5.111   2.506   1.634  0.00  0.00    -0.830 N 
ATOM     15  H   LIG    1       -6.047   2.655   1.840  0.00  0.00    +0.400 HD
ATOM     16  H   LIG    1       -4.853   2.183   0.756  0.00  0.00    +0.420 HD
ENDBRANCH   6  14
TORSDOF 3
