REMARK  Name = ZINCvU00000007L4.0
REMARK                            x       y       z     vdW  Elec       q    Type
REMARK                         _______ _______ _______ _____ _____    ______ ____
ROOT
ATOM      1  C   LIG    1       -7.428   1.361   0.045  0.00  0.00    +0.280 C 
ATOM      2  C   LIG    1       -8.468   2.500   0.029  0.00  0.00    +0.050 C 
ATOM      3  C   LIG    1       -7.667   3.695  -0.552  0.00  0.00    +0.040 C 
ATOM      4  C   LIG    1       -6.261   3.450   0.057  0.00  0.00    +0.240 C 
ATOM      5  N   LIG    1       -6.096   1.985   0.042  0.00  0.00    -0.620 N 
ATOM      6  C   LIG    1       -4.920   1.327   0.033  0.00  0.00    +0.530 C 
ATOM      7  O   LIG    1       -4.904   0.114   0.026  0.00  0.00    -0.520 OA
ENDROOT
BRANCH   1  14
ATOM      8  C   LIG    1       -8.492  -0.538   1.290  0.00  0.00    +0.150 A 
ATOM      9  C   LIG    1       -8.647  -1.308   2.433  0.00  0.00    -0.060 A 
ATOM     10  C   LIG    1       -7.912  -1.016   3.566  0.00  0.00    +0.090 A 
ATOM     11  C   LIG    1       -7.021   0.042   3.560  0.00  0.00    -0.130 A 
ATOM     12  C   LIG    1       -6.860   0.807   2.418  0.00  0.00    +0.090 A 
ATOM     13 BR   LIG    1       -6.015   0.439   5.111  0.00  0.00    -0.050 Br
ATOM     14  C   LIG    1       -7.598   0.523   1.286  0.00  0.00    -0.110 A 
BRANCH   8  16
ATOM     15  C   LIG    1      -10.116  -1.930   0.251  0.00  0.00    +0.240 C 
ATOM     16  O   LIG    1       -9.215  -0.823   0.175  0.00  0.00    -0.310 OA
ENDBRANCH   8  16
ENDBRANCH   1  14
BRANCH   6  17
ATOM     17  C   LIG    1       -3.626   2.098   0.031  0.00  0.00    +0.050 C 
BRANCH  17  18
ATOM     18  C   LIG    1       -2.449   1.120   0.020  0.00  0.00    +0.290 C 
BRANCH  18  19
ATOM     19  N   LIG    1       -1.191   1.869   0.018  0.00  0.00    -0.730 N 
ATOM     20  H   LIG    1       -1.204   2.839   0.023  0.00  0.00    +0.400 HD
ATOM     21  C   LIG    1       -0.014   1.211   0.009  0.00  0.00    +0.560 C 
ATOM     22  O   LIG    1        0.002  -0.004   0.002  0.00  0.00    -0.530 OA
BRANCH  21  23
ATOM     23  C   LIG    1        1.255   1.968   0.001  0.00  0.00    -0.140 A 
ATOM     24  C   LIG    1        2.461   1.286  -0.009  0.00  0.00    +0.110 A 
ATOM     25  C   LIG    1        3.662   2.010  -0.022  0.00  0.00    -0.060 A 
ATOM     26  C   LIG    1        4.906   1.355  -0.037  0.00  0.00    +0.030 A 
ATOM     27  C   LIG    1        6.054   2.087  -0.043  0.00  0.00    +0.010 A 
ATOM     28  C   LIG    1        6.015   3.479  -0.036  0.00  0.00    +0.030 A 
ATOM     29  C   LIG    1        4.829   4.149  -0.021  0.00  0.00    +0.020 A 
ATOM     30  C   LIG    1        3.623   3.428  -0.014  0.00  0.00    -0.030 A 
ATOM     31  C   LIG    1        2.382   4.091   0.001  0.00  0.00    +0.020 A 
ATOM     32  C   LIG    1        1.230   3.374   0.008  0.00  0.00    +0.040 A 
ENDBRANCH  21  23
ENDBRANCH  18  19
ENDBRANCH  17  18
ENDBRANCH   6  17
TORSDOF 6
