REMARK  Name = ZINCpk00000RDmy4.0
REMARK                            x       y       z     vdW  Elec       q    Type
REMARK                         _______ _______ _______ _____ _____    ______ ____
ROOT
ATOM      1  C   LIG    1        7.080  -0.536  -1.794  0.00  0.00    +0.620 C 
ATOM      2  N   LIG    1        7.900  -0.329  -2.844  0.00  0.00    -0.600 N 
ATOM      3  C   LIG    1        7.533  -0.483  -4.264  0.00  0.00    +0.270 C 
ATOM      4  C   LIG    1        8.531   0.426  -5.029  0.00  0.00    +0.010 C 
ATOM      5  C   LIG    1        9.831   0.217  -4.208  0.00  0.00    +0.060 C 
ATOM      6  C   LIG    1        9.309   0.080  -2.763  0.00  0.00    +0.220 C 
ATOM      7  O   LIG    1        7.515  -0.468  -0.661  0.00  0.00    -0.540 OA
ENDROOT
BRANCH   6   8
ATOM      8  C   LIG    1       10.118  -0.983  -2.016  0.00  0.00    +0.010 C 
ATOM      9  C   LIG    1       10.063  -2.302  -2.790  0.00  0.00    +0.030 C 
ATOM     10  C   LIG    1       10.872  -3.365  -2.043  0.00  0.00    +0.000 C 
ATOM     11  C   LIG    1       12.326  -2.906  -1.919  0.00  0.00    +0.020 C 
ATOM     12  C   LIG    1       12.380  -1.587  -1.145  0.00  0.00    -0.020 C 
ATOM     13  C   LIG    1       11.572  -0.524  -1.892  0.00  0.00    +0.160 C 
BRANCH  13  14
ATOM     14  O   LIG    1       12.124  -0.334  -3.196  0.00  0.00    -0.560 OA
ATOM     15  H   LIG    1       13.046  -0.042  -3.194  0.00  0.00    +0.370 HD
ENDBRANCH  13  14
ENDBRANCH   6   8
BRANCH   1  18
ATOM     16  N   LIG    1        3.555  -1.315  -1.676  0.00  0.00    -0.360 N 
ATOM     17  C   LIG    1        4.723  -1.074  -1.048  0.00  0.00    +0.290 A 
ATOM     18  C   LIG    1        5.655  -0.844  -2.021  0.00  0.00    -0.100 A 
ATOM     19  N   LIG    1        5.054  -0.947  -3.218  0.00  0.00    -0.210 NA
ATOM     20  N   LIG    1        3.809  -1.231  -3.052  0.00  0.00    -0.060 NA
BRANCH  16  21
ATOM     21  C   LIG    1        2.269  -1.615  -1.042  0.00  0.00    +0.350 C 
BRANCH  21  23
ATOM     22  C   LIG    1        1.236  -0.414  -3.053  0.00  0.00    +0.090 C 
ATOM     23  C   LIG    1        1.213  -0.624  -1.538  0.00  0.00    -0.150 C 
ATOM     24  C   LIG    1       -0.186  -0.833  -0.944  0.00  0.00    +0.230 C 
ATOM     25  O   LIG    1       -0.313   0.591  -0.843  0.00  0.00    -0.360 OA
ATOM     26  C   LIG    1        1.113   0.667  -0.716  0.00  0.00    +0.210 C 
ENDBRANCH  21  23
ENDBRANCH  16  21
ENDBRANCH   1  18
TORSDOF 5
