REMARK  Name = ZINCqH0000035PI2.0
REMARK                            x       y       z     vdW  Elec       q    Type
REMARK                         _______ _______ _______ _____ _____    ______ ____
ROOT
ATOM      1  C   LIG    1       -4.534   6.844   0.085  0.00  0.00    +0.290 C 
ENDROOT
BRANCH   1   5
ATOM      2  N   LIG    1       -2.460   3.823   0.046  0.00  0.00    -0.320 N 
ATOM      3  C   LIG    1       -3.688   3.258   0.054  0.00  0.00    +0.230 A 
ATOM      4  C   LIG    1       -4.601   4.257   0.070  0.00  0.00    -0.110 A 
ATOM      5  C   LIG    1       -3.910   5.473   0.070  0.00  0.00    +0.080 A 
ATOM      6  N   LIG    1       -2.627   5.214   0.062  0.00  0.00    -0.270 NA
BRANCH   2  10
ATOM      7  C   LIG    1        1.179   1.786   0.000  0.00  0.00    +0.120 A 
ATOM      8  C   LIG    1       -0.013   1.076   0.008  0.00  0.00    +0.020 A 
ATOM      9  C   LIG    1       -1.218   1.750   0.017  0.00  0.00    +0.040 A 
ATOM     10  C   LIG    1       -1.236   3.138   0.031  0.00  0.00    +0.120 A 
ATOM     11  C   LIG    1       -0.043   3.848   0.024  0.00  0.00    +0.060 A 
ATOM     12  C   LIG    1        1.161   3.173   0.009  0.00  0.00    -0.040 A 
BRANCH   7  14
ATOM     13  C   LIG    1        3.554   1.916  -0.022  0.00  0.00    +0.240 C 
ATOM     14  O   LIG    1        2.366   1.122  -0.015  0.00  0.00    -0.310 OA
ENDBRANCH   7  14
ENDBRANCH   2  10
ENDBRANCH   1   5
BRANCH   1  15
ATOM     15  N   LIG    1       -4.614   7.332   1.468  0.00  0.00    -0.680 NA
ATOM     16  H   LIG    1       -5.120   6.682   2.051  0.00  0.00    +0.350 HD
BRANCH  15  17
ATOM     17  C   LIG    1       -5.219   8.669   1.521  0.00  0.00    +0.240 C 
BRANCH  17  18
ATOM     18  C   LIG    1       -5.284   9.135   2.953  0.00  0.00    -0.080 A 
ATOM     19  C   LIG    1       -4.241   9.832   3.481  0.00  0.00    +0.060 A 
ATOM     20  C   LIG    1       -4.301  10.266   4.815  0.00  0.00    -0.100 A 
ATOM     21  C   LIG    1       -3.244  10.990   5.398  0.00  0.00    +0.090 A 
ATOM     22  C   LIG    1       -3.372  11.380   6.701  0.00  0.00    -0.040 A 
ATOM     23  C   LIG    1       -4.526  11.060   7.412  0.00  0.00    +0.290 A 
ATOM     24  N   LIG    1       -5.508  10.386   6.866  0.00  0.00    -0.480 NA
ATOM     25  C   LIG    1       -5.447   9.974   5.596  0.00  0.00    +0.130 A 
ATOM     26  C   LIG    1       -6.504   9.252   5.015  0.00  0.00    +0.050 A 
ATOM     27  C   LIG    1       -6.415   8.851   3.717  0.00  0.00    +0.040 A 
ENDBRANCH  17  18
ENDBRANCH  15  17
ENDBRANCH   1  15
TORSDOF 6
