REMARK  Name = ZINCqH0000000geE.0
REMARK                            x       y       z     vdW  Elec       q    Type
REMARK                         _______ _______ _______ _____ _____    ______ ____
ROOT
ATOM      1  C   LIG    1       -1.277   1.549   0.554  0.00  0.00    +0.510 A 
ATOM      2  C   LIG    1       -2.472   0.885   0.156  0.00  0.00    -0.250 A 
ATOM      3  C   LIG    1       -3.650   1.645   0.130  0.00  0.00    +0.130 A 
ATOM      4  S   LIG    1       -4.992   0.628  -0.378  0.00  0.00    +0.250 S 
ATOM      5  C   LIG    1       -3.938  -0.765  -0.546  0.00  0.00    -0.260 A 
ATOM      6  N   LIG    1       -3.600   2.939   0.463  0.00  0.00    -0.520 NA
ATOM      7  C   LIG    1       -2.469   3.505   0.818  0.00  0.00    +0.410 A 
ATOM      8  C   LIG    1       -2.677  -0.445  -0.223  0.00  0.00    +0.040 A 
ATOM      9  C   LIG    1       -1.556  -1.452  -0.264  0.00  0.00    +0.140 C 
ATOM     10  N   LIG    1       -1.331   2.835   0.865  0.00  0.00    -0.580 NA
ENDROOT
BRANCH   1  11
ATOM     11  N   LIG    1       -0.080   0.864   0.609  0.00  0.00    -0.700 N 
ATOM     12  H   LIG    1       -0.061  -0.092   0.451  0.00  0.00    +0.420 HD
BRANCH  11  13
ATOM     13  C   LIG    1        1.162   1.584   0.901  0.00  0.00    +0.310 C 
BRANCH  13  15
ATOM     14  C   LIG    1        3.352   0.834   0.125  0.00  0.00    +0.060 C 
ATOM     15  C   LIG    1        2.317   0.615   0.897  0.00  0.00    -0.070 C 
ENDBRANCH  13  15
ENDBRANCH  11  13
ENDBRANCH   1  11
BRANCH   5  16
ATOM     16  C   LIG    1       -4.377  -2.098  -0.970  0.00  0.00    +0.550 C 
ATOM     17  O   LIG    1       -3.574  -3.007  -1.048  0.00  0.00    -0.490 OA
BRANCH  16  18
ATOM     18  O   LIG    1       -5.673  -2.315  -1.275  0.00  0.00    -0.350 OA
BRANCH  18  19
ATOM     19  C   LIG    1       -6.037  -3.659  -1.687  0.00  0.00    +0.200 C 
ATOM     20  C   LIG    1       -7.536  -3.712  -1.988  0.00  0.00    +0.070 C 
ENDBRANCH  18  19
ENDBRANCH  16  18
ENDBRANCH   5  16
BRANCH   7  21
ATOM     21  C   LIG    1       -2.468   4.967   1.183  0.00  0.00    +0.300 C 
BRANCH  21  22
ATOM     22  N   LIG    1       -2.219   5.772  -0.020  0.00  0.00    -0.530 NA
ATOM     23  C   LIG    1       -0.866   5.536  -0.540  0.00  0.00    +0.170 C 
ATOM     24  C   LIG    1       -0.692   6.275  -1.869  0.00  0.00    +0.020 C 
ATOM     25  C   LIG    1       -0.920   7.773  -1.647  0.00  0.00    +0.000 C 
ATOM     26  C   LIG    1       -2.318   7.987  -1.060  0.00  0.00    +0.020 C 
ATOM     27  C   LIG    1       -2.444   7.199   0.245  0.00  0.00    +0.180 C 
ENDBRANCH  21  22
ENDBRANCH   7  21
TORSDOF 8
