REMARK  Name = ZINCrH000004jWGj.0
REMARK                            x       y       z     vdW  Elec       q    Type
REMARK                         _______ _______ _______ _____ _____    ______ ____
ROOT
ATOM      1  C   LIG    1       -1.773   1.578   2.340  0.00  0.00    +0.190 C 
ATOM      2  N   LIG    1       -1.579   2.657   1.362  0.00  0.00    -0.520 NA
ENDROOT
BRANCH   2   3
ATOM      3  C   LIG    1       -1.333   2.112   0.020  0.00  0.00    +0.240 C 
BRANCH   3   4
ATOM      4  C   LIG    1       -0.017   1.378   0.010  0.00  0.00    -0.050 A 
ATOM      5  C   LIG    1        0.002  -0.004   0.002  0.00  0.00    +0.040 A 
ATOM      6  C   LIG    1        1.212  -0.683  -0.013  0.00  0.00    +0.070 A 
ATOM      7  C   LIG    1        2.404   0.030  -0.023  0.00  0.00    +0.060 A 
ATOM      8  O   LIG    1        3.602  -0.616  -0.042  0.00  0.00    -0.300 OA
ATOM      9  C   LIG    1        3.593  -1.998   0.330  0.00  0.00    +0.230 C 
ATOM     10  C   LIG    1        2.433  -2.686  -0.402  0.00  0.00    +0.230 C 
ATOM     11  C   LIG    1        2.379   1.417  -0.014  0.00  0.00    +0.060 A 
ATOM     12  O   LIG    1        1.214  -2.044  -0.013  0.00  0.00    -0.300 OA
ATOM     13  C   LIG    1        1.171   2.088   0.002  0.00  0.00    -0.060 A 
ATOM     14 BR   LIG    1        1.140   3.978   0.014  0.00  0.00    -0.030 Br
ENDBRANCH   3   4
ENDBRANCH   2   3
BRANCH   2  15
ATOM     15  C   LIG    1       -2.726   3.574   1.355  0.00  0.00    +0.230 C 
BRANCH  15  16
ATOM     16  C   LIG    1       -2.799   4.296   2.676  0.00  0.00    -0.050 A 
ATOM     17  C   LIG    1       -3.537   3.758   3.715  0.00  0.00    +0.010 A 
ATOM     18  C   LIG    1       -3.604   4.412   4.928  0.00  0.00    +0.030 A 
ATOM     19  C   LIG    1       -2.935   5.625   5.102  0.00  0.00    -0.140 A 
ATOM     20  C   LIG    1       -2.197   6.165   4.047  0.00  0.00    +0.080 A 
ATOM     21  C   LIG    1       -2.133   5.498   2.841  0.00  0.00    +0.030 A 
BRANCH  19  22
ATOM     22  C   LIG    1       -3.008   6.334   6.397  0.00  0.00    +0.560 C 
ATOM     23  N   LIG    1       -3.721   5.810   7.413  0.00  0.00    -0.700 N 
ATOM     24  H   LIG    1       -4.186   4.967   7.295  0.00  0.00    +0.400 HD
ATOM     25  O   LIG    1       -2.424   7.390   6.545  0.00  0.00    -0.530 OA
BRANCH  23  26
ATOM     26  C   LIG    1       -3.793   6.513   8.697  0.00  0.00    +0.220 C 
ATOM     27  C   LIG    1       -3.641   5.678   9.969  0.00  0.00    +0.010 C 
ATOM     28  C   LIG    1       -5.010   6.241   9.583  0.00  0.00    +0.020 C 
ENDBRANCH  23  26
ENDBRANCH  19  22
ENDBRANCH  15  16
ENDBRANCH   2  15
TORSDOF 6
