REMARK  Name = ZINCrH000004vEa3.0
REMARK                            x       y       z     vdW  Elec       q    Type
REMARK                         _______ _______ _______ _____ _____    ______ ____
ROOT
ATOM      1  O   LIG    1        0.127   3.605  -2.808  0.00  0.00    -0.530 OA
ATOM      2  C   LIG    1       -0.536   3.958  -1.852  0.00  0.00    +0.610 C 
ATOM      3  N   LIG    1       -0.890   3.062  -0.910  0.00  0.00    -0.600 N 
ATOM      4  C   LIG    1       -0.606   1.629  -1.084  0.00  0.00    +0.310 C 
ATOM      5  C   LIG    1        0.383   1.180  -0.002  0.00  0.00    +0.110 C 
ATOM      6  C   LIG    1       -0.061   1.731   1.332  0.00  0.00    +0.080 A 
ATOM      7  C   LIG    1       -0.930   2.757   1.476  0.00  0.00    -0.180 A 
ATOM      8  C   LIG    1       -1.094   2.984   2.896  0.00  0.00    -0.090 A 
ATOM      9  C   LIG    1       -1.853   3.900   3.629  0.00  0.00    +0.060 A 
ATOM     10  C   LIG    1       -1.765   3.825   4.998  0.00  0.00    -0.030 A 
ATOM     11  C   LIG    1       -0.965   2.890   5.633  0.00  0.00    +0.020 A 
ATOM     12  C   LIG    1       -0.203   1.971   4.932  0.00  0.00    +0.000 A 
ATOM     13  C   LIG    1       -0.273   2.024   3.542  0.00  0.00    +0.100 A 
ATOM     14  N   LIG    1        0.333   1.285   2.566  0.00  0.00    -0.580 N 
ATOM     15  H   LIG    1        0.951   0.554   2.723  0.00  0.00    +0.420 HD
ATOM     16  C   LIG    1       -1.574   3.489   0.324  0.00  0.00    +0.380 C 
ENDROOT
BRANCH   2  17
ATOM     17  C   LIG    1       -0.952   5.367  -1.722  0.00  0.00    -0.090 A 
ATOM     18  C   LIG    1       -0.553   6.395  -2.530  0.00  0.00    +0.310 A 
ATOM     19  N   LIG    1       -1.163   7.510  -2.072  0.00  0.00    -0.310 N 
ATOM     20  N   LIG    1       -1.931   7.125  -0.964  0.00  0.00    -0.030 NA
ATOM     21  N   LIG    1       -1.783   5.859  -0.787  0.00  0.00    -0.200 NA
BRANCH  19  22
ATOM     22  C   LIG    1       -1.047   8.804  -2.600  0.00  0.00    +0.160 A 
ATOM     23  C   LIG    1       -0.240   9.033  -3.706  0.00  0.00    +0.020 A 
ATOM     24  C   LIG    1       -0.131  10.308  -4.228  0.00  0.00    +0.070 A 
ATOM     25  C   LIG    1       -0.816  11.357  -3.643  0.00  0.00    +0.030 A 
ATOM     26  C   LIG    1       -1.617  11.133  -2.538  0.00  0.00    +0.080 A 
ATOM     27  C   LIG    1       -1.734   9.859  -2.015  0.00  0.00    -0.090 A 
ATOM     28 BR   LIG    1       -2.829   9.554  -0.504  0.00  0.00    +0.010 Br
ENDBRANCH  19  22
ENDBRANCH   2  17
TORSDOF 2
