REMARK  Name = ZINCrD000000DhO8.0
REMARK                            x       y       z     vdW  Elec       q    Type
REMARK                         _______ _______ _______ _____ _____    ______ ____
ROOT
ATOM      1  N   LIG    1       -1.142  -0.581  -2.179  0.00  0.00    -0.530 NA
ATOM      2  C   LIG    1       -0.272  -0.189  -3.297  0.00  0.00    +0.140 C 
ATOM      3  C   LIG    1        0.746   0.845  -2.808  0.00  0.00    +0.220 C 
ATOM      4  O   LIG    1        0.050   1.966  -2.256  0.00  0.00    -0.370 OA
ATOM      5  C   LIG    1       -0.824   1.629  -1.182  0.00  0.00    +0.170 C 
ATOM      6  C   LIG    1       -0.013   1.086   0.008  0.00  0.00    +0.030 C 
ATOM      7  C   LIG    1       -0.804   1.618   1.223  0.00  0.00    +0.080 C 
ATOM      8  C   LIG    1       -1.514   2.860   0.717  0.00  0.00    -0.080 A 
ATOM      9  C   LIG    1       -2.100   3.902   1.414  0.00  0.00    +0.010 A 
ATOM     10  C   LIG    1       -2.697   4.945   0.733  0.00  0.00    +0.020 A 
ATOM     11  C   LIG    1       -2.709   4.949  -0.649  0.00  0.00    +0.000 A 
ATOM     12  C   LIG    1       -2.123   3.910  -1.347  0.00  0.00    +0.040 A 
ATOM     13  C   LIG    1       -1.524   2.864  -0.666  0.00  0.00    -0.090 A 
ATOM     14  C   LIG    1       -1.847   0.589  -1.633  0.00  0.00    +0.190 C 
ENDROOT
BRANCH   1  15
ATOM     15  C   LIG    1       -2.092  -1.623  -2.591  0.00  0.00    +0.350 C 
BRANCH  15  19
ATOM     16  C   LIG    1       -0.378  -4.770  -2.799  0.00  0.00    +0.180 A 
ATOM     17  N   LIG    1       -0.300  -4.322  -4.016  0.00  0.00    -0.380 NA
ATOM     18  O   LIG    1       -0.847  -3.243  -4.102  0.00  0.00    +0.080 OA
ATOM     19  C   LIG    1       -1.342  -2.890  -2.911  0.00  0.00    +0.190 A 
ATOM     20  N   LIG    1       -1.044  -3.853  -2.074  0.00  0.00    -0.460 NA
BRANCH  16  21
ATOM     21  C   LIG    1        0.180  -6.075  -2.292  0.00  0.00    +0.220 C 
BRANCH  21  25
ATOM     22  C   LIG    1        4.179  -5.475  -0.916  0.00  0.00    +0.000 A 
ATOM     23  C   LIG    1        3.118  -5.324  -0.043  0.00  0.00    +0.000 A 
ATOM     24  C   LIG    1        1.824  -5.518  -0.489  0.00  0.00    +0.030 A 
ATOM     25  C   LIG    1        1.591  -5.863  -1.807  0.00  0.00    -0.090 A 
ATOM     26  C   LIG    1        2.653  -6.020  -2.678  0.00  0.00    +0.010 A 
ATOM     27  C   LIG    1        3.946  -5.822  -2.234  0.00  0.00    +0.000 A 
ENDBRANCH  21  25
ENDBRANCH  16  21
ENDBRANCH  15  19
ENDBRANCH   1  15
TORSDOF 4
