REMARK  Name = ZINCrD000000fTLD.0
REMARK                            x       y       z     vdW  Elec       q    Type
REMARK                         _______ _______ _______ _____ _____    ______ ____
ROOT
ATOM      1  C   LIG    1        2.450  -0.389  -0.119  0.00  0.00    +0.530 C 
ATOM      2  N   LIG    1        1.106  -0.404  -0.224  0.00  0.00    -0.720 N 
ATOM      3  H   LIG    1        0.614   0.430  -0.264  0.00  0.00    +0.400 HD
ATOM      4  O   LIG    1        3.066  -1.433  -0.069  0.00  0.00    -0.500 OA
ENDROOT
BRANCH   1  10
ATOM      5  C   LIG    1        3.406   4.062  -1.715  0.00  0.00    +0.530 C 
ATOM      6  N   LIG    1        3.886   2.843  -1.400  0.00  0.00    -0.610 N 
ATOM      7  C   LIG    1        5.301   2.654  -1.044  0.00  0.00    +0.250 C 
ATOM      8  C   LIG    1        5.367   1.869   0.271  0.00  0.00    +0.220 C 
ATOM      9  O   LIG    1        4.579   0.682   0.151  0.00  0.00    -0.350 OA
ATOM     10  C   LIG    1        3.188   0.924  -0.070  0.00  0.00    +0.150 C 
ATOM     11  C   LIG    1        3.009   1.661  -1.403  0.00  0.00    +0.280 C 
ATOM     12  O   LIG    1        2.261   4.184  -2.095  0.00  0.00    -0.530 OA
BRANCH   5  14
ATOM     13  C   LIG    1        3.507   6.524  -1.996  0.00  0.00    +0.050 C 
ATOM     14  C   LIG    1        4.294   5.275  -1.596  0.00  0.00    -0.090 C 
ATOM     15  C   LIG    1        5.502   5.115  -2.520  0.00  0.00    +0.040 C 
ATOM     16  C   LIG    1        4.773   5.415  -0.149  0.00  0.00    +0.050 C 
ENDBRANCH   5  14
ENDBRANCH   1  10
BRANCH   2  17
ATOM     17  C   LIG    1        0.390  -1.681  -0.277  0.00  0.00    +0.300 C 
BRANCH  17  18
ATOM     18  C   LIG    1       -0.928  -1.488  -0.983  0.00  0.00    -0.100 A 
ATOM     19  C   LIG    1       -1.679  -0.352  -0.745  0.00  0.00    +0.050 A 
ATOM     20  C   LIG    1       -2.885  -0.172  -1.395  0.00  0.00    -0.010 A 
ATOM     21  C   LIG    1       -3.346  -1.135  -2.277  0.00  0.00    +0.100 A 
ATOM     22  C   LIG    1       -2.595  -2.275  -2.510  0.00  0.00    -0.010 A 
ATOM     23  F   LIG    1       -4.527  -0.962  -2.910  0.00  0.00    -0.140 F 
ATOM     24  C   LIG    1       -1.387  -2.450  -1.863  0.00  0.00    +0.070 A 
ENDBRANCH  17  18
BRANCH  17  25
ATOM     25  C   LIG    1        0.138  -2.184   1.146  0.00  0.00    -0.070 C 
ATOM     26  C   LIG    1        1.476  -2.380   1.862  0.00  0.00    +0.030 C 
ATOM     27  C   LIG    1       -0.611  -3.517   1.090  0.00  0.00    +0.040 C 
ATOM     28  C   LIG    1       -0.704  -1.158   1.908  0.00  0.00    +0.020 C 
ENDBRANCH  17  25
ENDBRANCH   2  17
TORSDOF 5
