REMARK  Name = ZINCrH000004sCz7.0
REMARK                            x       y       z     vdW  Elec       q    Type
REMARK                         _______ _______ _______ _____ _____    ______ ____
ROOT
ATOM      1  N   LIG    1       -4.024   0.200   2.177  0.00  0.00    -0.740 N 
ATOM      2  H   LIG    1       -4.551   0.430   1.397  0.00  0.00    +0.410 HD
ATOM      3  C   LIG    1       -2.706   0.481   2.208  0.00  0.00    +0.710 C 
ATOM      4  N   LIG    1       -2.141   1.172   1.198  0.00  0.00    -0.630 N 
ATOM      5  C   LIG    1       -0.732   1.584   1.269  0.00  0.00    +0.300 C 
ATOM      6  C   LIG    1       -0.010   1.089   0.012  0.00  0.00    +0.020 C 
ATOM      7  C   LIG    1       -0.750   1.592  -1.229  0.00  0.00    +0.000 C 
ATOM      8  C   LIG    1       -2.174   1.031  -1.238  0.00  0.00    +0.020 C 
ATOM      9  C   LIG    1       -2.922   1.525   0.004  0.00  0.00    +0.260 C 
ATOM     10  O   LIG    1       -2.027   0.112   3.147  0.00  0.00    -0.590 OA
ENDROOT
BRANCH   1  11
ATOM     11  C   LIG    1       -4.660  -0.454   3.324  0.00  0.00    +0.320 C 
ATOM     12  C   LIG    1       -4.484  -1.970   3.209  0.00  0.00    +0.050 C 
BRANCH  11  18
ATOM     13  C   LIG    1       -8.714   0.878   0.935  0.00  0.00    +0.180 C 
ATOM     14  C   LIG    1       -8.040   0.506   2.230  0.00  0.00    +0.320 A 
ATOM     15  N   LIG    1       -8.751   0.483   3.340  0.00  0.00    -0.520 NA
ATOM     16  C   LIG    1       -8.193   0.160   4.496  0.00  0.00    +0.330 A 
ATOM     17  C   LIG    1       -6.844  -0.155   4.529  0.00  0.00    -0.080 A 
ATOM     18  C   LIG    1       -6.130  -0.120   3.341  0.00  0.00    +0.170 A 
ATOM     19  N   LIG    1       -6.754   0.218   2.224  0.00  0.00    -0.520 NA
ENDBRANCH  11  18
ENDBRANCH   1  11
BRANCH   7  20
ATOM     20  C   LIG    1       -0.011   1.129  -2.486  0.00  0.00    +0.080 C 
BRANCH  20  21
ATOM     21  C   LIG    1       -0.669   1.725  -3.704  0.00  0.00    -0.020 A 
ATOM     22  C   LIG    1       -1.690   1.045  -4.340  0.00  0.00    -0.020 A 
ATOM     23  C   LIG    1       -2.299   1.594  -5.456  0.00  0.00    +0.130 A 
ATOM     24  C   LIG    1       -1.876   2.820  -5.941  0.00  0.00    -0.050 A 
ATOM     25  C   LIG    1       -0.850   3.498  -5.306  0.00  0.00    +0.140 A 
ATOM     26  F   LIG    1       -0.436   4.694  -5.779  0.00  0.00    -0.130 F 
ATOM     27  F   LIG    1       -3.301   0.932  -6.074  0.00  0.00    -0.130 F 
ATOM     28  C   LIG    1       -0.246   2.949  -4.187  0.00  0.00    -0.020 A 
ENDBRANCH  20  21
ENDBRANCH   7  20
TORSDOF 4
