REMARK  Name = ZINCpe00000MJJ3j.1
REMARK                            x       y       z     vdW  Elec       q    Type
REMARK                         _______ _______ _______ _____ _____    ______ ____
ROOT
ATOM      1  C   LIG    1        0.791  -0.601  -0.672  0.00  0.00    +0.170 C 
ATOM      2  C   LIG    1        0.586   0.937  -0.677  0.00  0.00    +0.060 C 
ATOM      3  C   LIG    1        2.021   1.477  -0.499  0.00  0.00    +0.290 C 
ATOM      4  N   LIG    1        2.943   0.420  -0.937  0.00  0.00    -0.600 N 
ATOM      5  C   LIG    1        4.289   0.494  -0.920  0.00  0.00    +0.600 C 
ATOM      6  O   LIG    1        4.954  -0.446  -1.308  0.00  0.00    -0.540 OA
ATOM      7  C   LIG    1        2.152  -0.735  -1.400  0.00  0.00    +0.260 C 
ENDROOT
BRANCH   5   8
ATOM      8  C   LIG    1        4.955   1.718  -0.428  0.00  0.00    -0.050 A 
ATOM      9  N   LIG    1        4.236   2.701   0.106  0.00  0.00    -0.370 NA
ATOM     10  C   LIG    1        4.833   3.791   0.544  0.00  0.00    +0.160 A 
ATOM     11  C   LIG    1        6.211   3.920   0.452  0.00  0.00    +0.320 A 
ATOM     12  N   LIG    1        6.938   2.952  -0.075  0.00  0.00    -0.500 NA
ATOM     13  C   LIG    1        6.350   1.846  -0.516  0.00  0.00    +0.410 A 
BRANCH  13  14
ATOM     14  N   LIG    1        7.108   0.828  -1.065  0.00  0.00    -0.820 N 
ATOM     15  H   LIG    1        8.043   0.733  -0.822  0.00  0.00    +0.410 HD
ATOM     16  H   LIG    1        6.706   0.207  -1.693  0.00  0.00    +0.430 HD
ENDBRANCH  13  14
ENDBRANCH   5   8
BRANCH   1  17
ATOM     17  O   LIG    1       -0.247  -1.258  -1.402  0.00  0.00    -0.290 OA
BRANCH  17  20
ATOM     18  C   LIG    1       -1.634  -4.621  -1.477  0.00  0.00    +0.170 A 
ATOM     19  C   LIG    1       -1.427  -3.298  -1.810  0.00  0.00    -0.060 A 
ATOM     20  C   LIG    1       -0.482  -2.561  -1.101  0.00  0.00    +0.170 A 
ATOM     21  C   LIG    1        0.211  -3.192  -0.072  0.00  0.00    -0.120 A 
ATOM     22  C   LIG    1       -0.057  -4.518   0.203  0.00  0.00    +0.300 A 
ATOM     23  N   LIG    1       -0.957  -5.184  -0.495  0.00  0.00    -0.490 NA
BRANCH  18  24
ATOM     24  C   LIG    1       -2.650  -5.431  -2.241  0.00  0.00    +0.250 C 
BRANCH  24  26
ATOM     25  C   LIG    1       -2.886  -7.151  -3.928  0.00  0.00    +0.200 C 
ATOM     26  N   LIG    1       -1.977  -6.174  -3.314  0.00  0.00    -0.540 NA
ATOM     27  C   LIG    1       -1.429  -5.259  -4.325  0.00  0.00    +0.190 C 
ENDBRANCH  24  26
ENDBRANCH  18  24
ENDBRANCH  17  20
ENDBRANCH   1  17
TORSDOF 6
