REMARK  Name = ZINCnE000001Ryng.0
REMARK                            x       y       z     vdW  Elec       q    Type
REMARK                         _______ _______ _______ _____ _____    ______ ____
ROOT
ATOM      1  N   LIG    1       -3.131   2.526   1.421  0.00  0.00    -0.670 NA
ATOM      2  C   LIG    1       -4.218   2.136   2.031  0.00  0.00    +0.440 A 
ATOM      3  N   LIG    1       -4.694   0.853   2.109  0.00  0.00    -0.520 NA
ATOM      4  N   LIG    1       -5.879   0.911   2.857  0.00  0.00    -0.270 NA
ATOM      5  C   LIG    1       -6.085   2.151   3.188  0.00  0.00    +0.110 A 
ATOM      6  O   LIG    1       -5.089   2.922   2.697  0.00  0.00    -0.290 OA
ENDROOT
BRANCH   5   7
ATOM      7  C   LIG    1       -7.234   2.644   3.978  0.00  0.00    +0.050 A 
ATOM      8  C   LIG    1       -7.348   4.002   4.277  0.00  0.00    +0.020 A 
ATOM      9  C   LIG    1       -8.424   4.457   5.011  0.00  0.00    +0.030 A 
ATOM     10  C   LIG    1       -9.384   3.568   5.459  0.00  0.00    +0.010 A 
ATOM     11  C   LIG    1       -9.275   2.218   5.171  0.00  0.00    -0.030 A 
ATOM     12 CL   LIG    1      -10.485   1.110   5.739  0.00  0.00    -0.080 Cl
ATOM     13  C   LIG    1       -8.205   1.751   4.433  0.00  0.00    +0.050 A 
ENDBRANCH   5   7
BRANCH   1  17
ATOM     14  N   LIG    1       -0.773   1.609  -1.165  0.00  0.00    -0.520 NA
ATOM     15  C   LIG    1       -0.035   1.103   0.011  0.00  0.00    +0.170 C 
ATOM     16  C   LIG    1       -0.814   1.647   1.235  0.00  0.00    +0.020 C 
ATOM     17  C   LIG    1       -2.283   1.546   0.737  0.00  0.00    +0.170 C 
ATOM     18  C   LIG    1       -2.166   1.880  -0.765  0.00  0.00    +0.190 C 
BRANCH  14  19
ATOM     19  C   LIG    1       -0.721   0.647  -2.274  0.00  0.00    +0.200 C 
BRANCH  19  21
ATOM     20  F   LIG    1        1.515  -0.043  -1.774  0.00  0.00    -0.180 F 
ATOM     21  C   LIG    1        0.719   0.524  -2.775  0.00  0.00    +0.460 C 
ATOM     22  F   LIG    1        1.210   1.793  -3.099  0.00  0.00    -0.170 F 
ATOM     23  F   LIG    1        0.749  -0.292  -3.912  0.00  0.00    -0.190 F 
ENDBRANCH  19  21
ENDBRANCH  14  19
ENDBRANCH   1  17
TORSDOF 4
