REMARK  Name = ZINCpe00000MJLO6.1
REMARK                            x       y       z     vdW  Elec       q    Type
REMARK                         _______ _______ _______ _____ _____    ______ ____
ROOT
ATOM      1  C   LIG    1       -1.094   1.641  -0.162  0.00  0.00    +0.020 A 
ATOM      2  N   LIG    1       -1.153   2.950  -0.113  0.00  0.00    -0.180 NA
ATOM      3  N   LIG    1       -0.100   3.685  -0.083  0.00  0.00    -0.460 N 
ATOM      4  H   LIG    1       -0.194   4.650  -0.050  0.00  0.00    +0.440 HD
ATOM      5  C   LIG    1        1.158   3.132  -0.095  0.00  0.00    +0.360 A 
ATOM      6  C   LIG    1        1.293   1.717  -0.142  0.00  0.00    +0.070 A 
ATOM      7  N   LIG    1        2.224   3.901  -0.063  0.00  0.00    -0.560 NA
ATOM      8  C   LIG    1        0.158   0.972  -0.173  0.00  0.00    +0.100 A 
ENDROOT
BRANCH   7   9
ATOM      9  C   LIG    1        2.079   5.357  -0.144  0.00  0.00    +0.110 C 
ATOM     10  C   LIG    1        2.779   6.007   1.052  0.00  0.00    +0.030 C 
ATOM     11  C   LIG    1        2.601   7.525   0.985  0.00  0.00    +0.010 C 
ATOM     12  C   LIG    1        3.245   8.056  -0.300  0.00  0.00    +0.290 C 
ATOM     13  N   LIG    1        2.680   7.331  -1.446  0.00  0.00    -0.570 N 
ATOM     14  C   LIG    1        2.717   5.862  -1.442  0.00  0.00    +0.320 C 
BRANCH  13  15
ATOM     15  C   LIG    1        2.121   8.022  -2.513  0.00  0.00    +0.350 A 
ATOM     16  N   LIG    1        1.489   7.374  -3.469  0.00  0.00    -0.510 NA
ATOM     17  C   LIG    1        0.947   8.031  -4.494  0.00  0.00    +0.190 A 
ATOM     18  C   LIG    1        1.030   9.374  -4.600  0.00  0.00    +0.170 A 
ATOM     19  N   LIG    1        1.674  10.113  -3.652  0.00  0.00    -0.590 N 
ATOM     20  H   LIG    1        1.730  11.078  -3.735  0.00  0.00    +0.420 HD
ATOM     21  C   LIG    1        2.232   9.482  -2.595  0.00  0.00    +0.490 A 
ATOM     22  O   LIG    1        2.815  10.113  -1.729  0.00  0.00    -0.520 OA
ENDBRANCH  13  15
ENDBRANCH   7   9
BRANCH   1  25
ATOM     23  N   LIG    1       -3.536   1.482  -0.191  0.00  0.00    -0.720 N 
ATOM     24  H   LIG    1       -3.574   2.451  -0.158  0.00  0.00    +0.410 HD
ATOM     25  C   LIG    1       -2.344   0.854  -0.201  0.00  0.00    +0.590 C 
ATOM     26  O   LIG    1       -2.297  -0.360  -0.242  0.00  0.00    -0.530 OA
BRANCH  23  28
ATOM     27  C   LIG    1       -5.976   1.650  -0.208  0.00  0.00    +0.030 C 
ATOM     28  C   LIG    1       -4.776   0.702  -0.229  0.00  0.00    +0.250 C 
ENDBRANCH  23  28
ENDBRANCH   1  25
TORSDOF 4
