REMARK  Name = ZINCrH00000No50H.0
REMARK                            x       y       z     vdW  Elec       q    Type
REMARK                         _______ _______ _______ _____ _____    ______ ____
ROOT
ATOM      1  O   LIG    1       -2.051   0.175  -4.280  0.00  0.00    -0.200 OA
ENDROOT
BRANCH   1   2
ATOM      2  N   LIG    1       -2.836   0.528  -5.405  0.00  0.00    -0.310 NA
ATOM      3  C   LIG    1       -3.106  -0.357  -6.309  0.00  0.00    +0.290 C 
BRANCH   3   4
ATOM      4  C   LIG    1       -3.923   0.010  -7.480  0.00  0.00    -0.080 A 
ATOM      5  C   LIG    1       -4.412   1.314  -7.614  0.00  0.00    +0.160 A 
ATOM      6  C   LIG    1       -5.174   1.654  -8.717  0.00  0.00    +0.050 A 
ATOM      7  C   LIG    1       -5.462   0.702  -9.684  0.00  0.00    +0.110 A 
ATOM      8  C   LIG    1       -4.984  -0.594  -9.555  0.00  0.00    +0.060 A 
ATOM      9  F   LIG    1       -5.268  -1.514 -10.502  0.00  0.00    -0.090 F 
ATOM     10  F   LIG    1       -6.210   1.039 -10.758  0.00  0.00    -0.090 F 
ATOM     11  F   LIG    1       -5.643   2.913  -8.850  0.00  0.00    -0.100 F 
ATOM     12  F   LIG    1       -4.137   2.240  -6.670  0.00  0.00    -0.080 F 
ATOM     13  C   LIG    1       -4.216  -0.945  -8.460  0.00  0.00    +0.160 A 
ATOM     14  F   LIG    1       -3.751  -2.207  -8.335  0.00  0.00    -0.090 F 
ENDBRANCH   3   4
ENDBRANCH   1   2
BRANCH   1  15
ATOM     15  C   LIG    1       -1.832   1.249  -3.364  0.00  0.00    +0.260 C 
BRANCH  15  17
ATOM     16  O   LIG    1       -0.535  -0.361  -2.225  0.00  0.00    -0.490 OA
ATOM     17  C   LIG    1       -0.990   0.764  -2.212  0.00  0.00    +0.520 C 
ATOM     18  N   LIG    1       -0.743   1.579  -1.168  0.00  0.00    -0.550 N 
ATOM     19  C   LIG    1       -1.173   2.983  -1.198  0.00  0.00    +0.270 C 
ATOM     20  C   LIG    1       -0.012   3.842  -0.679  0.00  0.00    +0.020 C 
ATOM     21  C   LIG    1        0.270   3.466   0.775  0.00  0.00    +0.080 C 
ATOM     22  C   LIG    1        0.433   1.976   0.915  0.00  0.00    -0.110 A 
ATOM     23  C   LIG    1        1.098   1.476   2.021  0.00  0.00    +0.030 A 
ATOM     24  C   LIG    1        1.257   0.113   2.182  0.00  0.00    -0.020 A 
ATOM     25  C   LIG    1        0.751  -0.762   1.238  0.00  0.00    +0.030 A 
ATOM     26  C   LIG    1        0.088  -0.271   0.130  0.00  0.00    +0.010 A 
ATOM     27  C   LIG    1       -0.070   1.100  -0.034  0.00  0.00    +0.150 A 
ENDBRANCH  15  17
ENDBRANCH   1  15
TORSDOF 4
