REMARK  Name = ZINCpk00000xU4d8.0
REMARK                            x       y       z     vdW  Elec       q    Type
REMARK                         _______ _______ _______ _____ _____    ______ ____
ROOT
ATOM      1  C   LIG    1       -3.277   2.000   2.388  0.00  0.00    +0.050 C 
ATOM      2  C   LIG    1       -3.451   2.791   1.090  0.00  0.00    +0.200 C 
ATOM      3  C   LIG    1       -2.237   3.704   0.877  0.00  0.00    +0.020 C 
ATOM      4  C   LIG    1       -2.538   4.618  -0.313  0.00  0.00    +0.040 C 
ATOM      5  C   LIG    1       -3.083   3.799  -1.457  0.00  0.00    -0.120 A 
ATOM      6  C   LIG    1       -3.112   4.374  -2.717  0.00  0.00    +0.010 A 
ATOM      7  C   LIG    1       -3.614   3.673  -3.796  0.00  0.00    -0.010 A 
ATOM      8  C   LIG    1       -4.090   2.387  -3.621  0.00  0.00    +0.020 A 
ATOM      9  C   LIG    1       -4.060   1.806  -2.371  0.00  0.00    +0.030 A 
ATOM     10  C   LIG    1       -3.553   2.509  -1.277  0.00  0.00    +0.110 A 
ATOM     11  N   LIG    1       -3.545   1.865  -0.041  0.00  0.00    -0.480 N 
ENDROOT
BRANCH   4  12
ATOM     12  C   LIG    1       -3.556   5.652   0.092  0.00  0.00    +0.530 C 
ATOM     13  O   LIG    1       -4.000   5.655   1.221  0.00  0.00    -0.530 OA
ATOM     14  N   LIG    1       -3.973   6.573  -0.799  0.00  0.00    -0.850 N 
ATOM     15  H   LIG    1       -4.629   7.238  -0.537  0.00  0.00    +0.400 HD
ATOM     16  H   LIG    1       -3.618   6.570  -1.701  0.00  0.00    +0.400 HD
ENDBRANCH   4  12
BRANCH  11  17
ATOM     17  C   LIG    1       -2.482   0.853   0.018  0.00  0.00    +0.230 C 
BRANCH  17  18
ATOM     18  C   LIG    1       -2.856  -0.320  -0.851  0.00  0.00    +0.510 C 
ATOM     19  N   LIG    1       -1.896  -1.128  -1.343  0.00  0.00    -0.690 N 
ATOM     20  H   LIG    1       -0.964  -0.955  -1.137  0.00  0.00    +0.410 HD
ATOM     21  C   LIG    1       -2.231  -2.180  -2.116  0.00  0.00    +0.700 C 
ATOM     22  N   LIG    1       -1.271  -2.991  -2.603  0.00  0.00    -0.730 N 
ATOM     23  H   LIG    1       -0.340  -2.818  -2.397  0.00  0.00    +0.400 HD
ATOM     24  O   LIG    1       -3.399  -2.397  -2.374  0.00  0.00    -0.520 OA
ATOM     25  O   LIG    1       -4.021  -0.536  -1.108  0.00  0.00    -0.440 OA
BRANCH  22  26
ATOM     26  C   LIG    1       -1.636  -4.134  -3.443  0.00  0.00    +0.180 C 
ATOM     27  C   LIG    1       -2.550  -5.075  -2.656  0.00  0.00    +0.030 C 
ATOM     28  C   LIG    1       -0.369  -4.885  -3.860  0.00  0.00    +0.040 C 
ATOM     29  C   LIG    1       -2.368  -3.637  -4.691  0.00  0.00    +0.030 C 
ENDBRANCH  22  26
ENDBRANCH  17  18
ENDBRANCH  11  17
TORSDOF 4
