REMARK  Name = ZINCpk00000xI6Ad.0
REMARK                            x       y       z     vdW  Elec       q    Type
REMARK                         _______ _______ _______ _____ _____    ______ ____
ROOT
ATOM      1  N   LIG    1       -1.991  -2.042   0.101  0.00  0.00    -0.600 N 
ATOM      2  C   LIG    1       -1.351  -2.630   1.132  0.00  0.00    +0.520 C 
ATOM      3  O   LIG    1       -0.824  -3.712   0.981  0.00  0.00    -0.520 OA
ENDROOT
BRANCH   1   4
ATOM      4  C   LIG    1       -2.129  -2.750  -1.174  0.00  0.00    +0.280 C 
ATOM      5  C   LIG    1       -2.910  -4.058  -0.958  0.00  0.00    +0.070 C 
ATOM      6  C   LIG    1       -2.732  -4.899  -2.248  0.00  0.00    -0.310 C 
ATOM      7  S   LIG    1       -0.954  -4.670  -2.631  0.00  0.00    +2.400 S 
ATOM      8  O   LIG    1       -0.798  -4.444  -4.026  0.00  0.00    -0.940 OA
ATOM      9  O   LIG    1       -0.199  -5.689  -1.991  0.00  0.00    -0.920 OA
ATOM     10  C   LIG    1       -0.733  -3.097  -1.728  0.00  0.00    -0.330 C 
ENDBRANCH   1   4
BRANCH   1  11
ATOM     11  C   LIG    1       -2.549  -0.697   0.257  0.00  0.00    +0.270 C 
BRANCH  11  13
ATOM     12  C   LIG    1       -2.027   1.746   0.211  0.00  0.00    +0.030 C 
ATOM     13  C   LIG    1       -1.444   0.341   0.049  0.00  0.00    -0.010 C 
ENDBRANCH  11  13
ENDBRANCH   1  11
BRANCH   2  14
ATOM     14  C   LIG    1       -1.289  -1.941   2.471  0.00  0.00    +0.250 C 
BRANCH  14  15
ATOM     15  N   LIG    1        0.025  -2.170   3.077  0.00  0.00    -0.710 N 
ATOM     16  H   LIG    1        0.545  -2.951   2.829  0.00  0.00    +0.420 HD
ATOM     17  C   LIG    1        0.512  -1.297   3.981  0.00  0.00    +0.610 C 
ATOM     18  O   LIG    1       -0.140  -0.318   4.293  0.00  0.00    -0.510 OA
BRANCH  17  19
ATOM     19  C   LIG    1        1.827  -1.526   4.588  0.00  0.00    -0.090 A 
ATOM     20  C   LIG    1        2.435  -0.725   5.511  0.00  0.00    +0.050 A 
ATOM     21  C   LIG    1        3.670  -1.321   5.812  0.00  0.00    -0.070 A 
ATOM     22  C   LIG    1        3.760  -2.446   5.069  0.00  0.00    +0.210 A 
ATOM     23  O   LIG    1        2.646  -2.569   4.336  0.00  0.00    -0.160 OA
ENDBRANCH  17  19
ENDBRANCH  14  15
BRANCH  14  24
ATOM     24  C   LIG    1       -2.378  -2.506   3.385  0.00  0.00    -0.020 C 
ATOM     25  C   LIG    1       -3.752  -2.235   2.770  0.00  0.00    +0.030 C 
ATOM     26  C   LIG    1       -2.292  -1.833   4.757  0.00  0.00    +0.040 C 
ENDBRANCH  14  24
ENDBRANCH   2  14
TORSDOF 7
