REMARK  Name = ZINCrg00000fRaDU.0
REMARK                            x       y       z     vdW  Elec       q    Type
REMARK                         _______ _______ _______ _____ _____    ______ ____
ROOT
ATOM      1  N   LIG    1        0.418   5.296   0.046  0.00  0.00    -0.560 N 
ATOM      2  C   LIG    1        1.514   6.264   0.207  0.00  0.00    +0.310 C 
ATOM      3  C   LIG    1        1.419   7.294  -0.930  0.00  0.00    +0.190 C 
ATOM      4  N   LIG    1        0.071   7.879  -0.943  0.00  0.00    -0.510 NA
ATOM      5  C   LIG    1       -0.948   6.861  -1.231  0.00  0.00    +0.190 C 
ATOM      6  C   LIG    1       -0.950   5.814  -0.112  0.00  0.00    +0.310 C 
ENDROOT
BRANCH   1  11
ATOM      7  C   LIG    1        2.166  -0.222   0.147  0.00  0.00    +0.040 A 
ATOM      8  C   LIG    1        2.818   0.949   0.251  0.00  0.00    +0.180 A 
ATOM      9  N   LIG    1        1.875   1.962   0.155  0.00  0.00    -0.300 N 
ATOM     10  N   LIG    1        1.815   3.350   0.177  0.00  0.00    -0.350 NA
ATOM     11  C   LIG    1        0.667   3.933   0.048  0.00  0.00    +0.370 A 
ATOM     12  S   LIG    1       -0.522   2.630  -0.121  0.00  0.00    +0.130 S 
ATOM     13  C   LIG    1        0.680   1.336  -0.005  0.00  0.00    +0.120 A 
ATOM     14  N   LIG    1        0.860   0.036  -0.009  0.00  0.00    -0.420 NA
BRANCH   7  16
ATOM     15  C   LIG    1        3.174  -1.925   1.641  0.00  0.00    +0.040 C 
ATOM     16  C   LIG    1        2.795  -1.591   0.197  0.00  0.00    +0.020 C 
ATOM     17  C   LIG    1        4.051  -1.607  -0.677  0.00  0.00    +0.050 C 
ATOM     18  C   LIG    1        1.799  -2.629  -0.323  0.00  0.00    +0.050 C 
ENDBRANCH   7  16
ENDBRANCH   1  11
BRANCH   4  19
ATOM     19  C   LIG    1       -0.010   8.991  -1.899  0.00  0.00    +0.260 C 
BRANCH  19  20
ATOM     20  C   LIG    1        0.321   8.490  -3.282  0.00  0.00    +0.480 C 
ATOM     21  N   LIG    1        0.417   9.359  -4.308  0.00  0.00    -0.610 N 
ATOM     22  C   LIG    1        0.196  10.799  -4.104  0.00  0.00    +0.250 C 
ATOM     23  C   LIG    1        1.382  11.558  -4.720  0.00  0.00    +0.220 C 
ATOM     24  O   LIG    1        1.563  11.129  -6.072  0.00  0.00    -0.380 OA
ATOM     25  C   LIG    1        1.895   9.745  -6.207  0.00  0.00    +0.220 C 
ATOM     26  C   LIG    1        0.740   8.894  -5.666  0.00  0.00    +0.250 C 
ATOM     27  O   LIG    1        0.502   7.306  -3.471  0.00  0.00    -0.530 OA
ENDBRANCH  19  20
ENDBRANCH   4  19
TORSDOF 4
