REMARK  Name = ZINCrD000001YJ9V.0
REMARK                            x       y       z     vdW  Elec       q    Type
REMARK                         _______ _______ _______ _____ _____    ______ ____
ROOT
ATOM      1  C   LIG    1       -0.063   1.374   0.014  0.00  0.00    +0.570 C 
ATOM      2  N   LIG    1        0.072   0.034  -0.017  0.00  0.00    -0.660 N 
ATOM      3  H   LIG    1        0.952  -0.363  -0.117  0.00  0.00    +0.420 HD
ATOM      4  O   LIG    1       -1.172   1.873   0.033  0.00  0.00    -0.510 OA
ENDROOT
BRANCH   2   5
ATOM      5  C   LIG    1       -1.058  -0.788   0.095  0.00  0.00    +0.190 A 
ATOM      6  C   LIG    1       -2.199  -0.317   0.731  0.00  0.00    +0.020 A 
ATOM      7  C   LIG    1       -3.314  -1.128   0.841  0.00  0.00    +0.140 A 
ATOM      8  C   LIG    1       -3.296  -2.413   0.317  0.00  0.00    +0.020 A 
ATOM      9  C   LIG    1       -2.157  -2.888  -0.319  0.00  0.00    +0.120 A 
ATOM     10  F   LIG    1       -2.139  -4.139  -0.829  0.00  0.00    -0.110 F 
ATOM     11  F   LIG    1       -4.423  -0.668   1.460  0.00  0.00    -0.110 F 
ATOM     12  C   LIG    1       -1.040  -2.075  -0.437  0.00  0.00    +0.030 A 
BRANCH   8  13
ATOM     13  O   LIG    1       -4.394  -3.209   0.428  0.00  0.00    -0.320 OA
ATOM     14  C   LIG    1       -5.353  -3.142  -0.629  0.00  0.00    +0.230 C 
ENDBRANCH   8  13
BRANCH  12  15
ATOM     15  O   LIG    1        0.075  -2.536  -1.065  0.00  0.00    -0.320 OA
ATOM     16  C   LIG    1        1.044  -3.207  -0.258  0.00  0.00    +0.240 C 
ENDBRANCH  12  15
ENDBRANCH   2   5
BRANCH   1  20
ATOM     17  C   LIG    1        3.382   3.857   0.025  0.00  0.00    +0.180 A 
ATOM     18  C   LIG    1        2.114   4.429   0.053  0.00  0.00    +0.000 A 
ATOM     19  C   LIG    1        0.995   3.627   0.049  0.00  0.00    +0.110 A 
ATOM     20  C   LIG    1        1.134   2.237   0.017  0.00  0.00    -0.150 A 
ATOM     21  C   LIG    1        2.409   1.665  -0.005  0.00  0.00    +0.060 A 
ATOM     22  C   LIG    1        3.524   2.473  -0.007  0.00  0.00    +0.010 A 
BRANCH  17  24
ATOM     23  C   LIG    1        5.459   4.506   0.975  0.00  0.00    +0.550 C 
ATOM     24  N   LIG    1        4.513   4.672   0.030  0.00  0.00    -0.570 N 
ATOM     25  C   LIG    1        4.672   5.709  -0.993  0.00  0.00    +0.310 C 
ATOM     26  O   LIG    1        5.286   3.707   1.876  0.00  0.00    -0.520 OA
BRANCH  23  28
ATOM     27  C   LIG    1        7.637   5.125   1.848  0.00  0.00    +0.160 C 
ATOM     28  C   LIG    1        6.702   5.289   0.916  0.00  0.00    -0.100 C 
ENDBRANCH  23  28
ENDBRANCH  17  24
ENDBRANCH   1  20
TORSDOF 6
