REMARK  Name = ZINCrH000004nL1l.0
REMARK                            x       y       z     vdW  Elec       q    Type
REMARK                         _______ _______ _______ _____ _____    ______ ____
ROOT
ATOM      1  C   LIG    1       -5.138   5.849   2.152  0.00  0.00    +0.300 A 
ATOM      2  N   LIG    1       -6.136   6.410   1.523  0.00  0.00    -0.300 NA
ATOM      3  N   LIG    1       -5.948   6.312   0.141  0.00  0.00    -0.380 N 
ATOM      4  C   LIG    1       -4.774   5.656  -0.111  0.00  0.00    +0.340 A 
ATOM      5  N   LIG    1       -4.142   5.308  -1.225  0.00  0.00    -0.510 NA
ATOM      6  C   LIG    1       -2.991   4.671  -1.192  0.00  0.00    +0.220 A 
ATOM      7  C   LIG    1       -2.389   4.322   0.009  0.00  0.00    -0.190 A 
ATOM      8  C   LIG    1       -2.994   4.655   1.193  0.00  0.00    +0.060 A 
ATOM      9  C   LIG    1       -2.361   4.296   2.513  0.00  0.00    +0.120 C 
ATOM     10  C   LIG    1       -2.314   4.307  -2.488  0.00  0.00    +0.150 C 
ATOM     11  C   LIG    1       -6.864   6.830  -0.878  0.00  0.00    +0.370 C 
ATOM     12  C   LIG    1       -4.213   5.337   1.142  0.00  0.00    -0.230 A 
ENDROOT
BRANCH   1  14
ATOM     13  C   LIG    1       -6.018   6.331   4.307  0.00  0.00    +0.260 C 
ATOM     14  O   LIG    1       -4.988   5.758   3.499  0.00  0.00    -0.280 OA
ENDBRANCH   1  14
BRANCH   7  15
ATOM     15  C   LIG    1       -1.073   3.587   0.010  0.00  0.00    +0.120 C 
BRANCH  15  16
ATOM     16  C   LIG    1       -1.332   2.079   0.005  0.00  0.00    +0.060 C 
BRANCH  16  17
ATOM     17  C   LIG    1       -0.017   1.344   0.006  0.00  0.00    +0.510 C 
ATOM     18  N   LIG    1        0.002  -0.004   0.002  0.00  0.00    -0.670 N 
ATOM     19  H   LIG    1       -0.827  -0.501   0.083  0.00  0.00    +0.410 HD
ATOM     20  O   LIG    1        1.025   1.964   0.006  0.00  0.00    -0.510 OA
BRANCH  18  21
ATOM     21  C   LIG    1        1.218  -0.687  -0.119  0.00  0.00    +0.150 A 
ATOM     22  C   LIG    1        2.302  -0.073  -0.732  0.00  0.00    +0.010 A 
ATOM     23  C   LIG    1        3.502  -0.748  -0.845  0.00  0.00    +0.030 A 
ATOM     24  C   LIG    1        3.621  -2.036  -0.358  0.00  0.00    -0.020 A 
ATOM     25  C   LIG    1        2.541  -2.652   0.248  0.00  0.00    -0.070 A 
ATOM     26  C   LIG    1        2.675  -4.057   0.778  0.00  0.00    +0.090 C 
ATOM     27  C   LIG    1        1.340  -1.981   0.369  0.00  0.00    -0.120 A 
ATOM     28  C   LIG    1        0.164  -2.653   1.030  0.00  0.00    +0.090 C 
ENDBRANCH  18  21
ENDBRANCH  16  17
ENDBRANCH  15  16
ENDBRANCH   7  15
TORSDOF 5
