REMARK  Name = ZINCkj000018REBS.2
REMARK                            x       y       z     vdW  Elec       q    Type
REMARK                         _______ _______ _______ _____ _____    ______ ____
ROOT
ATOM      1  C   LIG    1        3.509   7.447  -2.528  0.00  0.00    +0.190 A 
ATOM      2  C   LIG    1        4.577   6.559  -2.502  0.00  0.00    -0.010 A 
ATOM      3  C   LIG    1        4.356   5.209  -2.689  0.00  0.00    +0.070 A 
ATOM      4  C   LIG    1        3.073   4.740  -2.904  0.00  0.00    -0.190 A 
ATOM      5  C   LIG    1        2.008   5.622  -2.936  0.00  0.00    +0.060 A 
ATOM      6  C   LIG    1        2.222   6.973  -2.744  0.00  0.00    +0.030 A 
ENDROOT
BRANCH   1   8
ATOM      7  C   LIG    1        2.802   9.566  -1.713  0.00  0.00    +0.550 C 
ATOM      8  N   LIG    1        3.730   8.814  -2.338  0.00  0.00    -0.680 N 
ATOM      9  H   LIG    1        4.551   9.222  -2.656  0.00  0.00    +0.420 HD
ATOM     10  O   LIG    1        1.818   9.039  -1.229  0.00  0.00    -0.520 OA
BRANCH   7  12
ATOM     11  C   LIG    1        2.065  11.764  -0.998  0.00  0.00    +0.180 C 
ATOM     12  C   LIG    1        2.980  11.022  -1.615  0.00  0.00    -0.100 C 
ENDBRANCH   7  12
ENDBRANCH   1   8
BRANCH   4  13
ATOM     13  C   LIG    1        2.835   3.266  -3.109  0.00  0.00    +0.340 C 
BRANCH  13  14
ATOM     14  N   LIG    1        2.589   2.625  -1.811  0.00  0.00    -0.390 N 
ATOM     15  C   LIG    1        2.471   1.153  -1.973  0.00  0.00    +0.290 C 
ATOM     16  C   LIG    1        1.694   0.683  -0.725  0.00  0.00    +0.170 C 
ATOM     17  O   LIG    1        0.684  -0.261  -1.137  0.00  0.00    -0.360 OA
ATOM     18  C   LIG    1       -0.499   0.124  -0.405  0.00  0.00    +0.430 C 
ATOM     19  O   LIG    1       -0.486   1.568  -0.425  0.00  0.00    -0.360 OA
ATOM     20  C   LIG    1        0.899   1.925  -0.242  0.00  0.00    +0.170 C 
ATOM     21  C   LIG    1        1.271   3.038  -1.265  0.00  0.00    +0.290 C 
ATOM     22  H   LIG    1        3.326   2.850  -1.160  0.00  0.00    +0.430 HD
ENDBRANCH  13  14
ENDBRANCH   4  13
TORSDOF 4
