REMARK  Name = ZINCkj000018REBS.1
REMARK                            x       y       z     vdW  Elec       q    Type
REMARK                         _______ _______ _______ _____ _____    ______ ____
ROOT
ATOM      1  C   LIG    1       -0.058   4.269   0.019  0.00  0.00    +0.190 A 
ATOM      2  C   LIG    1        1.140   3.586   0.178  0.00  0.00    -0.010 A 
ATOM      3  C   LIG    1        1.153   2.205   0.166  0.00  0.00    +0.060 A 
ATOM      4  C   LIG    1       -0.026   1.503  -0.005  0.00  0.00    -0.190 A 
ATOM      5  C   LIG    1       -1.220   2.180  -0.170  0.00  0.00    +0.060 A 
ATOM      6  C   LIG    1       -1.241   3.561  -0.153  0.00  0.00    +0.030 A 
ENDROOT
BRANCH   1   8
ATOM      7  C   LIG    1       -1.137   6.325   0.537  0.00  0.00    +0.550 C 
ATOM      8  N   LIG    1       -0.075   5.668   0.030  0.00  0.00    -0.680 N 
ATOM      9  H   LIG    1        0.678   6.165  -0.326  0.00  0.00    +0.420 HD
ATOM     10  O   LIG    1       -2.038   5.705   1.071  0.00  0.00    -0.520 OA
BRANCH   7  12
ATOM     11  C   LIG    1       -2.255   8.440   0.944  0.00  0.00    +0.180 C 
ATOM     12  C   LIG    1       -1.207   7.791   0.445  0.00  0.00    -0.100 C 
ENDBRANCH   7  12
ENDBRANCH   1   8
BRANCH   4  13
ATOM     13  C   LIG    1       -0.008  -0.004  -0.019  0.00  0.00    +0.330 C 
BRANCH  13  14
ATOM     14  N   LIG    1       -0.193  -0.509   1.348  0.00  0.00    -0.400 N 
ATOM     15  C   LIG    1       -0.299  -1.990   1.345  0.00  0.00    +0.290 C 
ATOM     16  C   LIG    1        0.069  -2.412   2.783  0.00  0.00    +0.170 C 
ATOM     17  O   LIG    1       -1.126  -2.405   3.589  0.00  0.00    -0.370 OA
ATOM     18  C   LIG    1       -0.725  -1.742   4.818  0.00  0.00    +0.430 C 
ATOM     19  O   LIG    1        0.154  -0.677   4.397  0.00  0.00    -0.370 OA
ATOM     20  C   LIG    1        0.937  -1.248   3.330  0.00  0.00    +0.180 C 
ATOM     21  C   LIG    1        1.012  -0.231   2.171  0.00  0.00    +0.290 C 
ATOM     22  H   LIG    1       -1.012  -0.097   1.768  0.00  0.00    +0.430 HD
ENDBRANCH  13  14
ENDBRANCH   4  13
TORSDOF 4
