REMARK  Name = ZINCrH000004myrd.0
REMARK                            x       y       z     vdW  Elec       q    Type
REMARK                         _______ _______ _______ _____ _____    ______ ____
ROOT
ATOM      1  C   LIG    1        0.735   0.525  -4.860  0.00  0.00    +0.040 C 
ATOM      2  C   LIG    1       -0.741   0.846  -4.614  0.00  0.00    +0.020 C 
ATOM      3  C   LIG    1       -0.849   2.001  -3.614  0.00  0.00    +0.280 C 
ATOM      4  N   LIG    1       -0.098   1.648  -2.401  0.00  0.00    -0.610 N 
ATOM      5  C   LIG    1        1.307   1.242  -2.534  0.00  0.00    +0.250 C 
ATOM      6  C   LIG    1       -0.686   1.702  -1.190  0.00  0.00    +0.520 C 
ATOM      7  O   LIG    1       -1.846   2.044  -1.093  0.00  0.00    -0.500 OA
ATOM      8  C   LIG    1        1.389   0.090  -3.547  0.00  0.00    +0.020 C 
ENDROOT
BRANCH   1  12
ATOM      9  C   LIG    1        1.048  -2.633  -7.722  0.00  0.00    +0.120 A 
ATOM     10  C   LIG    1        1.620  -1.397  -7.986  0.00  0.00    -0.020 A 
ATOM     11  C   LIG    1        1.517  -0.378  -7.059  0.00  0.00    +0.050 A 
ATOM     12  C   LIG    1        0.845  -0.589  -5.869  0.00  0.00    -0.120 A 
ATOM     13  C   LIG    1        0.279  -1.821  -5.602  0.00  0.00    +0.050 A 
ATOM     14  C   LIG    1        0.374  -2.842  -6.528  0.00  0.00    -0.080 A 
BRANCH   9  16
ATOM     15  C   LIG    1        0.536  -4.883  -8.293  0.00  0.00    +0.250 C 
ATOM     16  O   LIG    1        1.149  -3.638  -8.632  0.00  0.00    -0.320 OA
ENDBRANCH   9  16
ENDBRANCH   1  12
BRANCH   6  17
ATOM     17  C   LIG    1        0.097   1.337   0.045  0.00  0.00    +0.080 C 
BRANCH  17  18
ATOM     18  C   LIG    1       -0.748   1.622   1.288  0.00  0.00    +0.290 C 
BRANCH  18  19
ATOM     19  N   LIG    1       -0.971   3.065   1.406  0.00  0.00    -0.380 N 
ATOM     20  C   LIG    1       -0.139   3.952   1.990  0.00  0.00    +0.210 A 
ATOM     21  C   LIG    1       -0.704   5.177   1.888  0.00  0.00    -0.110 A 
ATOM     22  C   LIG    1       -1.928   5.033   1.227  0.00  0.00    +0.230 A 
ATOM     23  N   LIG    1       -2.090   3.767   0.938  0.00  0.00    -0.240 NA
ENDBRANCH  18  19
BRANCH  18  24
ATOM     24  C   LIG    1       -0.013   1.116   2.531  0.00  0.00    +0.450 C 
ATOM     25  F   LIG    1        0.084  -0.278   2.480  0.00  0.00    -0.160 F 
ATOM     26  F   LIG    1       -0.722   1.493   3.677  0.00  0.00    -0.170 F 
ATOM     27  F   LIG    1        1.270   1.672   2.572  0.00  0.00    -0.170 F 
ENDBRANCH  18  24
ENDBRANCH  17  18
ENDBRANCH   6  17
TORSDOF 6
