REMARK  Name = ZINCvU0000000EY8.0
REMARK                            x       y       z     vdW  Elec       q    Type
REMARK                         _______ _______ _______ _____ _____    ______ ____
ROOT
ATOM      1  N   LIG    1        5.810   2.511  -0.039  0.00  0.00    -0.350 N 
ATOM      2  N   LIG    1        4.864   1.474  -0.031  0.00  0.00    -0.240 NA
ATOM      3  C   LIG    1        3.678   2.043  -0.022  0.00  0.00    +0.260 A 
ATOM      4  N   LIG    1        3.841   3.373  -0.016  0.00  0.00    -0.500 NA
ATOM      5  C   LIG    1        5.115   3.663  -0.026  0.00  0.00    +0.280 A 
ENDROOT
BRANCH   3   6
ATOM      6  C   LIG    1        2.377   1.331  -0.013  0.00  0.00    +0.220 A 
ATOM      7  C   LIG    1        1.191   2.060   0.002  0.00  0.00    +0.040 A 
ATOM      8  C   LIG    1       -0.017   1.383   0.010  0.00  0.00    +0.100 A 
ATOM      9  C   LIG    1        0.002  -0.004   0.002  0.00  0.00    +0.010 A 
ATOM     10  C   LIG    1        1.218  -0.666  -0.013  0.00  0.00    +0.180 A 
ATOM     11 CL   LIG    1        1.248  -2.402  -0.022  0.00  0.00    -0.020 Cl
ATOM     12  N   LIG    1        2.353   0.004  -0.020  0.00  0.00    -0.450 NA
ENDBRANCH   3   6
BRANCH   1  17
ATOM     13  C   LIG    1        8.827  -0.688   1.542  0.00  0.00    +0.040 C 
ATOM     14  C   LIG    1        7.856   0.115   0.673  0.00  0.00    -0.010 C 
ATOM     15  C   LIG    1        8.421   0.299  -0.756  0.00  0.00    +0.020 C 
ATOM     16  C   LIG    1        7.705   1.558  -1.287  0.00  0.00    +0.030 C 
ATOM     17  C   LIG    1        7.268   2.368  -0.054  0.00  0.00    +0.250 C 
ATOM     18  C   LIG    1        7.733   1.573   1.184  0.00  0.00    +0.050 C 
ENDBRANCH   1  17
BRANCH   5  19
ATOM     19  C   LIG    1        5.704   5.050  -0.024  0.00  0.00    +0.220 C 
BRANCH  19  20
ATOM     20  S   LIG    1        5.956   5.596   1.683  0.00  0.00    +0.110 S 
BRANCH  20  21
ATOM     21  C   LIG    1        6.633   7.197   1.396  0.00  0.00    +0.130 A 
ATOM     22  N   LIG    1        6.859   7.747   0.225  0.00  0.00    -0.280 NA
ATOM     23  N   LIG    1        7.355   8.922   0.392  0.00  0.00    -0.260 NA
ATOM     24  C   LIG    1        7.474   9.167   1.674  0.00  0.00    +0.220 A 
ATOM     25  O   LIG    1        7.019   8.080   2.337  0.00  0.00    -0.200 OA
BRANCH  24  26
ATOM     26  C   LIG    1        8.006  10.403   2.283  0.00  0.00    -0.030 A 
ATOM     27  C   LIG    1        8.069  10.530   3.671  0.00  0.00    +0.050 A 
ATOM     28  C   LIG    1        8.571  11.685   4.233  0.00  0.00    +0.010 A 
ATOM     29  C   LIG    1        9.002  12.722   3.424  0.00  0.00    +0.040 A 
ATOM     30  C   LIG    1        8.938  12.604   2.046  0.00  0.00    +0.020 A 
ATOM     31  C   LIG    1        8.442  11.453   1.472  0.00  0.00    +0.080 A 
ENDBRANCH  24  26
ENDBRANCH  20  21
ENDBRANCH  19  20
ENDBRANCH   5  19
TORSDOF 6
