REMARK  Name = ZINCvU00000005yT.0
REMARK                            x       y       z     vdW  Elec       q    Type
REMARK                         _______ _______ _______ _____ _____    ______ ____
ROOT
ATOM      1  C   LIG    1        3.487   3.195   0.468  0.00  0.00    +0.330 A 
ATOM      2  N   LIG    1        2.345   3.856   0.484  0.00  0.00    -0.560 NA
ATOM      3  C   LIG    1        1.182   3.206   0.331  0.00  0.00    +0.200 A 
ATOM      4  C   LIG    1       -0.048   3.877   0.341  0.00  0.00    +0.030 A 
ATOM      5  C   LIG    1       -1.203   3.168   0.181  0.00  0.00    +0.070 A 
ATOM      6  C   LIG    1       -1.178   1.789   0.001  0.00  0.00    +0.000 A 
ATOM      7  C   LIG    1        0.002   1.105  -0.009  0.00  0.00    +0.060 A 
ATOM      8  C   LIG    1        1.204   1.801   0.153  0.00  0.00    -0.200 A 
ATOM      9  C   LIG    1        2.460   1.144   0.145  0.00  0.00    +0.480 A 
ATOM     10  N   LIG    1        3.553   1.875   0.304  0.00  0.00    -0.560 NA
ENDROOT
BRANCH   9  11
ATOM     11  N   LIG    1        2.543  -0.223  -0.024  0.00  0.00    -0.630 N 
ATOM     12  H   LIG    1        1.734  -0.757  -0.059  0.00  0.00    +0.420 HD
BRANCH  11  13
ATOM     13  C   LIG    1        3.792  -0.838  -0.145  0.00  0.00    +0.140 A 
ATOM     14  C   LIG    1        4.840  -0.169  -0.763  0.00  0.00    +0.030 A 
ATOM     15  C   LIG    1        6.075  -0.777  -0.877  0.00  0.00    +0.030 A 
ATOM     16  C   LIG    1        6.265  -2.056  -0.385  0.00  0.00    -0.010 A 
ATOM     17  C   LIG    1        5.222  -2.727   0.226  0.00  0.00    +0.030 A 
ATOM     18  C   LIG    1        3.986  -2.122   0.347  0.00  0.00    -0.030 A 
ENDBRANCH  11  13
ENDBRANCH   9  11
BRANCH   1  19
ATOM     19  S   LIG    1        4.987   4.095   0.674  0.00  0.00    +0.090 S 
BRANCH  19  20
ATOM     20  C   LIG    1        4.326   5.771   0.848  0.00  0.00    +0.100 C 
BRANCH  20  31
ATOM     21  C   LIG    1        7.171   9.145   0.193  0.00  0.00    +0.050 C 
ATOM     22  C   LIG    1        6.224   9.092   1.393  0.00  0.00    +0.230 C 
ATOM     23  C   LIG    1        5.441  10.410   1.509  0.00  0.00    +0.100 C 
ATOM     24  C   LIG    1        3.991  10.005   1.370  0.00  0.00    -0.130 A 
ATOM     25  C   LIG    1        2.833  10.758   1.396  0.00  0.00    +0.060 A 
ATOM     26  C   LIG    1        1.603  10.145   1.242  0.00  0.00    -0.010 A 
ATOM     27  C   LIG    1        1.534   8.776   1.062  0.00  0.00    +0.050 A 
ATOM     28  C   LIG    1        2.687   8.021   1.036  0.00  0.00    -0.020 A 
ATOM     29  C   LIG    1        3.933   8.631   1.190  0.00  0.00    +0.140 A 
ATOM     30  N   LIG    1        5.207   8.057   1.194  0.00  0.00    -0.540 N 
ATOM     31  C   LIG    1        5.463   6.742   1.041  0.00  0.00    +0.540 C 
ATOM     32  O   LIG    1        6.607   6.340   1.059  0.00  0.00    -0.500 OA
ENDBRANCH  20  31
ENDBRANCH  19  20
ENDBRANCH   1  19
TORSDOF 5
