REMARK  Name = ZINCpe00000MJMt7.0
REMARK                            x       y       z     vdW  Elec       q    Type
REMARK                         _______ _______ _______ _____ _____    ______ ____
ROOT
ATOM      1  O   LIG    1       -5.623   1.835   1.949  0.00  0.00    -0.520 OA
ATOM      2  C   LIG    1       -4.644   1.750   1.239  0.00  0.00    +0.530 C 
ATOM      3  N   LIG    1       -4.634   1.254  -0.022  0.00  0.00    -0.730 N 
ATOM      4  H   LIG    1       -5.417   0.922  -0.488  0.00  0.00    +0.410 HD
ATOM      5  C   LIG    1       -3.278   1.282  -0.591  0.00  0.00    +0.260 C 
ATOM      6  C   LIG    1       -2.345   1.462   0.623  0.00  0.00    +0.260 C 
ATOM      7  N   LIG    1       -1.141   2.174   0.260  0.00  0.00    -0.580 N 
ATOM      8  C   LIG    1       -0.018   1.471   0.010  0.00  0.00    +0.610 C 
ATOM      9  O   LIG    1        1.031   2.052  -0.190  0.00  0.00    -0.530 OA
ATOM     10  C   LIG    1       -1.102   3.634   0.148  0.00  0.00    +0.280 C 
ATOM     11  C   LIG    1       -1.733   4.211   1.422  0.00  0.00    +0.030 C 
ATOM     12  C   LIG    1       -3.166   3.706   1.527  0.00  0.00    +0.040 C 
ATOM     13  C   LIG    1       -3.242   2.194   1.625  0.00  0.00    -0.010 C 
ENDROOT
BRANCH   8  14
ATOM     14  C   LIG    1       -0.063  -0.003  -0.027  0.00  0.00    -0.110 A 
ATOM     15  C   LIG    1        1.016  -0.833  -0.140  0.00  0.00    +0.310 A 
ATOM     16  N   LIG    1        0.541  -2.094  -0.134  0.00  0.00    -0.350 N 
ATOM     17  N   LIG    1       -0.853  -2.002  -0.014  0.00  0.00    -0.050 NA
ATOM     18  N   LIG    1       -1.173  -0.757   0.052  0.00  0.00    -0.210 NA
BRANCH  16  19
ATOM     19  C   LIG    1        1.330  -3.325  -0.235  0.00  0.00    +0.400 C 
BRANCH  19  20
ATOM     20  C   LIG    1        1.016  -4.220   0.936  0.00  0.00    -0.090 A 
ATOM     21  C   LIG    1       -0.009  -5.143   0.844  0.00  0.00    +0.050 A 
ATOM     22  C   LIG    1       -0.298  -5.966   1.917  0.00  0.00    +0.050 A 
ATOM     23  C   LIG    1        0.437  -5.865   3.083  0.00  0.00    +0.000 A 
ATOM     24  C   LIG    1        1.463  -4.940   3.176  0.00  0.00    +0.100 A 
ATOM     25  F   LIG    1        2.183  -4.841   4.316  0.00  0.00    -0.140 F 
ATOM     26  C   LIG    1        1.756  -4.121   2.099  0.00  0.00    +0.010 A 
ENDBRANCH  19  20
ENDBRANCH  16  19
ENDBRANCH   8  14
TORSDOF 3
