REMARK  Name = ZINCpk00000wOrMf.0
REMARK                            x       y       z     vdW  Elec       q    Type
REMARK                         _______ _______ _______ _____ _____    ______ ____
ROOT
ATOM      1  O   LIG    1       -0.692   1.554   1.203  0.00  0.00    -0.330 OA
ENDROOT
BRANCH   1   2
ATOM      2  C   LIG    1       -0.166   1.194   2.384  0.00  0.00    +0.470 C 
ATOM      3  O   LIG    1        0.829   0.510   2.418  0.00  0.00    -0.500 OA
BRANCH   2   4
ATOM      4  C   LIG    1       -0.817   1.643   3.667  0.00  0.00    +0.110 C 
BRANCH   4   5
ATOM      5  C   LIG    1       -0.025   1.100   4.858  0.00  0.00    +0.070 C 
BRANCH   5   6
ATOM      6  C   LIG    1       -0.685   1.555   6.160  0.00  0.00    +0.200 C 
BRANCH   6   7
ATOM      7  O   LIG    1        0.055   1.048   7.273  0.00  0.00    -0.310 OA
BRANCH   7   8
ATOM      8  C   LIG    1       -0.402   1.363   8.513  0.00  0.00    +0.140 A 
ATOM      9  C   LIG    1       -1.536   2.150   8.657  0.00  0.00    -0.060 A 
ATOM     10  C   LIG    1       -2.003   2.463   9.919  0.00  0.00    +0.070 A 
ATOM     11  C   LIG    1       -1.334   2.006  11.038  0.00  0.00    +0.010 A 
ATOM     12  C   LIG    1       -0.199   1.226  10.898  0.00  0.00    -0.050 A 
ATOM     13 BR   LIG    1        0.714   0.602  12.432  0.00  0.00    -0.040 Br
ATOM     14  C   LIG    1        0.268   0.904   9.638  0.00  0.00    +0.010 A 
ENDBRANCH   7   8
ENDBRANCH   6   7
ENDBRANCH   5   6
ENDBRANCH   4   5
ENDBRANCH   2   4
ENDBRANCH   1   2
BRANCH   1  15
ATOM     15  C   LIG    1       -0.013   1.086   0.008  0.00  0.00    +0.270 C 
BRANCH  15  17
ATOM     16  O   LIG    1       -1.736   2.268  -1.088  0.00  0.00    -0.510 OA
ATOM     17  C   LIG    1       -0.742   1.585  -1.213  0.00  0.00    +0.520 C 
ATOM     18  N   LIG    1       -0.288   1.272  -2.443  0.00  0.00    -0.720 N 
ATOM     19  H   LIG    1        0.507   0.726  -2.543  0.00  0.00    +0.410 HD
BRANCH  18  20
ATOM     20  C   LIG    1       -0.997   1.758  -3.630  0.00  0.00    +0.270 C 
ATOM     21  C   LIG    1       -2.107   0.767  -4.023  0.00  0.00    +0.060 C 
ATOM     22  C   LIG    1       -2.600   1.115  -5.441  0.00  0.00    -0.310 C 
ATOM     23  S   LIG    1       -1.167   1.895  -6.267  0.00  0.00    +2.400 S 
ATOM     24  O   LIG    1       -0.686   1.033  -7.289  0.00  0.00    -0.930 OA
ATOM     25  O   LIG    1       -1.475   3.249  -6.566  0.00  0.00    -0.930 OA
ATOM     26  C   LIG    1       -0.024   1.835  -4.835  0.00  0.00    -0.310 C 
ENDBRANCH  18  20
ENDBRANCH  15  17
ENDBRANCH   1  15
TORSDOF 9
