REMARK  Name = ZINCkj000005952I.0
REMARK                            x       y       z     vdW  Elec       q    Type
REMARK                         _______ _______ _______ _____ _____    ______ ____
ROOT
ATOM      1  N   LIG    1       -2.458   4.893   0.052  0.00  0.00    -0.510 N 
ATOM      2  H   LIG    1       -2.781   4.409   0.876  0.00  0.00    +0.430 HD
ATOM      3  H   LIG    1       -2.797   4.418  -0.771  0.00  0.00    +0.430 HD
ENDROOT
BRANCH   1   4
ATOM      4  C   LIG    1       -0.989   4.909   0.038  0.00  0.00    +0.150 C 
ATOM      5  C   LIG    1       -0.499   5.643  -1.212  0.00  0.00    +0.140 C 
BRANCH   4   6
ATOM      6  C   LIG    1       -0.471   3.494   0.025  0.00  0.00    -0.020 A 
ATOM      7  N   LIG    1        0.776   3.164   0.012  0.00  0.00    -0.420 NA
ATOM      8  C   LIG    1        1.057   1.877   0.002  0.00  0.00    +0.240 A 
ATOM      9  C   LIG    1       -0.013   1.076   0.008  0.00  0.00    +0.000 A 
ATOM     10  S   LIG    1       -1.451   2.093   0.019  0.00  0.00    +0.110 S 
ENDBRANCH   4   6
BRANCH   4  12
ATOM     11  C   LIG    1       -0.965   4.896   2.536  0.00  0.00    +0.030 C 
ATOM     12  C   LIG    1       -0.475   5.629   1.286  0.00  0.00    +0.090 C 
ENDBRANCH   4  12
ENDBRANCH   1   4
BRANCH   1  13
ATOM     13  C   LIG    1       -2.963   6.272   0.064  0.00  0.00    +0.290 C 
BRANCH  13  14
ATOM     14  C   LIG    1       -4.493   6.255   0.079  0.00  0.00    +0.030 C 
BRANCH  14  15
ATOM     15  C   LIG    1       -5.019   7.692   0.091  0.00  0.00    +0.350 C 
BRANCH  15  16
ATOM     16  N   LIG    1       -6.484   7.676   0.105  0.00  0.00    -0.580 N 
ATOM     17  C   LIG    1       -7.251   7.678  -1.002  0.00  0.00    +0.520 C 
ATOM     18  C   LIG    1       -8.684   7.656  -0.508  0.00  0.00    +0.320 C 
ATOM     19  N   LIG    1       -8.544   7.649   0.959  0.00  0.00    -0.720 N 
ATOM     20  H   LIG    1       -9.263   7.638   1.609  0.00  0.00    +0.450 HD
ATOM     21  O   LIG    1       -6.874   7.694  -2.155  0.00  0.00    -0.460 OA
ATOM     22  C   LIG    1       -7.224   7.662   1.219  0.00  0.00    +0.700 C 
ATOM     23  O   LIG    1       -6.758   7.660   2.341  0.00  0.00    -0.540 OA
ENDBRANCH  15  16
ENDBRANCH  14  15
ENDBRANCH  13  14
ENDBRANCH   1  13
TORSDOF 7
