REMARK  Name = ZINCrD00000F5Ltk.0
REMARK                            x       y       z     vdW  Elec       q    Type
REMARK                         _______ _______ _______ _____ _____    ______ ____
ROOT
ATOM      1  C   LIG    1        2.264   3.135   0.350  0.00  0.00    +0.360 C 
ATOM      2  N   LIG    1        1.727   1.776   0.248  0.00  0.00    -0.360 N 
ATOM      3  C   LIG    1        2.454   0.639   0.189  0.00  0.00    +0.280 A 
ATOM      4  C   LIG    1        1.598  -0.401   0.100  0.00  0.00    -0.240 A 
ATOM      5  C   LIG    1        0.287   0.117   0.104  0.00  0.00    +0.140 A 
ATOM      6  N   LIG    1        0.371   1.430   0.193  0.00  0.00    -0.260 NA
ENDROOT
BRANCH   5   7
ATOM      7  C   LIG    1       -0.961  -0.671   0.021  0.00  0.00    +0.100 A 
ATOM      8  C   LIG    1       -2.076  -0.442   0.755  0.00  0.00    +0.000 A 
ATOM      9  C   LIG    1       -3.049  -1.457   0.343  0.00  0.00    -0.130 A 
ATOM     10  C   LIG    1       -4.362  -1.754   0.712  0.00  0.00    +0.060 A 
ATOM     11  C   LIG    1       -5.011  -2.803   0.122  0.00  0.00    +0.000 A 
ATOM     12  C   LIG    1       -4.373  -3.572  -0.840  0.00  0.00    +0.050 A 
ATOM     13  C   LIG    1       -3.076  -3.294  -1.218  0.00  0.00    +0.020 A 
ATOM     14  C   LIG    1       -2.398  -2.233  -0.632  0.00  0.00    +0.060 A 
ATOM     15  O   LIG    1       -1.157  -1.729  -0.791  0.00  0.00    -0.180 OA
ENDBRANCH   5   7
BRANCH   4  16
ATOM     16  C   LIG    1        1.977  -1.857   0.012  0.00  0.00    +0.380 C 
BRANCH  16  17
ATOM     17  N   LIG    1        2.207  -2.218  -1.389  0.00  0.00    -0.600 N 
ATOM     18  C   LIG    1        3.399  -1.964  -1.964  0.00  0.00    +0.510 C 
ATOM     19  O   LIG    1        4.255  -1.367  -1.345  0.00  0.00    -0.510 OA
BRANCH  17  20
ATOM     20  C   LIG    1        1.141  -2.855  -2.166  0.00  0.00    +0.250 C 
ATOM     21  C   LIG    1        1.555  -4.289  -2.555  0.00  0.00    +0.010 C 
ATOM     22  C   LIG    1        0.982  -4.476  -3.982  0.00  0.00    +0.010 C 
ATOM     23  C   LIG    1        1.204  -3.085  -4.625  0.00  0.00    +0.150 C 
ATOM     24  C   LIG    1        0.918  -2.089  -3.482  0.00  0.00    +0.030 C 
BRANCH  23  25
ATOM     25  O   LIG    1        0.292  -2.882  -5.706  0.00  0.00    -0.560 OA
ATOM     26  H   LIG    1        0.427  -3.481  -6.453  0.00  0.00    +0.380 HD
ENDBRANCH  23  25
ENDBRANCH  17  20
BRANCH  18  27
ATOM     27  C   LIG    1        3.669  -2.420  -3.374  0.00  0.00    +0.170 C 
ATOM     28 CL   LIG    1        5.395  -2.105  -3.789  0.00  0.00    -0.140 Cl
ENDBRANCH  18  27
ENDBRANCH  16  17
ENDBRANCH   4  16
TORSDOF 6
