REMARK  Name = ZINCvU00000007mK.0
REMARK                            x       y       z     vdW  Elec       q    Type
REMARK                         _______ _______ _______ _____ _____    ______ ____
ROOT
ATOM      1  C   LIG    1        3.222   1.375   0.442  0.00  0.00    +0.140 A 
ATOM      2  C   LIG    1        4.397   0.688   0.210  0.00  0.00    -0.020 A 
ATOM      3  C   LIG    1        4.388  -0.712   0.161  0.00  0.00    -0.050 A 
ATOM      4  C   LIG    1        3.187  -1.407   0.353  0.00  0.00    +0.020 A 
ATOM      5  C   LIG    1        2.021  -0.714   0.589  0.00  0.00    +0.070 A 
ATOM      6  C   LIG    1        2.031   0.674   0.637  0.00  0.00    +0.070 A 
ENDROOT
BRANCH   3   7
ATOM      7  C   LIG    1        5.631  -1.448  -0.091  0.00  0.00    +0.220 C 
ATOM      8  C   LIG    1        5.607  -2.599  -0.824  0.00  0.00    -0.010 C 
BRANCH   8   9
ATOM      9  C   LIG    1        6.822  -3.426  -0.939  0.00  0.00    +0.160 A 
ATOM     10  N   LIG    1        7.958  -3.148  -0.390  0.00  0.00    -0.450 NA
ATOM     11  C   LIG    1        8.976  -4.004  -0.582  0.00  0.00    +0.080 A 
ATOM     12  C   LIG    1       10.299  -3.931  -0.093  0.00  0.00    +0.080 A 
ATOM     13  C   LIG    1       11.205  -4.899  -0.400  0.00  0.00    +0.030 A 
ATOM     14  C   LIG    1       10.849  -5.977  -1.199  0.00  0.00    +0.050 A 
ATOM     15  C   LIG    1        9.567  -6.077  -1.690  0.00  0.00    +0.060 A 
ATOM     16  C   LIG    1        8.625  -5.095  -1.387  0.00  0.00    -0.170 A 
ATOM     17  S   LIG    1        6.933  -4.927  -1.847  0.00  0.00    +0.090 S 
ENDBRANCH   8   9
BRANCH   8  18
ATOM     18  C   LIG    1        4.401  -3.003  -1.482  0.00  0.00    +0.240 C 
ATOM     19  N   LIG    1        3.444  -3.323  -2.004  0.00  0.00    -0.380 NA
ENDBRANCH   8  18
ENDBRANCH   3   7
BRANCH   1  20
ATOM     20  O   LIG    1        3.226   2.734   0.485  0.00  0.00    -0.300 OA
BRANCH  20  22
ATOM     21  C   LIG    1        4.288   4.901   0.361  0.00  0.00    +0.070 C 
ATOM     22  C   LIG    1        4.481   3.386   0.277  0.00  0.00    +0.190 C 
ENDBRANCH  20  22
ENDBRANCH   1  20
BRANCH   6  23
ATOM     23  O   LIG    1        0.878   1.352   0.870  0.00  0.00    -0.280 OA
BRANCH  23  24
ATOM     24  C   LIG    1        0.276   1.919  -0.194  0.00  0.00    +0.510 C 
ATOM     25  O   LIG    1        0.814   1.890  -1.283  0.00  0.00    -0.480 OA
BRANCH  24  26
ATOM     26  C   LIG    1       -1.035   2.581  -0.035  0.00  0.00    -0.120 A 
ATOM     27  C   LIG    1       -1.659   2.611   1.214  0.00  0.00    +0.080 A 
ATOM     28  C   LIG    1       -2.880   3.236   1.356  0.00  0.00    +0.000 A 
ATOM     29  C   LIG    1       -3.492   3.822   0.262  0.00  0.00    +0.050 A 
ATOM     30  C   LIG    1       -2.882   3.791  -0.980  0.00  0.00    +0.000 A 
ATOM     31  C   LIG    1       -1.658   3.175  -1.135  0.00  0.00    +0.090 A 
ENDBRANCH  24  26
ENDBRANCH  23  24
ENDBRANCH   6  23
TORSDOF 8
