REMARK  Name = ZINCrD000006V4l7.0
REMARK                            x       y       z     vdW  Elec       q    Type
REMARK                         _______ _______ _______ _____ _____    ______ ____
ROOT
ATOM      1  C   LIG    1       -3.116   3.151  -4.620  0.00  0.00    -0.060 A 
ATOM      2  C   LIG    1       -3.365   4.517  -4.774  0.00  0.00    +0.050 A 
ATOM      3  C   LIG    1       -2.862   5.419  -3.864  0.00  0.00    +0.100 A 
ATOM      4  C   LIG    1       -2.101   4.972  -2.781  0.00  0.00    -0.140 A 
ATOM      5  C   LIG    1       -1.849   3.601  -2.623  0.00  0.00    +0.210 A 
ATOM      6  C   LIG    1       -2.353   2.696  -3.546  0.00  0.00    +0.080 A 
ENDROOT
BRANCH   5   7
ATOM      7  N   LIG    1       -1.091   3.150  -1.546  0.00  0.00    -0.660 N 
ATOM      8  H   LIG    1       -1.046   3.674  -0.731  0.00  0.00    +0.430 HD
ATOM      9  C   LIG    1       -0.419   1.985  -1.635  0.00  0.00    +0.520 C 
ATOM     10  O   LIG    1       -0.390   1.380  -2.686  0.00  0.00    -0.480 OA
BRANCH   9  11
ATOM     11  C   LIG    1        0.297   1.433  -0.429  0.00  0.00    +0.180 C 
ATOM     12  C   LIG    1        1.355   2.435   0.038  0.00  0.00    +0.070 C 
BRANCH  11  13
ATOM     13  O   LIG    1        0.929   0.199  -0.774  0.00  0.00    -0.270 OA
BRANCH  13  14
ATOM     14  C   LIG    1        1.167  -0.676   0.239  0.00  0.00    +0.140 A 
ATOM     15  C   LIG    1        0.711  -0.399   1.518  0.00  0.00    -0.060 A 
ATOM     16  C   LIG    1        0.948  -1.293   2.545  0.00  0.00    +0.060 A 
ATOM     17  C   LIG    1        1.650  -2.458   2.300  0.00  0.00    +0.000 A 
ATOM     18  C   LIG    1        2.111  -2.736   1.026  0.00  0.00    +0.070 A 
ATOM     19  C   LIG    1        1.871  -1.848  -0.006  0.00  0.00    -0.070 A 
ATOM     20 CL   LIG    1        2.450  -2.196  -1.605  0.00  0.00    -0.050 Cl
ENDBRANCH  13  14
ENDBRANCH  11  13
ENDBRANCH   9  11
ENDBRANCH   5   7
BRANCH   1  21
ATOM     21  C   LIG    1       -3.659   2.185  -5.601  0.00  0.00    +0.500 C 
ATOM     22  O   LIG    1       -3.443   0.998  -5.468  0.00  0.00    -0.490 OA
BRANCH  21  24
ATOM     23  C   LIG    1       -4.893   1.621  -7.565  0.00  0.00    +0.290 C 
ATOM     24  O   LIG    1       -4.392   2.624  -6.642  0.00  0.00    -0.350 OA
ENDBRANCH  21  24
ENDBRANCH   1  21
BRANCH   4  25
ATOM     25  C   LIG    1       -1.563   5.940  -1.806  0.00  0.00    +0.520 C 
ATOM     26  O   LIG    1       -0.821   5.561  -0.921  0.00  0.00    -0.510 OA
BRANCH  25  27
ATOM     27  O   LIG    1       -1.893   7.243  -1.897  0.00  0.00    -0.350 OA
ATOM     28  C   LIG    1       -1.326   8.137  -0.904  0.00  0.00    +0.290 C 
ENDBRANCH  25  27
ENDBRANCH   4  25
TORSDOF 8
