REMARK  Name = ZINCzw00000004Md.2
REMARK                            x       y       z     vdW  Elec       q    Type
REMARK                         _______ _______ _______ _____ _____    ______ ____
ROOT
ATOM      1  C   LIG    1        4.619  -0.503  -0.085  0.00  0.00    +0.290 C 
ENDROOT
BRANCH   1   2
ATOM      2  N   LIG    1        3.671   0.613  -0.051  0.00  0.00    -0.700 N 
ATOM      3  H   LIG    1        3.997   1.526  -0.040  0.00  0.00    +0.410 HD
ATOM      4  C   LIG    1        2.345   0.371  -0.037  0.00  0.00    +0.510 C 
ATOM      5  O   LIG    1        1.937  -0.771  -0.051  0.00  0.00    -0.510 OA
BRANCH   4   6
ATOM      6  C   LIG    1        1.370   1.520  -0.003  0.00  0.00    +0.170 C 
ATOM      7  C   LIG    1        1.562   2.338   1.291  0.00  0.00    +0.100 C 
ATOM      8  C   LIG    1        0.466   1.770   2.230  0.00  0.00    +0.090 C 
ATOM      9  C   LIG    1       -0.684   1.487   1.233  0.00  0.00    +0.270 C 
ATOM     10  N   LIG    1       -0.012   1.005   0.008  0.00  0.00    -0.380 N 
ATOM     11  H   LIG    1        0.002  -0.004   0.002  0.00  0.00    +0.430 HD
BRANCH  10  12
ATOM     12  C   LIG    1       -0.732   1.497  -1.175  0.00  0.00    +0.330 C 
BRANCH  12  13
ATOM     13  C   LIG    1       -2.099   0.866  -1.229  0.00  0.00    -0.160 A 
ATOM     14  C   LIG    1       -2.284  -0.326  -1.905  0.00  0.00    +0.060 A 
ATOM     15  C   LIG    1       -3.536  -0.908  -1.952  0.00  0.00    +0.040 A 
ATOM     16  C   LIG    1       -4.608  -0.292  -1.330  0.00  0.00    -0.010 A 
ATOM     17  C   LIG    1       -4.424   0.903  -0.657  0.00  0.00    +0.040 A 
ATOM     18 CL   LIG    1       -6.183  -1.018  -1.394  0.00  0.00    -0.040 Cl
ATOM     19  C   LIG    1       -3.169   1.481  -0.607  0.00  0.00    +0.060 A 
ENDBRANCH  12  13
ENDBRANCH  10  12
ENDBRANCH   4   6
ENDBRANCH   1   2
BRANCH   1  20
ATOM     20  C   LIG    1        6.048   0.042  -0.095  0.00  0.00    +0.340 C 
BRANCH  20  23
ATOM     21  C   LIG    1        8.606  -2.404  -0.700  0.00  0.00    -0.020 A 
ATOM     22  C   LIG    1        7.973  -1.259  -1.047  0.00  0.00    +0.190 A 
ATOM     23  N   LIG    1        6.996  -1.075  -0.128  0.00  0.00    -0.300 N 
ATOM     24  N   LIG    1        7.040  -2.052   0.708  0.00  0.00    -0.070 NA
ATOM     25  N   LIG    1        7.989  -2.862   0.395  0.00  0.00    -0.240 NA
BRANCH  21  26
ATOM     26  C   LIG    1        9.773  -3.040  -1.411  0.00  0.00    +0.330 C 
BRANCH  26  27
ATOM     27  O   LIG    1       10.137  -2.241  -2.538  0.00  0.00    -0.310 OA
BRANCH  27  32
ATOM     28  C   LIG    1       12.648  -2.396  -5.166  0.00  0.00    -0.620 A 
ATOM     29  C   LIG    1       13.302  -3.566  -4.828  0.00  0.00    +0.090 A 
ATOM     30  C   LIG    1       12.897  -4.293  -3.724  0.00  0.00    +0.040 A 
ATOM     31  C   LIG    1       11.842  -3.848  -2.951  0.00  0.00    -0.010 A 
ATOM     32  C   LIG    1       11.180  -2.677  -3.292  0.00  0.00    +0.110 A 
ATOM     33  C   LIG    1       11.588  -1.950  -4.401  0.00  0.00    +0.100 A 
BRANCH  28  35
ATOM     34  C   LIG    1       14.412  -0.323  -5.928  0.00  0.00    -0.250 C 
ATOM     35  S   LIG    1       13.166  -1.472  -6.574  0.00  0.00    +2.500 S 
ATOM     36  O   LIG    1       12.001  -0.768  -6.981  0.00  0.00    -0.940 OA
ATOM     37  O   LIG    1       13.772  -2.438  -7.423  0.00  0.00    -0.930 OA
ENDBRANCH  28  35
ENDBRANCH  27  32
ENDBRANCH  26  27
ENDBRANCH  21  26
ENDBRANCH  20  23
ENDBRANCH   1  20
TORSDOF 10
