REMARK  Name = ZINCzw00000004Md.1
REMARK                            x       y       z     vdW  Elec       q    Type
REMARK                         _______ _______ _______ _____ _____    ______ ____
ROOT
ATOM      1  C   LIG    1        1.396  -0.570  -0.283  0.00  0.00    +0.290 C 
ENDROOT
BRANCH   1   2
ATOM      2  N   LIG    1        0.097   0.106  -0.248  0.00  0.00    -0.710 N 
ATOM      3  H   LIG    1       -0.719  -0.403  -0.374  0.00  0.00    +0.410 HD
ATOM      4  C   LIG    1        0.035   1.437  -0.041  0.00  0.00    +0.510 C 
ATOM      5  O   LIG    1        1.055   2.074   0.117  0.00  0.00    -0.500 OA
BRANCH   4   6
ATOM      6  C   LIG    1       -1.301   2.134  -0.011  0.00  0.00    +0.170 C 
ATOM      7  C   LIG    1       -1.381   3.163  -1.157  0.00  0.00    +0.100 C 
ATOM      8  C   LIG    1       -2.140   4.351  -0.508  0.00  0.00    +0.080 C 
ATOM      9  C   LIG    1       -1.596   4.314   0.942  0.00  0.00    +0.270 C 
ATOM     10  N   LIG    1       -1.451   2.876   1.254  0.00  0.00    -0.380 N 
ATOM     11  H   LIG    1       -2.271   2.551   1.744  0.00  0.00    +0.430 HD
BRANCH  10  12
ATOM     12  C   LIG    1       -0.262   2.670   2.093  0.00  0.00    +0.330 C 
BRANCH  12  13
ATOM     13  C   LIG    1       -0.492   3.283   3.450  0.00  0.00    -0.160 A 
ATOM     14  C   LIG    1       -0.137   4.599   3.683  0.00  0.00    +0.060 A 
ATOM     15  C   LIG    1       -0.352   5.163   4.926  0.00  0.00    +0.040 A 
ATOM     16  C   LIG    1       -0.913   4.408   5.941  0.00  0.00    -0.010 A 
ATOM     17  C   LIG    1       -1.264   3.090   5.708  0.00  0.00    +0.040 A 
ATOM     18 CL   LIG    1       -1.176   5.114   7.505  0.00  0.00    -0.040 Cl
ATOM     19  C   LIG    1       -1.053   2.528   4.463  0.00  0.00    +0.060 A 
ENDBRANCH  12  13
ENDBRANCH  10  12
ENDBRANCH   4   6
ENDBRANCH   1   2
BRANCH   1  20
ATOM     20  C   LIG    1        1.185  -2.065  -0.532  0.00  0.00    +0.340 C 
BRANCH  20  23
ATOM     21  C   LIG    1        4.120  -4.099  -0.159  0.00  0.00    -0.020 A 
ATOM     22  C   LIG    1        2.849  -3.797   0.197  0.00  0.00    +0.180 A 
ATOM     23  N   LIG    1        2.484  -2.742  -0.567  0.00  0.00    -0.300 N 
ATOM     24  N   LIG    1        3.473  -2.438  -1.333  0.00  0.00    -0.070 NA
ATOM     25  N   LIG    1        4.465  -3.225  -1.111  0.00  0.00    -0.240 NA
BRANCH  21  26
ATOM     26  C   LIG    1        4.977  -5.203   0.406  0.00  0.00    +0.330 C 
BRANCH  26  27
ATOM     27  O   LIG    1        4.241  -5.913   1.404  0.00  0.00    -0.310 OA
BRANCH  27  32
ATOM     28  C   LIG    1        4.865  -8.732   3.618  0.00  0.00    -0.620 A 
ATOM     29  C   LIG    1        6.163  -9.053   3.266  0.00  0.00    +0.090 A 
ATOM     30  C   LIG    1        6.818  -8.323   2.291  0.00  0.00    +0.040 A 
ATOM     31  C   LIG    1        6.175  -7.276   1.661  0.00  0.00    -0.010 A 
ATOM     32  C   LIG    1        4.874  -6.948   2.017  0.00  0.00    +0.110 A 
ATOM     33  C   LIG    1        4.219  -7.681   2.996  0.00  0.00    +0.090 A 
BRANCH  28  35
ATOM     34  C   LIG    1        3.215 -11.003   3.950  0.00  0.00    -0.250 C 
ATOM     35  S   LIG    1        4.034  -9.665   4.861  0.00  0.00    +2.500 S 
ATOM     36  O   LIG    1        3.073  -8.762   5.392  0.00  0.00    -0.940 OA
ATOM     37  O   LIG    1        5.081 -10.180   5.671  0.00  0.00    -0.930 OA
ENDBRANCH  28  35
ENDBRANCH  27  32
ENDBRANCH  26  27
ENDBRANCH  21  26
ENDBRANCH  20  23
ENDBRANCH   1  20
TORSDOF 10
