REMARK  Name = ZINCpk000000n58n.0
REMARK                            x       y       z     vdW  Elec       q    Type
REMARK                         _______ _______ _______ _____ _____    ______ ____
ROOT
ATOM      1  N   LIG    1        0.877   0.908   2.542  0.00  0.00    -0.740 N 
ATOM      2  H   LIG    1        1.217   0.670   3.419  0.00  0.00    +0.390 HD
ATOM      3  C   LIG    1       -0.228   1.672   2.434  0.00  0.00    +0.710 C 
ATOM      4  N   LIG    1       -0.916   2.023   3.538  0.00  0.00    -0.630 N 
ATOM      5  C   LIG    1       -2.180   2.764   3.429  0.00  0.00    +0.300 C 
ATOM      6  C   LIG    1       -2.096   4.021   4.292  0.00  0.00    +0.000 C 
ATOM      7  C   LIG    1       -1.717   3.632   5.722  0.00  0.00    +0.250 C 
ATOM      8  C   LIG    1       -0.346   2.952   5.721  0.00  0.00    +0.030 C 
ATOM      9  C   LIG    1       -0.413   1.677   4.875  0.00  0.00    +0.280 C 
ATOM     10  O   LIG    1       -0.604   2.046   1.339  0.00  0.00    -0.580 OA
ENDROOT
BRANCH   1  12
ATOM     11  C   LIG    1        2.025   1.639   0.510  0.00  0.00    +0.020 C 
ATOM     12  C   LIG    1        1.563   0.437   1.337  0.00  0.00    +0.180 C 
ATOM     13  C   LIG    1        2.777  -0.404   1.736  0.00  0.00    +0.040 C 
ATOM     14  C   LIG    1        0.604  -0.416   0.504  0.00  0.00    +0.030 C 
ENDBRANCH   1  12
BRANCH   7  15
ATOM     15  N   LIG    1       -1.665   4.834   6.558  0.00  0.00    -0.720 N 
ATOM     16  H   LIG    1       -0.820   5.287   6.705  0.00  0.00    +0.400 HD
ATOM     17  C   LIG    1       -2.792   5.311   7.122  0.00  0.00    +0.570 C 
ATOM     18  O   LIG    1       -3.852   4.744   6.938  0.00  0.00    -0.530 OA
BRANCH  17  19
ATOM     19  C   LIG    1       -2.740   6.523   7.964  0.00  0.00    -0.160 A 
ATOM     20  C   LIG    1       -3.882   7.006   8.536  0.00  0.00    +0.340 A 
ATOM     21  N   LIG    1       -3.843   8.120   9.312  0.00  0.00    -0.400 N 
ATOM     22  C   LIG    1       -4.790   8.819   9.998  0.00  0.00    +0.360 A 
ATOM     23  N   LIG    1       -4.190   9.823  10.582  0.00  0.00    -0.250 NA
ATOM     24  N   LIG    1       -2.932   9.808  10.316  0.00  0.00    -0.280 NA
ATOM     25  C   LIG    1       -2.657   8.778   9.535  0.00  0.00    +0.200 A 
ATOM     26  C   LIG    1       -1.465   8.296   8.954  0.00  0.00    +0.100 A 
ATOM     27  C   LIG    1       -1.503   7.181   8.183  0.00  0.00    +0.080 A 
ENDBRANCH  17  19
ENDBRANCH   7  15
TORSDOF 3
