REMARK  Name = ZINCfA000000bblQ.0
REMARK                            x       y       z     vdW  Elec       q    Type
REMARK                         _______ _______ _______ _____ _____    ______ ____
ROOT
ATOM      1  C   LIG    1       -1.427  -0.534   0.139  0.00  0.00    +0.000 C 
ATOM      2  C   LIG    1       -2.008  -0.188   1.528  0.00  0.00    +0.070 C 
ATOM      3  C   LIG    1       -2.803  -1.436   1.955  0.00  0.00    +0.260 C 
ATOM      4  N   LIG    1       -2.697  -2.415   0.851  0.00  0.00    -0.390 N 
ATOM      5  H   LIG    1       -3.487  -2.325   0.230  0.00  0.00    +0.420 HD
ATOM      6  C   LIG    1       -1.439  -2.084   0.134  0.00  0.00    +0.280 C 
ENDROOT
BRANCH   1   7
ATOM      7  C   LIG    1        0.002  -0.004   0.002  0.00  0.00    +0.050 C 
BRANCH   7   9
ATOM      8  C   LIG    1        1.417   2.055  -0.000  0.00  0.00    +0.030 C 
ATOM      9  C   LIG    1       -0.019   1.526   0.010  0.00  0.00    -0.030 C 
ATOM     10  C   LIG    1       -0.759   2.033  -1.229  0.00  0.00    +0.020 C 
ENDBRANCH   7   9
ENDBRANCH   1   7
BRANCH   4  11
ATOM     11  C   LIG    1       -2.629  -3.780   1.390  0.00  0.00    +0.370 C 
BRANCH  11  12
ATOM     12  C   LIG    1       -3.937  -4.125   2.054  0.00  0.00    -0.000 A 
ATOM     13  C   LIG    1       -4.918  -4.776   1.422  0.00  0.00    -0.050 A 
ATOM     14  S   LIG    1       -6.255  -4.972   2.554  0.00  0.00    +0.220 S 
ATOM     15  C   LIG    1       -5.364  -4.151   3.761  0.00  0.00    +0.240 A 
ATOM     16  N   LIG    1       -4.210  -3.803   3.302  0.00  0.00    -0.470 NA
ENDBRANCH  11  12
ENDBRANCH   4  11
TORSDOF 4
