REMARK  Name = ZINCfA000000bblQ.1
REMARK                            x       y       z     vdW  Elec       q    Type
REMARK                         _______ _______ _______ _____ _____    ______ ____
ROOT
ATOM      1  C   LIG    1       -4.599  -0.146   2.645  0.00  0.00    +0.010 C 
ATOM      2  C   LIG    1       -3.247  -0.044   3.387  0.00  0.00    +0.080 C 
ATOM      3  C   LIG    1       -2.267   0.383   2.264  0.00  0.00    +0.250 C 
ATOM      4  N   LIG    1       -3.079   1.316   1.441  0.00  0.00    -0.390 N 
ATOM      5  H   LIG    1       -3.108   2.226   1.875  0.00  0.00    +0.430 HD
ATOM      6  C   LIG    1       -4.437   0.732   1.389  0.00  0.00    +0.250 C 
ENDROOT
BRANCH   1   7
ATOM      7  C   LIG    1       -5.730   0.390   3.525  0.00  0.00    +0.030 C 
BRANCH   7   9
ATOM      8  C   LIG    1       -6.918   0.105   5.705  0.00  0.00    +0.030 C 
ATOM      9  C   LIG    1       -5.889  -0.509   4.753  0.00  0.00    -0.030 C 
ATOM     10  C   LIG    1       -6.364  -1.895   4.313  0.00  0.00    +0.010 C 
ENDBRANCH   7   9
ENDBRANCH   1   7
BRANCH   4  11
ATOM     11  C   LIG    1       -2.518   1.416   0.087  0.00  0.00    +0.370 C 
BRANCH  11  12
ATOM     12  C   LIG    1       -1.177   2.102   0.149  0.00  0.00    -0.000 A 
ATOM     13  C   LIG    1       -0.024   1.431   0.216  0.00  0.00    -0.050 A 
ATOM     14  S   LIG    1        1.287   2.607   0.262  0.00  0.00    +0.220 S 
ATOM     15  C   LIG    1        0.153   3.885   0.194  0.00  0.00    +0.240 A 
ATOM     16  N   LIG    1       -1.047   3.413   0.145  0.00  0.00    -0.470 NA
ENDBRANCH  11  12
ENDBRANCH   4  11
TORSDOF 4
