REMARK  Name = ZINCqH0000036KvM.1
REMARK                            x       y       z     vdW  Elec       q    Type
REMARK                         _______ _______ _______ _____ _____    ______ ____
ROOT
ATOM      1  C   LIG    1       -2.830   2.533   2.272  0.00  0.00    -0.040 A 
ATOM      2  C   LIG    1       -3.231   1.629   3.238  0.00  0.00    +0.000 A 
ATOM      3  C   LIG    1       -3.842   2.075   4.396  0.00  0.00    +0.050 A 
ATOM      4  C   LIG    1       -4.061   3.426   4.585  0.00  0.00    -0.080 A 
ATOM      5  C   LIG    1       -3.664   4.335   3.616  0.00  0.00    +0.130 A 
ATOM      6  C   LIG    1       -3.047   3.885   2.458  0.00  0.00    -0.020 A 
ENDROOT
BRANCH   1   7
ATOM      7  C   LIG    1       -2.160   2.044   1.014  0.00  0.00    +0.230 C 
BRANCH   7   8
ATOM      8  N   LIG    1       -0.706   2.000   1.219  0.00  0.00    -0.680 NA
ATOM      9  H   LIG    1       -0.354   2.900   1.506  0.00  0.00    +0.350 HD
BRANCH   8  11
ATOM     10  C   LIG    1        0.002  -0.004   0.002  0.00  0.00    +0.030 C 
ATOM     11  C   LIG    1       -0.019   1.526   0.010  0.00  0.00    +0.220 C 
BRANCH  11  12
ATOM     12  C   LIG    1        1.395   2.047  -0.000  0.00  0.00    -0.240 A 
ATOM     13  C   LIG    1        2.066   2.507  -1.082  0.00  0.00    +0.230 A 
ATOM     14  N   LIG    1        3.297   2.879  -0.674  0.00  0.00    -0.380 N 
ATOM     15  N   LIG    1        3.386   2.640   0.703  0.00  0.00    -0.300 NA
ATOM     16  C   LIG    1        4.355   3.434  -1.523  0.00  0.00    +0.360 C 
ATOM     17  C   LIG    1        2.244   2.148   1.107  0.00  0.00    +0.260 A 
ENDBRANCH  11  12
ENDBRANCH   8  11
ENDBRANCH   7   8
ENDBRANCH   1   7
BRANCH   5  18
ATOM     18  O   LIG    1       -3.880   5.664   3.800  0.00  0.00    -0.310 OA
BRANCH  18  19
ATOM     19  C   LIG    1       -4.520   6.055   5.016  0.00  0.00    +0.250 C 
BRANCH  19  20
ATOM     20  C   LIG    1       -4.673   7.554   5.044  0.00  0.00    -0.100 A 
ATOM     21  C   LIG    1       -3.676   8.340   5.593  0.00  0.00    +0.070 A 
ATOM     22  C   LIG    1       -3.807   9.717   5.618  0.00  0.00    +0.020 A 
ATOM     23  C   LIG    1       -4.938  10.315   5.104  0.00  0.00    +0.080 A 
ATOM     24  C   LIG    1       -5.951   9.528   4.553  0.00  0.00    -0.030 A 
ATOM     25  C   LIG    1       -5.811   8.139   4.526  0.00  0.00    +0.090 A 
BRANCH  24  26
ATOM     26  C   LIG    1       -7.129  10.142   4.018  0.00  0.00    +0.250 C 
ATOM     27  N   LIG    1       -8.064  10.629   3.594  0.00  0.00    -0.410 NA
ENDBRANCH  24  26
ENDBRANCH  19  20
ENDBRANCH  18  19
ENDBRANCH   5  18
TORSDOF 8
