REMARK  Name = ZINCpk00000KfKIw.0
REMARK                            x       y       z     vdW  Elec       q    Type
REMARK                         _______ _______ _______ _____ _____    ______ ____
ROOT
ATOM      1  O   LIG    1       -1.542   2.132  -3.753  0.00  0.00    -0.590 OA
ATOM      2  C   LIG    1       -0.543   1.446  -3.655  0.00  0.00    +0.700 C 
ATOM      3  N   LIG    1        0.087   1.011  -4.764  0.00  0.00    -0.750 N 
ATOM      4  H   LIG    1        0.884   0.464  -4.685  0.00  0.00    +0.400 HD
ATOM      5  N   LIG    1       -0.067   1.120  -2.437  0.00  0.00    -0.750 N 
ATOM      6  H   LIG    1        0.730   0.573  -2.358  0.00  0.00    +0.400 HD
ENDROOT
BRANCH   3   7
ATOM      7  C   LIG    1       -0.431   1.366  -6.087  0.00  0.00    +0.280 C 
BRANCH   7   8
ATOM      8  C   LIG    1        0.463   0.750  -7.166  0.00  0.00    +0.070 C 
BRANCH   8   9
ATOM      9  C   LIG    1       -0.070   1.115  -8.528  0.00  0.00    -0.080 A 
ATOM     10  C   LIG    1       -0.988   0.292  -9.154  0.00  0.00    +0.010 A 
ATOM     11  C   LIG    1       -1.480   0.629 -10.401  0.00  0.00    +0.000 A 
ATOM     12  C   LIG    1       -1.046   1.783 -11.027  0.00  0.00    +0.000 A 
ATOM     13  C   LIG    1       -0.125   2.603 -10.403  0.00  0.00    +0.000 A 
ATOM     14  C   LIG    1        0.364   2.269  -9.154  0.00  0.00    +0.010 A 
ENDBRANCH   8   9
ENDBRANCH   7   8
ENDBRANCH   3   7
BRANCH   5  15
ATOM     15  C   LIG    1       -0.753   1.593  -1.232  0.00  0.00    +0.280 C 
BRANCH  15  16
ATOM     16  C   LIG    1       -0.013   1.086   0.008  0.00  0.00    +0.010 C 
BRANCH  16  17
ATOM     17  C   LIG    1       -0.729   1.579   1.267  0.00  0.00    +0.370 C 
BRANCH  17  18
ATOM     18  N   LIG    1       -0.020   1.094   2.454  0.00  0.00    -0.430 N 
ATOM     19  N   LIG    1       -0.264  -0.110   3.129  0.00  0.00    -0.290 NA
ATOM     20  C   LIG    1        0.576  -0.185   4.135  0.00  0.00    +0.300 A 
ATOM     21  C   LIG    1        0.774  -1.171   5.134  0.00  0.00    +0.040 A 
ATOM     22  C   LIG    1        1.731  -0.980   6.075  0.00  0.00    +0.110 A 
ATOM     23  C   LIG    1        2.515   0.191   6.051  0.00  0.00    -0.020 A 
ATOM     24  C   LIG    1        2.324   1.123   5.101  0.00  0.00    +0.300 A 
ATOM     25  N   LIG    1        1.360   0.954   4.135  0.00  0.00    -0.480 N 
ATOM     26  C   LIG    1        0.981   1.727   3.098  0.00  0.00    +0.640 A 
ATOM     27  O   LIG    1        1.459   2.807   2.796  0.00  0.00    -0.540 OA
ENDBRANCH  17  18
ENDBRANCH  16  17
ENDBRANCH  15  16
ENDBRANCH   5  15
TORSDOF 7
