REMARK  Name = ZINCpe000000Xhps.1
REMARK                            x       y       z     vdW  Elec       q    Type
REMARK                         _______ _______ _______ _____ _____    ______ ____
ROOT
ATOM      1  N   LIG    1        0.883  -0.549  -1.037  0.00  0.00    -0.730 N 
ATOM      2  H   LIG    1        1.068  -0.025  -1.831  0.00  0.00    +0.400 HD
ATOM      3  C   LIG    1        0.322   0.035   0.041  0.00  0.00    +0.510 C 
ATOM      4  O   LIG    1        0.090  -0.621   1.034  0.00  0.00    -0.510 OA
ENDROOT
BRANCH   1   6
ATOM      5  C   LIG    1       -0.022  -2.794  -1.391  0.00  0.00    +0.040 C 
ATOM      6  C   LIG    1        1.213  -1.976  -1.007  0.00  0.00    +0.290 C 
BRANCH   6   7
ATOM      7  C   LIG    1        2.324  -2.255  -1.987  0.00  0.00    -0.090 A 
ATOM      8  C   LIG    1        2.332  -1.626  -3.218  0.00  0.00    +0.020 A 
ATOM      9  C   LIG    1        3.349  -1.880  -4.120  0.00  0.00    +0.030 A 
ATOM     10  C   LIG    1        4.364  -2.766  -3.791  0.00  0.00    +0.050 A 
ATOM     11  O   LIG    1        5.356  -3.009  -4.691  0.00  0.00    -0.310 OA
ATOM     12  C   LIG    1        6.550  -3.614  -4.184  0.00  0.00    +0.220 C 
ATOM     13  C   LIG    1        6.148  -4.783  -3.274  0.00  0.00    +0.220 C 
ATOM     14  O   LIG    1        5.346  -4.265  -2.207  0.00  0.00    -0.310 OA
ATOM     15  C   LIG    1        4.357  -3.396  -2.552  0.00  0.00    +0.060 A 
ATOM     16  C   LIG    1        3.336  -3.134  -1.651  0.00  0.00    +0.040 A 
ENDBRANCH   6   7
ENDBRANCH   1   6
BRANCH   3  17
ATOM     17  C   LIG    1       -0.018   1.503   0.010  0.00  0.00    +0.210 C 
BRANCH  17  18
ATOM     18  N   LIG    1       -0.749   1.861   1.233  0.00  0.00    -0.520 NA
ATOM     19  C   LIG    1       -0.878   3.319   1.361  0.00  0.00    +0.180 C 
ATOM     20  C   LIG    1       -1.513   3.659   2.711  0.00  0.00    +0.040 C 
ATOM     21  C   LIG    1       -2.890   2.996   2.804  0.00  0.00    -0.020 C 
ATOM     22  C   LIG    1       -2.733   1.484   2.620  0.00  0.00    +0.060 C 
ATOM     23  C   LIG    1       -2.063   1.207   1.272  0.00  0.00    +0.170 C 
BRANCH  21  24
ATOM     24  C   LIG    1       -3.496   3.279   4.155  0.00  0.00    +0.520 C 
ATOM     25  O   LIG    1       -3.775   2.362   4.898  0.00  0.00    -0.540 OA
ATOM     26  N   LIG    1       -3.727   4.550   4.537  0.00  0.00    -0.860 N 
ATOM     27  H   LIG    1       -4.117   4.732   5.406  0.00  0.00    +0.400 HD
ATOM     28  H   LIG    1       -3.503   5.284   3.943  0.00  0.00    +0.400 HD
ENDBRANCH  21  24
ENDBRANCH  17  18
ENDBRANCH   3  17
TORSDOF 5
