REMARK  Name = ZINCAx0000000hQX.0
REMARK                            x       y       z     vdW  Elec       q    Type
REMARK                         _______ _______ _______ _____ _____    ______ ____
ROOT
ATOM      1  O   LIG    1        6.914   9.686   1.886  0.00  0.00    -0.510 OA
ATOM      2  C   LIG    1        5.968   9.695   1.127  0.00  0.00    +0.510 C 
ATOM      3  N   LIG    1        4.960   8.817   1.296  0.00  0.00    -0.690 N 
ATOM      4  H   LIG    1        4.203   8.824   0.689  0.00  0.00    +0.420 HD
ENDROOT
BRANCH   2   5
ATOM      5  C   LIG    1        5.920  10.680   0.005  0.00  0.00    +0.510 C 
ATOM      6  N   LIG    1        6.928  11.559  -0.164  0.00  0.00    -0.640 N 
ATOM      7  H   LIG    1        7.715  11.508   0.401  0.00  0.00    +0.430 HD
ATOM      8  O   LIG    1        4.973  10.689  -0.755  0.00  0.00    -0.500 OA
BRANCH   6   9
ATOM      9  C   LIG    1        6.839  12.543  -1.153  0.00  0.00    +0.070 A 
ATOM     10  C   LIG    1        6.201  12.273  -2.363  0.00  0.00    +0.120 A 
ATOM     11  C   LIG    1        6.133  13.278  -3.310  0.00  0.00    -0.020 A 
ATOM     12  C   LIG    1        6.708  14.512  -3.031  0.00  0.00    +0.350 A 
ATOM     13  N   LIG    1        7.310  14.733  -1.874  0.00  0.00    -0.480 NA
ATOM     14  C   LIG    1        7.389  13.801  -0.945  0.00  0.00    +0.300 A 
BRANCH  12  15
ATOM     15  N   LIG    1        6.649  15.533  -3.985  0.00  0.00    -0.440 N 
ATOM     16  C   LIG    1        6.072  15.456  -5.217  0.00  0.00    +0.490 A 
ATOM     17  N   LIG    1        6.197  16.591  -5.841  0.00  0.00    -0.470 NA
ATOM     18  C   LIG    1        6.870  17.472  -5.057  0.00  0.00    +0.040 A 
ATOM     19  C   LIG    1        7.275  18.798  -5.228  0.00  0.00    +0.060 A 
ATOM     20  C   LIG    1        7.962  19.439  -4.222  0.00  0.00    +0.010 A 
ATOM     21  C   LIG    1        8.255  18.778  -3.038  0.00  0.00    +0.030 A 
ATOM     22  C   LIG    1        7.862  17.469  -2.852  0.00  0.00    +0.050 A 
ATOM     23  C   LIG    1        7.170  16.807  -3.855  0.00  0.00    +0.060 A 
ENDBRANCH  12  15
ENDBRANCH   6   9
ENDBRANCH   2   5
BRANCH   3  24
ATOM     24  C   LIG    1        5.006   7.851   2.396  0.00  0.00    +0.340 C 
BRANCH  24  25
ATOM     25  C   LIG    1        3.769   6.991   2.363  0.00  0.00    -0.100 A 
ATOM     26  C   LIG    1        2.639   7.380   3.058  0.00  0.00    +0.020 A 
ATOM     27  C   LIG    1        1.502   6.594   3.030  0.00  0.00    +0.030 A 
ATOM     28  C   LIG    1        1.490   5.420   2.302  0.00  0.00    +0.030 A 
ATOM     29  C   LIG    1        2.625   5.024   1.607  0.00  0.00    +0.150 A 
ATOM     30  C   LIG    1        3.765   5.816   1.637  0.00  0.00    +0.010 A 
BRANCH  29  31
ATOM     31  N   LIG    1        2.618   3.833   0.873  0.00  0.00    -0.670 N 
ATOM     32  H   LIG    1        3.130   3.765   0.052  0.00  0.00    +0.410 HD
ATOM     33  C   LIG    1        1.899   2.778   1.307  0.00  0.00    +0.510 C 
ATOM     34  O   LIG    1        1.333   2.830   2.378  0.00  0.00    -0.490 OA
BRANCH  33  35
ATOM     35  C   LIG    1        1.798   1.536   0.460  0.00  0.00    +0.170 C 
ATOM     36  C   LIG    1        3.174   0.827   0.379  0.00  0.00    +0.030 C 
ATOM     37  C   LIG    1        2.736  -0.632   0.077  0.00  0.00    +0.020 C 
ATOM     38  C   LIG    1        1.413  -0.747   0.864  0.00  0.00    +0.210 C 
ATOM     39  O   LIG    1        0.920   0.581   1.079  0.00  0.00    -0.350 OA
ENDBRANCH  33  35
ENDBRANCH  29  31
ENDBRANCH  24  25
ENDBRANCH   3  24
TORSDOF 7
