REMARK  Name = ZINCqH0000000fgL.0
REMARK                            x       y       z     vdW  Elec       q    Type
REMARK                         _______ _______ _______ _____ _____    ______ ____
ROOT
ATOM      1  N   LIG    1        1.356   2.010  -0.000  0.00  0.00    -0.600 N 
ATOM      2  C   LIG    1        1.977   2.249  -1.172  0.00  0.00    +0.500 C 
ATOM      3  O   LIG    1        1.398   2.045  -2.218  0.00  0.00    -0.510 OA
ENDROOT
BRANCH   1   4
ATOM      4  C   LIG    1        2.055   2.257   1.263  0.00  0.00    +0.310 C 
BRANCH   4   6
ATOM      5  C   LIG    1        4.073   1.054   1.928  0.00  0.00    +0.030 C 
ATOM      6  C   LIG    1        2.787   1.008   1.685  0.00  0.00    -0.070 C 
ENDBRANCH   4   6
ENDBRANCH   1   4
BRANCH   2   7
ATOM      7  C   LIG    1        3.391   2.771  -1.183  0.00  0.00    +0.330 C 
BRANCH   7   8
ATOM      8  N   LIG    1        3.836   2.947  -2.567  0.00  0.00    -0.540 N 
ATOM      9  C   LIG    1        4.452   1.940  -3.223  0.00  0.00    +0.500 C 
ATOM     10  C   LIG    1        4.933   2.151  -4.636  0.00  0.00    +0.180 C 
ATOM     11  O   LIG    1        4.080   3.086  -5.302  0.00  0.00    -0.300 OA
ATOM     12  C   LIG    1        3.761   4.217  -4.618  0.00  0.00    +0.090 A 
ATOM     13  C   LIG    1        3.563   5.413  -5.284  0.00  0.00    +0.030 A 
ATOM     14  C   LIG    1        3.241   6.555  -4.571  0.00  0.00    +0.030 A 
ATOM     15  C   LIG    1        3.116   6.504  -3.196  0.00  0.00    +0.020 A 
ATOM     16  C   LIG    1        3.311   5.312  -2.522  0.00  0.00    +0.000 A 
ATOM     17  C   LIG    1        4.913   0.819  -5.388  0.00  0.00    +0.100 C 
ATOM     18  O   LIG    1        4.614   0.868  -2.679  0.00  0.00    -0.500 OA
ATOM     19  C   LIG    1        3.634   4.167  -3.230  0.00  0.00    +0.100 A 
ENDBRANCH   7   8
ENDBRANCH   2   7
BRANCH   1  20
ATOM     20  C   LIG    1       -0.018   1.503   0.010  0.00  0.00    +0.390 C 
BRANCH  20  21
ATOM     21  C   LIG    1        0.002  -0.004   0.002  0.00  0.00    -0.200 A 
ATOM     22  C   LIG    1        0.028  -0.778   1.087  0.00  0.00    +0.030 A 
ATOM     23  C   LIG    1        0.039  -2.139   0.833  0.00  0.00    +0.020 A 
ATOM     24  C   LIG    1        0.031  -2.470  -0.460  0.00  0.00    -0.150 A 
ATOM     25 CL   LIG    1        0.048  -4.091  -1.079  0.00  0.00    -0.010 Cl
ATOM     26  S   LIG    1        0.003  -1.010  -1.441  0.00  0.00    +0.190 S 
ENDBRANCH  20  21
ENDBRANCH   1  20
TORSDOF 6
