REMARK  Name = ZINCqH0000006Ckl.0
REMARK                            x       y       z     vdW  Elec       q    Type
REMARK                         _______ _______ _______ _____ _____    ______ ____
ROOT
ATOM      1  N   LIG    1        3.996   1.850   0.170  0.00  0.00    -0.680 N 
ATOM      2  H   LIG    1        4.890   1.534   0.374  0.00  0.00    +0.410 HD
ATOM      3  C   LIG    1        3.788   3.152  -0.106  0.00  0.00    +0.710 C 
ATOM      4  N   LIG    1        4.836   3.993  -0.219  0.00  0.00    -0.630 N 
ATOM      5  C   LIG    1        6.217   3.491  -0.152  0.00  0.00    +0.290 C 
ATOM      6  C   LIG    1        6.983   4.026  -1.373  0.00  0.00    +0.200 C 
ATOM      7  N   LIG    1        6.856   5.489  -1.421  0.00  0.00    -0.480 N 
ATOM      8  C   LIG    1        5.458   5.896  -1.609  0.00  0.00    +0.190 C 
ATOM      9  C   LIG    1        4.629   5.437  -0.405  0.00  0.00    +0.320 C 
ATOM     10  O   LIG    1        2.656   3.570  -0.253  0.00  0.00    -0.560 OA
ENDROOT
BRANCH   1  15
ATOM     11  C   LIG    1        1.928  -1.110   0.881  0.00  0.00    +0.110 A 
ATOM     12  C   LIG    1        0.792  -0.819   0.139  0.00  0.00    -0.120 A 
ATOM     13  C   LIG    1        0.722   0.354  -0.589  0.00  0.00    +0.040 A 
ATOM     14  C   LIG    1        1.782   1.240  -0.580  0.00  0.00    +0.020 A 
ATOM     15  C   LIG    1        2.922   0.953   0.161  0.00  0.00    +0.170 A 
ATOM     16  C   LIG    1       -0.367  -1.782   0.127  0.00  0.00    +0.100 C 
ATOM     17  C   LIG    1        2.994  -0.224   0.892  0.00  0.00    -0.140 A 
ATOM     18  C   LIG    1        4.228  -0.539   1.697  0.00  0.00    +0.100 C 
BRANCH  11  20
ATOM     19  C   LIG    1        2.531  -3.409   0.931  0.00  0.00    +0.230 C 
ATOM     20  O   LIG    1        1.995  -2.264   1.596  0.00  0.00    -0.330 OA
ENDBRANCH  11  20
ENDBRANCH   1  15
BRANCH   7  21
ATOM     21  C   LIG    1        7.671   6.027  -2.413  0.00  0.00    +0.160 A 
ATOM     22  C   LIG    1        8.282   5.207  -3.361  0.00  0.00    -0.060 A 
ATOM     23  C   LIG    1        9.076   5.781  -4.332  0.00  0.00    +0.290 A 
ATOM     24  N   LIG    1        9.271   7.086  -4.363  0.00  0.00    -0.480 NA
ATOM     25  C   LIG    1        8.716   7.896  -3.481  0.00  0.00    +0.300 A 
ATOM     26  C   LIG    1        7.902   7.402  -2.482  0.00  0.00    -0.110 A 
ATOM     27 CL   LIG    1        7.177   8.476  -1.326  0.00  0.00    -0.040 Cl
ENDBRANCH   7  21
TORSDOF 3
