REMARK  Name = ZINCtj00000rnaRM.0
REMARK                            x       y       z     vdW  Elec       q    Type
REMARK                         _______ _______ _______ _____ _____    ______ ____
ROOT
ATOM      1  C   LIG    1        7.752   8.082  -1.955  0.00  0.00    +0.520 C 
ATOM      2  N   LIG    1        7.043   7.767  -0.853  0.00  0.00    -0.720 N 
ATOM      3  H   LIG    1        7.103   8.324  -0.061  0.00  0.00    +0.400 HD
ATOM      4  O   LIG    1        7.676   7.385  -2.945  0.00  0.00    -0.510 OA
ENDROOT
BRANCH   1   9
ATOM      5  C   LIG    1       12.139   9.446  -1.041  0.00  0.00    +0.330 C 
ATOM      6  N   LIG    1       10.841  10.049  -1.372  0.00  0.00    -0.390 N 
ATOM      7  C   LIG    1       10.716  10.185  -2.835  0.00  0.00    +0.270 C 
ATOM      8  C   LIG    1        9.472   9.378  -3.264  0.00  0.00    +0.090 C 
ATOM      9  C   LIG    1        8.639   9.300  -1.957  0.00  0.00    +0.000 C 
ATOM     10  C   LIG    1        9.750   9.179  -0.884  0.00  0.00    +0.280 C 
ATOM     11  H   LIG    1       10.769  10.959  -0.941  0.00  0.00    +0.430 HD
BRANCH   8  12
ATOM     12  C   LIG    1        8.709  10.108  -4.339  0.00  0.00    -0.100 A 
ATOM     13  C   LIG    1        8.308  11.415  -4.136  0.00  0.00    +0.000 A 
ATOM     14  C   LIG    1        7.611  12.085  -5.125  0.00  0.00    +0.020 A 
ATOM     15  C   LIG    1        7.309  11.446  -6.312  0.00  0.00    +0.030 A 
ATOM     16  C   LIG    1        7.706  10.137  -6.513  0.00  0.00    +0.020 A 
ATOM     17  C   LIG    1        8.405   9.468  -5.526  0.00  0.00    +0.040 A 
ENDBRANCH   8  12
ENDBRANCH   1   9
BRANCH   2  18
ATOM     18  C   LIG    1        6.180   6.582  -0.851  0.00  0.00    +0.240 C 
ATOM     19  C   LIG    1        5.995   6.089   0.586  0.00  0.00    +0.040 C 
ATOM     20  C   LIG    1        5.094   4.852   0.588  0.00  0.00    +0.030 C 
ATOM     21  C   LIG    1        3.732   5.213  -0.007  0.00  0.00    +0.230 C 
ATOM     22  C   LIG    1        3.917   5.706  -1.443  0.00  0.00    +0.020 C 
ATOM     23  C   LIG    1        4.817   6.943  -1.446  0.00  0.00    +0.010 C 
BRANCH  21  24
ATOM     24  N   LIG    1        2.869   4.028  -0.005  0.00  0.00    -0.710 N 
ATOM     25  H   LIG    1        3.263   3.142  -0.013  0.00  0.00    +0.410 HD
ATOM     26  C   LIG    1        1.529   4.171   0.009  0.00  0.00    +0.610 C 
ATOM     27  O   LIG    1        1.036   5.282   0.019  0.00  0.00    -0.520 OA
BRANCH  26  28
ATOM     28  C   LIG    1        0.659   2.976   0.011  0.00  0.00    -0.050 A 
ATOM     29  N   LIG    1        1.039   1.708   0.001  0.00  0.00    -0.250 NA
ATOM     30  N   LIG    1       -0.011   0.966   0.007  0.00  0.00    -0.230 N 
ATOM     31  H   LIG    1        0.002  -0.004   0.002  0.00  0.00    +0.480 HD
ATOM     32  N   LIG    1       -1.081   1.678   0.016  0.00  0.00    -0.280 NA
ATOM     33  C   LIG    1       -0.750   2.947   0.024  0.00  0.00    +0.250 A 
ENDBRANCH  26  28
ENDBRANCH  21  24
ENDBRANCH   2  18
TORSDOF 5
