REMARK  Name = ZINCtj00000rnaRM.1
REMARK                            x       y       z     vdW  Elec       q    Type
REMARK                         _______ _______ _______ _____ _____    ______ ____
ROOT
ATOM      1  C   LIG    1       -2.796   0.062   1.327  0.00  0.00    +0.510 C 
ATOM      2  N   LIG    1       -2.817  -0.177   2.653  0.00  0.00    -0.720 N 
ATOM      3  H   LIG    1       -2.477   0.488   3.272  0.00  0.00    +0.400 HD
ATOM      4  O   LIG    1       -3.221  -0.770   0.554  0.00  0.00    -0.510 OA
ENDROOT
BRANCH   1   9
ATOM      5  C   LIG    1        1.357   1.537  -0.003  0.00  0.00    +0.330 C 
ATOM      6  N   LIG    1       -0.012   1.005   0.008  0.00  0.00    -0.400 N 
ATOM      7  C   LIG    1       -0.778   1.520  -1.156  0.00  0.00    +0.280 C 
ATOM      8  C   LIG    1       -2.260   1.371  -0.738  0.00  0.00    +0.090 C 
ATOM      9  C   LIG    1       -2.244   1.363   0.805  0.00  0.00    +0.020 C 
ATOM     10  C   LIG    1       -0.756   1.508   1.191  0.00  0.00    +0.290 C 
ATOM     11  H   LIG    1        0.002  -0.004   0.002  0.00  0.00    +0.430 HD
BRANCH   8  12
ATOM     12  C   LIG    1       -3.069   2.537  -1.246  0.00  0.00    -0.100 A 
ATOM     13  C   LIG    1       -2.703   3.829  -0.917  0.00  0.00    +0.000 A 
ATOM     14  C   LIG    1       -3.442   4.898  -1.387  0.00  0.00    +0.020 A 
ATOM     15  C   LIG    1       -4.553   4.675  -2.179  0.00  0.00    +0.030 A 
ATOM     16  C   LIG    1       -4.923   3.383  -2.503  0.00  0.00    +0.020 A 
ATOM     17  C   LIG    1       -4.181   2.314  -2.037  0.00  0.00    +0.030 A 
ENDBRANCH   8  12
ENDBRANCH   1   9
BRANCH   2  18
ATOM     18  C   LIG    1       -3.354  -1.442   3.161  0.00  0.00    +0.240 C 
ATOM     19  C   LIG    1       -4.873  -1.330   3.306  0.00  0.00    +0.010 C 
ATOM     20  C   LIG    1       -5.433  -2.651   3.836  0.00  0.00    +0.020 C 
ATOM     21  C   LIG    1       -4.812  -2.958   5.201  0.00  0.00    +0.240 C 
ATOM     22  C   LIG    1       -3.293  -3.070   5.056  0.00  0.00    +0.020 C 
ATOM     23  C   LIG    1       -2.733  -1.748   4.526  0.00  0.00    +0.040 C 
BRANCH  21  24
ATOM     24  N   LIG    1       -5.349  -4.223   5.708  0.00  0.00    -0.730 N 
ATOM     25  H   LIG    1       -4.864  -5.049   5.561  0.00  0.00    +0.400 HD
ATOM     26  C   LIG    1       -6.517  -4.237   6.381  0.00  0.00    +0.600 C 
ATOM     27  O   LIG    1       -7.125  -3.201   6.566  0.00  0.00    -0.510 OA
BRANCH  26  28
ATOM     28  C   LIG    1       -7.056  -5.509   6.891  0.00  0.00    -0.080 A 
ATOM     29  C   LIG    1       -8.221  -5.694   7.589  0.00  0.00    +0.250 A 
ATOM     30  N   LIG    1       -8.304  -7.000   7.843  0.00  0.00    -0.260 NA
ATOM     31  N   LIG    1       -7.279  -7.597   7.349  0.00  0.00    -0.040 NA
ATOM     32  N   LIG    1       -6.502  -6.755   6.763  0.00  0.00    -0.380 N 
ATOM     33  H   LIG    1       -5.669  -6.965   6.312  0.00  0.00    +0.450 HD
ENDBRANCH  26  28
ENDBRANCH  21  24
ENDBRANCH   2  18
TORSDOF 5
