REMARK  Name = ZINCtj00000rnaRM.2
REMARK                            x       y       z     vdW  Elec       q    Type
REMARK                         _______ _______ _______ _____ _____    ______ ____
ROOT
ATOM      1  C   LIG    1       -3.949   0.860  -2.893  0.00  0.00    +0.520 C 
ATOM      2  N   LIG    1       -2.897   1.548  -2.408  0.00  0.00    -0.720 N 
ATOM      3  H   LIG    1       -2.608   2.365  -2.844  0.00  0.00    +0.400 HD
ATOM      4  O   LIG    1       -4.309  -0.161  -2.347  0.00  0.00    -0.500 OA
ENDROOT
BRANCH   1   9
ATOM      5  C   LIG    1       -3.977   0.515  -7.565  0.00  0.00    +0.330 C 
ATOM      6  N   LIG    1       -4.631   1.303  -6.511  0.00  0.00    -0.390 N 
ATOM      7  C   LIG    1       -5.874   0.632  -6.090  0.00  0.00    +0.270 C 
ATOM      8  C   LIG    1       -5.745   0.335  -4.581  0.00  0.00    +0.090 C 
ATOM      9  C   LIG    1       -4.678   1.359  -4.114  0.00  0.00    +0.000 C 
ATOM     10  C   LIG    1       -3.734   1.410  -5.341  0.00  0.00    +0.280 C 
ATOM     11  H   LIG    1       -4.846   2.225  -6.860  0.00  0.00    +0.430 HD
BRANCH   8  12
ATOM     12  C   LIG    1       -7.056   0.572  -3.877  0.00  0.00    -0.100 A 
ATOM     13  C   LIG    1       -7.700   1.788  -4.007  0.00  0.00    +0.000 A 
ATOM     14  C   LIG    1       -8.905   2.004  -3.364  0.00  0.00    +0.020 A 
ATOM     15  C   LIG    1       -9.461   1.007  -2.585  0.00  0.00    +0.030 A 
ATOM     16  C   LIG    1       -8.813  -0.207  -2.450  0.00  0.00    +0.020 A 
ATOM     17  C   LIG    1       -7.611  -0.424  -3.096  0.00  0.00    +0.040 A 
ENDBRANCH   8  12
ENDBRANCH   1   9
BRANCH   2  18
ATOM     18  C   LIG    1       -2.188   1.063  -1.221  0.00  0.00    +0.240 C 
ATOM     19  C   LIG    1       -0.753   1.593  -1.232  0.00  0.00    +0.010 C 
ATOM     20  C   LIG    1       -0.013   1.086   0.008  0.00  0.00    +0.040 C 
ATOM     21  C   LIG    1       -0.729   1.579   1.267  0.00  0.00    +0.240 C 
ATOM     22  C   LIG    1       -2.164   1.050   1.278  0.00  0.00    +0.030 C 
ATOM     23  C   LIG    1       -2.904   1.556   0.038  0.00  0.00    +0.000 C 
BRANCH  21  24
ATOM     24  N   LIG    1       -0.749   3.044   1.275  0.00  0.00    -0.720 N 
ATOM     25  H   LIG    1       -0.690   3.534   0.440  0.00  0.00    +0.390 HD
ATOM     26  C   LIG    1       -0.849   3.710   2.442  0.00  0.00    +0.600 C 
ATOM     27  O   LIG    1       -0.922   3.095   3.489  0.00  0.00    -0.500 OA
BRANCH  26  28
ATOM     28  C   LIG    1       -0.868   5.182   2.450  0.00  0.00    -0.080 A 
ATOM     29  C   LIG    1       -0.964   6.003   3.543  0.00  0.00    +0.250 A 
ATOM     30  N   LIG    1       -0.945   7.253   3.078  0.00  0.00    -0.260 NA
ATOM     31  N   LIG    1       -0.844   7.230   1.796  0.00  0.00    -0.040 NA
ATOM     32  N   LIG    1       -0.789   6.018   1.367  0.00  0.00    -0.380 N 
ATOM     33  H   LIG    1       -0.708   5.744   0.440  0.00  0.00    +0.450 HD
ENDBRANCH  26  28
ENDBRANCH  21  24
ENDBRANCH   2  18
TORSDOF 5
