REMARK  Name = ZINCpe000000UDhL.0
REMARK                            x       y       z     vdW  Elec       q    Type
REMARK                         _______ _______ _______ _____ _____    ______ ____
ROOT
ATOM      1  C   LIG    1       -0.426   2.523  -4.291  0.00  0.00    +0.200 C 
ENDROOT
BRANCH   1   2
ATOM      2  O   LIG    1       -0.188   3.613  -3.398  0.00  0.00    -0.540 OA
ATOM      3  H   LIG    1       -0.992   4.051  -3.089  0.00  0.00    +0.380 HD
ENDBRANCH   1   2
BRANCH   1   4
ATOM      4  C   LIG    1       -1.275   1.463  -3.586  0.00  0.00    +0.270 C 
BRANCH   4   6
ATOM      5  C   LIG    1        0.339  -0.171  -2.508  0.00  0.00    +0.290 C 
ATOM      6  N   LIG    1       -0.565   0.977  -2.401  0.00  0.00    -0.610 N 
ATOM      7  C   LIG    1       -0.743   1.586  -1.212  0.00  0.00    +0.530 C 
ATOM      8  O   LIG    1       -1.492   2.536  -1.123  0.00  0.00    -0.520 OA
BRANCH   7   9
ATOM      9  C   LIG    1       -0.013   1.086   0.008  0.00  0.00    +0.150 C 
ATOM     10  C   LIG    1        1.423   1.617  -0.003  0.00  0.00    +0.200 C 
ATOM     11  O   LIG    1        2.089   1.200   1.192  0.00  0.00    -0.370 OA
ATOM     12  C   LIG    1        1.451   1.646   2.392  0.00  0.00    +0.190 C 
ATOM     13  C   LIG    1        0.015   1.116   2.427  0.00  0.00    +0.200 C 
ATOM     14  N   LIG    1       -0.696   1.561   1.220  0.00  0.00    -0.670 NA
ATOM     15  H   LIG    1       -0.796   2.565   1.209  0.00  0.00    +0.350 HD
ENDBRANCH   7   9
ENDBRANCH   4   6
ENDBRANCH   1   4
BRANCH   1  16
ATOM     16  C   LIG    1       -1.168   3.031  -5.529  0.00  0.00    +0.180 C 
BRANCH  16  17
ATOM     17  O   LIG    1       -0.328   3.933  -6.250  0.00  0.00    -0.290 OA
BRANCH  17  18
ATOM     18  C   LIG    1       -0.839   4.479  -7.385  0.00  0.00    +0.180 A 
ATOM     19  C   LIG    1       -2.123   4.152  -7.795  0.00  0.00    -0.070 A 
ATOM     20  C   LIG    1       -2.641   4.708  -8.950  0.00  0.00    +0.090 A 
ATOM     21  C   LIG    1       -1.881   5.589  -9.695  0.00  0.00    -0.020 A 
ATOM     22  C   LIG    1       -0.600   5.917  -9.288  0.00  0.00    +0.120 A 
ATOM     23  C   LIG    1       -0.080   5.368  -8.132  0.00  0.00    -0.220 A 
BRANCH  23  24
ATOM     24  C   LIG    1        1.313   5.731  -7.686  0.00  0.00    +0.520 C 
ATOM     25  F   LIG    1        2.101   4.576  -7.632  0.00  0.00    -0.170 F 
ATOM     26  F   LIG    1        1.258   6.317  -6.417  0.00  0.00    -0.170 F 
ATOM     27  F   LIG    1        1.873   6.636  -8.594  0.00  0.00    -0.180 F 
ENDBRANCH  23  24
ENDBRANCH  17  18
ENDBRANCH  16  17
ENDBRANCH   1  16
TORSDOF 8
