REMARK  Name = ZINCzw0000000bHS.1
REMARK                            x       y       z     vdW  Elec       q    Type
REMARK                         _______ _______ _______ _____ _____    ______ ____
ROOT
ATOM      1  C   LIG    1       -8.899   0.300  -1.591  0.00  0.00    +0.010 C 
ATOM      2  C   LIG    1       -8.701   1.144  -0.330  0.00  0.00    +0.050 C 
ATOM      3  C   LIG    1       -8.588   2.620  -0.722  0.00  0.00    +0.300 C 
ATOM      4  N   LIG    1       -7.518   2.765  -1.718  0.00  0.00    -1.000 NA
ATOM      5  C   LIG    1       -7.566   1.936  -2.931  0.00  0.00    +0.300 C 
ATOM      6  C   LIG    1       -7.688   0.463  -2.512  0.00  0.00    +0.030 C 
ENDROOT
BRANCH   1   8
ATOM      7  O   LIG    1       -8.995  -1.476  -0.040  0.00  0.00    -0.510 OA
ATOM      8  C   LIG    1       -9.045  -1.150  -1.207  0.00  0.00    +0.520 C 
ATOM      9  N   LIG    1       -9.230  -2.085  -2.160  0.00  0.00    -0.740 N 
ATOM     10  H   LIG    1       -9.270  -1.824  -3.094  0.00  0.00    +0.400 HD
BRANCH   9  11
ATOM     11  C   LIG    1       -9.372  -3.494  -1.787  0.00  0.00    +0.260 C 
ATOM     12  C   LIG    1      -10.852  -3.824  -1.487  0.00  0.00    +0.070 C 
ATOM     13  C   LIG    1      -11.347  -4.432  -2.826  0.00  0.00    +0.260 C 
ATOM     14  N   LIG    1      -10.177  -5.217  -3.296  0.00  0.00    -0.390 N 
ATOM     15  H   LIG    1      -10.135  -6.102  -2.813  0.00  0.00    +0.430 HD
ATOM     16  C   LIG    1       -8.987  -4.402  -2.970  0.00  0.00    +0.270 C 
BRANCH  14  17
ATOM     17  C   LIG    1      -10.260  -5.434  -4.746  0.00  0.00    +0.320 C 
BRANCH  17  18
ATOM     18  C   LIG    1      -11.405  -6.366  -5.050  0.00  0.00    -0.160 A 
ATOM     19  C   LIG    1      -11.191  -7.731  -5.097  0.00  0.00    +0.040 A 
ATOM     20  C   LIG    1      -12.242  -8.586  -5.371  0.00  0.00    +0.030 A 
ATOM     21  C   LIG    1      -13.505  -8.076  -5.607  0.00  0.00    +0.060 A 
ATOM     22  C   LIG    1      -13.718  -6.711  -5.566  0.00  0.00    +0.030 A 
ATOM     23  C   LIG    1      -12.668  -5.856  -5.287  0.00  0.00    +0.040 A 
ENDBRANCH  17  18
ENDBRANCH  14  17
ENDBRANCH   9  11
ENDBRANCH   1   8
BRANCH   4  24
ATOM     24  S   LIG    1       -6.285   3.845  -1.483  0.00  0.00    +2.690 S 
ATOM     25  O   LIG    1       -5.769   4.152  -2.771  0.00  0.00    -0.950 OA
ATOM     26  O   LIG    1       -6.782   4.832  -0.590  0.00  0.00    -0.940 OA
BRANCH  24  27
ATOM     27  C   LIG    1       -5.004   2.995  -0.622  0.00  0.00    -0.680 A 
ATOM     28  C   LIG    1       -4.989   2.989   0.760  0.00  0.00    +0.140 A 
ATOM     29  C   LIG    1       -3.986   2.324   1.443  0.00  0.00    +0.010 A 
ATOM     30  C   LIG    1       -2.997   1.662   0.735  0.00  0.00    +0.130 A 
ATOM     31  O   LIG    1       -2.003   1.000   1.396  0.00  0.00    -0.320 OA
ATOM     32  C   LIG    1       -0.696   1.562   1.280  0.00  0.00    +0.230 C 
ATOM     33  C   LIG    1       -0.013   1.086   0.008  0.00  0.00    +0.000 C 
ATOM     34  C   LIG    1       -0.720   1.576  -1.246  0.00  0.00    +0.230 C 
ATOM     35  O   LIG    1       -2.031   1.014  -1.340  0.00  0.00    -0.320 OA
ATOM     36  C   LIG    1       -3.011   1.669  -0.652  0.00  0.00    +0.050 A 
ATOM     37  C   LIG    1       -4.016   2.335  -1.332  0.00  0.00    +0.130 A 
ENDBRANCH  24  27
ENDBRANCH   4  24
TORSDOF 6
