REMARK  Name = ZINCtV00000L6kHK.0
REMARK                            x       y       z     vdW  Elec       q    Type
REMARK                         _______ _______ _______ _____ _____    ______ ____
ROOT
ATOM      1  C   LIG    1       -2.426   4.173   0.850  0.00  0.00    +0.120 C 
ATOM      2  C   LIG    1       -1.142   3.425   0.600  0.00  0.00    +0.010 A 
ATOM      3  C   LIG    1        0.050   4.125   0.509  0.00  0.00    -0.100 A 
ATOM      4  C   LIG    1        1.238   3.452   0.280  0.00  0.00    +0.200 A 
ATOM      5  C   LIG    1        1.225   2.056   0.140  0.00  0.00    -0.190 A 
ATOM      6  C   LIG    1        0.010   1.353   0.233  0.00  0.00    +0.190 A 
ATOM      7  O   LIG    1       -0.001   0.010   0.099  0.00  0.00    -0.270 OA
ATOM      8  C   LIG    1        1.128  -0.681  -0.123  0.00  0.00    +0.520 A 
ATOM      9  C   LIG    1        2.380  -0.041  -0.228  0.00  0.00    -0.230 A 
ATOM     10  O   LIG    1        1.070  -1.892  -0.238  0.00  0.00    -0.460 OA
ATOM     11  C   LIG    1        2.460   1.310  -0.102  0.00  0.00    +0.050 A 
ATOM     12  C   LIG    1        3.785   2.020  -0.210  0.00  0.00    +0.140 C 
ATOM     13  C   LIG    1       -1.166   2.051   0.468  0.00  0.00    -0.020 A 
ENDROOT
BRANCH   9  14
ATOM     14  C   LIG    1        3.626  -0.852  -0.477  0.00  0.00    +0.160 C 
BRANCH  14  15
ATOM     15  C   LIG    1        4.172  -1.349   0.836  0.00  0.00    -0.080 A 
ATOM     16  C   LIG    1        5.092  -0.590   1.534  0.00  0.00    +0.000 A 
ATOM     17  C   LIG    1        5.590  -1.044   2.741  0.00  0.00    +0.000 A 
ATOM     18  C   LIG    1        5.176  -2.263   3.244  0.00  0.00    +0.000 A 
ATOM     19  C   LIG    1        4.260  -3.025   2.543  0.00  0.00    +0.000 A 
ATOM     20  C   LIG    1        3.758  -2.568   1.339  0.00  0.00    +0.020 A 
ENDBRANCH  14  15
ENDBRANCH   9  14
BRANCH   4  21
ATOM     21  O   LIG    1        2.406   4.138   0.192  0.00  0.00    -0.290 OA
BRANCH  21  22
ATOM     22  C   LIG    1        2.339   5.557   0.346  0.00  0.00    +0.250 C 
BRANCH  22  23
ATOM     23  C   LIG    1        3.722   6.142   0.219  0.00  0.00    -0.080 A 
ATOM     24  C   LIG    1        4.513   6.295   1.342  0.00  0.00    +0.050 A 
ATOM     25  C   LIG    1        5.783   6.827   1.225  0.00  0.00    +0.050 A 
ATOM     26  C   LIG    1        6.259   7.215  -0.014  0.00  0.00    -0.080 A 
ATOM     27  C   LIG    1        5.465   7.067  -1.137  0.00  0.00    +0.050 A 
ATOM     28 BR   LIG    1        7.994   7.950  -0.173  0.00  0.00    -0.040 Br
ATOM     29  C   LIG    1        4.197   6.530  -1.020  0.00  0.00    +0.050 A 
ENDBRANCH  22  23
ENDBRANCH  21  22
ENDBRANCH   4  21
TORSDOF 5
