REMARK  Name = ZINCvU0000000E7o.0
REMARK                            x       y       z     vdW  Elec       q    Type
REMARK                         _______ _______ _______ _____ _____    ______ ____
ROOT
ATOM      1  O   LIG    1        5.409   4.592  -0.025  0.00  0.00    -0.490 OA
ATOM      2  C   LIG    1        4.262   4.987  -0.012  0.00  0.00    +0.570 C 
ATOM      3  N   LIG    1        4.006   6.310  -0.002  0.00  0.00    -0.460 N 
ATOM      4  N   LIG    1        2.739   6.890   0.013  0.00  0.00    -0.240 NA
ATOM      5  C   LIG    1        2.750   8.179   0.021  0.00  0.00    +0.150 C 
ATOM      6  C   LIG    1        4.179   8.672   0.010  0.00  0.00    +0.090 C 
ATOM      7  C   LIG    1        5.018   7.378  -0.000  0.00  0.00    +0.260 C 
ENDROOT
BRANCH   5   8
ATOM      8  C   LIG    1        1.554   9.040   0.038  0.00  0.00    -0.040 A 
ATOM      9  C   LIG    1        0.292   8.465   0.041  0.00  0.00    +0.090 A 
ATOM     10  C   LIG    1       -0.842   9.290   0.063  0.00  0.00    -0.060 A 
ATOM     11  C   LIG    1       -2.138   8.744   0.071  0.00  0.00    +0.030 A 
ATOM     12  C   LIG    1       -3.217   9.573   0.085  0.00  0.00    +0.010 A 
ATOM     13  C   LIG    1       -3.058  10.957   0.092  0.00  0.00    +0.020 A 
ATOM     14  C   LIG    1       -1.819  11.521   0.084  0.00  0.00    +0.020 A 
ATOM     15  C   LIG    1       -0.680  10.699   0.069  0.00  0.00    -0.040 A 
ATOM     16  C   LIG    1        0.614  11.252   0.060  0.00  0.00    +0.030 A 
ATOM     17  C   LIG    1        1.700  10.440   0.045  0.00  0.00    +0.040 A 
ENDBRANCH   5   8
BRANCH   7  18
ATOM     18  C   LIG    1        5.865   7.308  -1.245  0.00  0.00    -0.090 A 
ATOM     19  C   LIG    1        5.287   6.982  -2.457  0.00  0.00    +0.010 A 
ATOM     20  C   LIG    1        6.064   6.922  -3.599  0.00  0.00    +0.000 A 
ATOM     21  C   LIG    1        7.420   7.179  -3.527  0.00  0.00    +0.010 A 
ATOM     22  C   LIG    1        7.999   7.500  -2.314  0.00  0.00    +0.010 A 
ATOM     23  C   LIG    1        7.222   7.565  -1.173  0.00  0.00    +0.020 A 
ENDBRANCH   7  18
BRANCH   2  24
ATOM     24  C   LIG    1        3.124   3.999  -0.006  0.00  0.00    +0.120 C 
BRANCH  24  25
ATOM     25  S   LIG    1        3.787   2.315  -0.022  0.00  0.00    +0.080 S 
BRANCH  25  26
ATOM     26  C   LIG    1        2.285   1.395  -0.012  0.00  0.00    +0.280 A 
ATOM     27  N   LIG    1        1.129   2.043   0.002  0.00  0.00    -0.530 NA
ATOM     28  C   LIG    1       -0.017   1.382   0.010  0.00  0.00    +0.330 A 
ATOM     29  C   LIG    1        0.002  -0.004   0.002  0.00  0.00    -0.090 A 
ATOM     30  C   LIG    1        1.228  -0.650  -0.013  0.00  0.00    +0.330 A 
ATOM     31  N   LIG    1        2.337   0.070  -0.020  0.00  0.00    -0.500 NA
ENDBRANCH  25  26
ENDBRANCH  24  25
ENDBRANCH   2  24
TORSDOF 5
