REMARK  Name = ZINCpe000000XRAD.0
REMARK                            x       y       z     vdW  Elec       q    Type
REMARK                         _______ _______ _______ _____ _____    ______ ____
ROOT
ATOM      1  C   LIG    1       -1.722   4.694   2.963  0.00  0.00    +0.460 C 
ATOM      2  O   LIG    1       -2.217   5.024   4.022  0.00  0.00    -0.490 OA
ENDROOT
BRANCH   1   3
ATOM      3  C   LIG    1       -1.538   3.327   2.665  0.00  0.00    -0.440 A 
ATOM      4  C   LIG    1       -2.029   2.326   3.520  0.00  0.00    +0.560 A 
ATOM      5  N   LIG    1       -1.826   1.016   3.189  0.00  0.00    -0.540 N 
ATOM      6  C   LIG    1       -1.170   0.673   2.069  0.00  0.00    +0.710 A 
ATOM      7  N   LIG    1       -0.678   1.585   1.215  0.00  0.00    -0.560 N 
ATOM      8  C   LIG    1        0.028   1.141   0.011  0.00  0.00    +0.340 C 
ATOM      9  O   LIG    1       -1.016  -0.506   1.819  0.00  0.00    -0.530 OA
ATOM     10  C   LIG    1       -2.335  -0.035   4.073  0.00  0.00    +0.360 C 
ATOM     11  C   LIG    1       -0.822   2.905   1.454  0.00  0.00    +0.570 A 
ATOM     12  O   LIG    1       -0.371   3.729   0.680  0.00  0.00    -0.490 OA
BRANCH   4  13
ATOM     13  N   LIG    1       -2.695   2.655   4.660  0.00  0.00    -0.800 N 
ATOM     14  H   LIG    1       -3.150   3.510   4.726  0.00  0.00    +0.440 HD
ATOM     15  H   LIG    1       -2.716   2.036   5.406  0.00  0.00    +0.410 HD
ENDBRANCH   4  13
ENDBRANCH   1   3
BRANCH   1  16
ATOM     16  C   LIG    1       -1.304   5.746   1.968  0.00  0.00    +0.130 C 
BRANCH  16  17
ATOM     17  S   LIG    1       -1.667   7.388   2.636  0.00  0.00    +0.030 S 
BRANCH  17  25
ATOM     18  C   LIG    1        1.174  10.405  -3.818  0.00  0.00    +0.100 C 
ATOM     19  C   LIG    1        0.552  10.310  -2.449  0.00  0.00    -0.090 A 
ATOM     20  C   LIG    1        0.203  11.468  -1.771  0.00  0.00    +0.030 A 
ATOM     21  C   LIG    1       -0.367  11.397  -0.516  0.00  0.00    +0.010 A 
ATOM     22  C   LIG    1       -0.593  10.162   0.072  0.00  0.00    +0.050 A 
ATOM     23  N   LIG    1       -1.136   9.758   1.280  0.00  0.00    -0.580 N 
ATOM     24  H   LIG    1       -1.480  10.337   1.979  0.00  0.00    +0.430 HD
ATOM     25  C   LIG    1       -1.095   8.393   1.307  0.00  0.00    +0.260 A 
ATOM     26  N   LIG    1       -0.571   7.942   0.193  0.00  0.00    -0.490 NA
ATOM     27  C   LIG    1       -0.240   8.986  -0.611  0.00  0.00    +0.060 A 
ATOM     28  C   LIG    1        0.336   9.074  -1.880  0.00  0.00    +0.060 A 
ENDBRANCH  17  25
ENDBRANCH  16  17
ENDBRANCH   1  16
TORSDOF 5
