REMARK  Name = ZINCrH000004oeYd.0
REMARK                            x       y       z     vdW  Elec       q    Type
REMARK                         _______ _______ _______ _____ _____    ______ ____
ROOT
ATOM      1  C   LIG    1        3.379   2.129  -0.716  0.00  0.00    -0.040 A 
ATOM      2  C   LIG    1        3.102   3.481  -0.764  0.00  0.00    -0.020 A 
ATOM      3  C   LIG    1        4.069   4.372  -1.196  0.00  0.00    +0.110 A 
ATOM      4  C   LIG    1        5.316   3.910  -1.582  0.00  0.00    +0.000 A 
ATOM      5  C   LIG    1        5.597   2.559  -1.537  0.00  0.00    +0.020 A 
ATOM      6  F   LIG    1        3.796   5.695  -1.241  0.00  0.00    -0.130 F 
ATOM      7  C   LIG    1        4.631   1.664  -1.099  0.00  0.00    +0.090 A 
ENDROOT
BRANCH   7   8
ATOM      8  N   LIG    1        4.915   0.296  -1.047  0.00  0.00    -0.500 N 
ATOM      9  C   LIG    1        5.265  -0.220  -2.376  0.00  0.00    +0.180 C 
ATOM     10  C   LIG    1        5.427  -1.740  -2.309  0.00  0.00    +0.000 C 
ATOM     11  C   LIG    1        6.526  -2.087  -1.301  0.00  0.00    +0.150 C 
ATOM     12  C   LIG    1        6.161  -1.497   0.064  0.00  0.00    +0.050 C 
ATOM     13  C   LIG    1        5.977   0.016  -0.072  0.00  0.00    +0.190 C 
BRANCH  11  14
ATOM     14  O   LIG    1        6.643  -3.507  -1.192  0.00  0.00    -0.560 OA
ATOM     15  H   LIG    1        6.873  -3.948  -2.021  0.00  0.00    +0.380 HD
ENDBRANCH  11  14
ENDBRANCH   7   8
BRANCH   1  17
ATOM     16  C   LIG    1        2.487   0.923   1.259  0.00  0.00    +0.050 C 
ATOM     17  C   LIG    1        2.326   1.159  -0.244  0.00  0.00    +0.310 C 
BRANCH  17  18
ATOM     18  N   LIG    1        0.997   1.714  -0.512  0.00  0.00    -0.730 N 
ATOM     19  H   LIG    1        0.877   2.674  -0.583  0.00  0.00    +0.390 HD
ATOM     20  C   LIG    1       -0.060   0.890  -0.659  0.00  0.00    +0.540 C 
ATOM     21  O   LIG    1        0.090  -0.310  -0.570  0.00  0.00    -0.510 OA
BRANCH  20  22
ATOM     22  C   LIG    1       -1.426   1.461  -0.940  0.00  0.00    -0.140 C 
ATOM     23  C   LIG    1       -1.925   2.294   0.267  0.00  0.00    +0.060 C 
ATOM     24  C   LIG    1       -2.458   1.208   1.235  0.00  0.00    +0.030 C 
ATOM     25  C   LIG    1       -3.122   0.169   0.309  0.00  0.00    +0.020 C 
ATOM     26  C   LIG    1       -2.466   0.329  -1.074  0.00  0.00    +0.060 C 
BRANCH  22  27
ATOM     27  C   LIG    1       -1.398   2.315  -2.209  0.00  0.00    +0.390 C 
ATOM     28  F   LIG    1       -2.671   2.846  -2.442  0.00  0.00    -0.190 F 
ATOM     29  F   LIG    1       -1.018   1.522  -3.297  0.00  0.00    -0.190 F 
ENDBRANCH  22  27
ENDBRANCH  20  22
ENDBRANCH  17  18
ENDBRANCH   1  17
TORSDOF 6
