REMARK  Name = ZINCrD0000075KyD.0
REMARK                            x       y       z     vdW  Elec       q    Type
REMARK                         _______ _______ _______ _____ _____    ______ ____
ROOT
ATOM      1  O   LIG    1        1.884   5.772  -1.003  0.00  0.00    -0.480 OA
ATOM      2  C   LIG    1        0.969   6.359  -0.466  0.00  0.00    +0.530 C 
ATOM      3  N   LIG    1       -0.075   5.668   0.033  0.00  0.00    -0.670 N 
ATOM      4  H   LIG    1       -0.841   6.141   0.394  0.00  0.00    +0.410 HD
ENDROOT
BRANCH   2   5
ATOM      5  C   LIG    1        1.000   7.862  -0.355  0.00  0.00    +0.190 C 
ATOM      6  C   LIG    1       -0.138   8.463  -1.196  0.00  0.00    +0.090 C 
ATOM      7  S   LIG    1       -0.170  10.250  -0.856  0.00  0.00    -0.090 S 
ATOM      8  C   LIG    1        1.545  10.664  -0.917  0.00  0.00    -0.160 A 
ATOM      9  C   LIG    1        1.911  12.002  -0.983  0.00  0.00    +0.070 A 
ATOM     10  C   LIG    1        3.246  12.359  -1.007  0.00  0.00    +0.000 A 
ATOM     11  C   LIG    1        4.219  11.378  -0.965  0.00  0.00    +0.060 A 
ATOM     12  C   LIG    1        3.861  10.046  -0.906  0.00  0.00    +0.010 A 
ATOM     13  C   LIG    1        2.519   9.672  -0.887  0.00  0.00    +0.130 A 
ATOM     14  O   LIG    1        2.241   8.349  -0.844  0.00  0.00    -0.290 OA
ENDBRANCH   2   5
BRANCH   3  15
ATOM     15  C   LIG    1       -0.053   4.269   0.030  0.00  0.00    +0.160 A 
ATOM     16  C   LIG    1        1.147   3.591   0.194  0.00  0.00    +0.020 A 
ATOM     17  C   LIG    1        1.165   2.211   0.191  0.00  0.00    +0.070 A 
ATOM     18  C   LIG    1       -0.011   1.503   0.026  0.00  0.00    -0.130 A 
ATOM     19  C   LIG    1       -1.208   2.175  -0.143  0.00  0.00    +0.050 A 
ATOM     20  C   LIG    1       -1.233   3.556  -0.137  0.00  0.00    -0.020 A 
BRANCH  18  21
ATOM     21  C   LIG    1        0.012  -0.004   0.023  0.00  0.00    +0.340 C 
BRANCH  21  22
ATOM     22  N   LIG    1       -0.170  -0.498   1.390  0.00  0.00    -0.490 N 
ATOM     23  C   LIG    1       -1.423  -0.741   1.855  0.00  0.00    +0.290 A 
ATOM     24  C   LIG    1       -1.616  -1.198   3.114  0.00  0.00    -0.080 A 
ATOM     25  C   LIG    1       -0.516  -1.424   3.953  0.00  0.00    +0.110 A 
ATOM     26  C   LIG    1        0.742  -1.178   3.485  0.00  0.00    -0.090 A 
ATOM     27  C   LIG    1        0.907  -0.710   2.170  0.00  0.00    +0.510 A 
ATOM     28  O   LIG    1        2.026  -0.491   1.737  0.00  0.00    -0.550 OA
ENDBRANCH  21  22
ENDBRANCH  18  21
ENDBRANCH   3  15
TORSDOF 4
