REMARK  Name = ZINCrH000004syGV.0
REMARK                            x       y       z     vdW  Elec       q    Type
REMARK                         _______ _______ _______ _____ _____    ______ ____
ROOT
ATOM      1  N   LIG    1        0.044   1.401  -0.001  0.00  0.00    -0.680 N 
ATOM      2  H   LIG    1       -0.829   1.823   0.010  0.00  0.00    +0.410 HD
ATOM      3  C   LIG    1        1.159   2.158   0.002  0.00  0.00    +0.710 C 
ATOM      4  N   LIG    1        1.063   3.497   0.123  0.00  0.00    -0.620 N 
ATOM      5  C   LIG    1       -0.238   4.136   0.359  0.00  0.00    +0.270 C 
ATOM      6  C   LIG    1       -0.463   5.213  -0.701  0.00  0.00    +0.030 C 
ATOM      7  C   LIG    1        0.722   6.181  -0.701  0.00  0.00    +0.040 C 
ATOM      8  C   LIG    1        2.004   5.420  -1.048  0.00  0.00    +0.180 C 
ATOM      9  C   LIG    1        2.258   4.345   0.014  0.00  0.00    +0.300 C 
ATOM     10  O   LIG    1        2.251   1.633  -0.103  0.00  0.00    -0.560 OA
ENDROOT
BRANCH   1  16
ATOM     11  C   LIG    1        2.476  -5.324  -1.506  0.00  0.00    +0.220 C 
ATOM     12  C   LIG    1        1.770  -4.076  -1.044  0.00  0.00    +0.250 A 
ATOM     13  N   LIG    1        2.131  -2.864  -1.343  0.00  0.00    -0.480 NA
ATOM     14  C   LIG    1        1.267  -1.991  -0.757  0.00  0.00    +0.040 A 
ATOM     15  C   LIG    1        1.166  -0.600  -0.739  0.00  0.00    +0.090 A 
ATOM     16  C   LIG    1        0.146   0.003  -0.025  0.00  0.00    +0.160 A 
ATOM     17  C   LIG    1       -0.782  -0.772   0.664  0.00  0.00    +0.020 A 
ATOM     18  C   LIG    1       -0.692  -2.148   0.647  0.00  0.00    +0.070 A 
ATOM     19  C   LIG    1        0.328  -2.767  -0.060  0.00  0.00    -0.010 A 
ATOM     20  O   LIG    1        0.677  -4.057  -0.265  0.00  0.00    -0.210 OA
ENDBRANCH   1  16
BRANCH   8  21
ATOM     21  O   LIG    1        3.106   6.330  -1.078  0.00  0.00    -0.290 OA
BRANCH  21  22
ATOM     22  C   LIG    1        4.128   6.032  -1.921  0.00  0.00    +0.300 A 
ATOM     23  N   LIG    1        4.067   4.940  -2.663  0.00  0.00    -0.510 NA
ATOM     24  C   LIG    1        5.038   4.613  -3.495  0.00  0.00    +0.300 A 
ATOM     25  C   LIG    1        6.161   5.407  -3.621  0.00  0.00    -0.030 A 
ATOM     26  C   LIG    1        6.264   6.563  -2.859  0.00  0.00    +0.090 A 
ATOM     27  C   LIG    1        5.226   6.883  -1.999  0.00  0.00    +0.030 A 
ATOM     28  F   LIG    1        5.282   8.001  -1.244  0.00  0.00    -0.120 F 
ENDBRANCH  21  22
ENDBRANCH   8  21
TORSDOF 3
