REMARK  Name = ZINCvU00000005iL.0
REMARK                            x       y       z     vdW  Elec       q    Type
REMARK                         _______ _______ _______ _____ _____    ______ ____
ROOT
ATOM      1  C   LIG    1       -2.403  -0.843   4.217  0.00  0.00    -0.150 A 
ATOM      2  C   LIG    1       -1.900  -1.782   5.119  0.00  0.00    +0.130 A 
ATOM      3  C   LIG    1       -2.353  -1.794   6.422  0.00  0.00    +0.000 A 
ATOM      4  C   LIG    1       -3.313  -0.886   6.832  0.00  0.00    +0.160 A 
ATOM      5  C   LIG    1       -3.819   0.044   5.942  0.00  0.00    -0.680 A 
ATOM      6  C   LIG    1       -3.371   0.071   4.638  0.00  0.00    +0.160 A 
ENDROOT
BRANCH   1   9
ATOM      7  C   LIG    1       -2.058   1.611   2.870  0.00  0.00    +0.310 C 
ATOM      8  N   LIG    1       -1.714   0.356   2.197  0.00  0.00    -0.600 N 
ATOM      9  C   LIG    1       -1.918  -0.821   2.821  0.00  0.00    +0.560 C 
ATOM     10  O   LIG    1       -1.703  -1.864   2.235  0.00  0.00    -0.520 OA
BRANCH   8  11
ATOM     11  C   LIG    1       -1.148   0.381   0.846  0.00  0.00    +0.420 C 
BRANCH  11  12
ATOM     12  C   LIG    1       -2.263   0.325  -0.167  0.00  0.00    +0.060 A 
ATOM     13  N   LIG    1       -2.846   1.355  -0.653  0.00  0.00    -0.450 NA
ATOM     14  C   LIG    1       -3.829   1.156  -1.552  0.00  0.00    +0.080 A 
ATOM     15  C   LIG    1       -4.626   2.095  -2.237  0.00  0.00    +0.080 A 
ATOM     16  C   LIG    1       -5.578   1.679  -3.118  0.00  0.00    +0.030 A 
ATOM     17  C   LIG    1       -5.781   0.328  -3.358  0.00  0.00    +0.040 A 
ATOM     18  C   LIG    1       -5.017  -0.612  -2.704  0.00  0.00    +0.060 A 
ATOM     19  C   LIG    1       -4.039  -0.205  -1.799  0.00  0.00    -0.190 A 
ATOM     20  S   LIG    1       -2.905  -1.119  -0.809  0.00  0.00    +0.140 S 
ENDBRANCH  11  12
ENDBRANCH   8  11
ENDBRANCH   1   9
BRANCH   5  21
ATOM     21  S   LIG    1       -5.041   1.197   6.475  0.00  0.00    +2.690 S 
ATOM     22  O   LIG    1       -4.876   2.357   5.670  0.00  0.00    -0.950 OA
ATOM     23  O   LIG    1       -4.978   1.220   7.894  0.00  0.00    -0.940 OA
BRANCH  21  24
ATOM     24  N   LIG    1       -6.519   0.562   6.083  0.00  0.00    -1.060 N 
ATOM     25  H   LIG    1       -7.097   1.027   5.458  0.00  0.00    +0.430 HD
BRANCH  24  26
ATOM     26  C   LIG    1       -6.934  -0.645   6.652  0.00  0.00    +0.120 A 
ATOM     27  C   LIG    1       -6.948  -1.806   5.888  0.00  0.00    +0.040 A 
ATOM     28  C   LIG    1       -7.354  -2.998   6.455  0.00  0.00    +0.040 A 
ATOM     29  C   LIG    1       -7.756  -3.036   7.778  0.00  0.00    -0.030 A 
ATOM     30  C   LIG    1       -7.748  -1.880   8.539  0.00  0.00    +0.040 A 
ATOM     31 CL   LIG    1       -8.271  -4.535   8.485  0.00  0.00    -0.060 Cl
ATOM     32  C   LIG    1       -7.338  -0.686   7.980  0.00  0.00    +0.060 A 
ENDBRANCH  24  26
ENDBRANCH  21  24
ENDBRANCH   5  21
TORSDOF 6
