REMARK  Name = ZINCvU0000000IfO.0
REMARK                            x       y       z     vdW  Elec       q    Type
REMARK                         _______ _______ _______ _____ _____    ______ ____
ROOT
ATOM      1  C   LIG    1       -2.720   4.564   7.812  0.00  0.00    +0.170 A 
ATOM      2  C   LIG    1       -3.445   5.133   8.872  0.00  0.00    -0.250 A 
ATOM      3  S   LIG    1       -3.818   6.805   9.263  0.00  0.00    +0.180 S 
ATOM      4  C   LIG    1       -4.723   6.320  10.687  0.00  0.00    -0.080 A 
ATOM      5  C   LIG    1       -4.721   4.988  10.815  0.00  0.00    +0.040 A 
ATOM      6  C   LIG    1       -4.023   4.287   9.824  0.00  0.00    +0.190 A 
ATOM      7  N   LIG    1       -3.841   2.954   9.676  0.00  0.00    -0.490 NA
ATOM      8  C   LIG    1       -3.150   2.472   8.674  0.00  0.00    +0.530 A 
ATOM      9  N   LIG    1       -2.597   3.243   7.755  0.00  0.00    -0.460 NA
ENDROOT
BRANCH   4  10
ATOM     10  C   LIG    1       -5.394   7.253  11.617  0.00  0.00    -0.030 A 
ATOM     11  C   LIG    1       -6.095   6.762  12.719  0.00  0.00    +0.060 A 
ATOM     12  C   LIG    1       -6.716   7.638  13.585  0.00  0.00    +0.030 A 
ATOM     13  C   LIG    1       -6.653   9.002  13.357  0.00  0.00    -0.020 A 
ATOM     14  C   LIG    1       -5.964   9.495  12.261  0.00  0.00    +0.040 A 
ATOM     15 CL   LIG    1       -7.442  10.098  14.447  0.00  0.00    -0.060 Cl
ATOM     16  C   LIG    1       -5.335   8.629  11.391  0.00  0.00    +0.050 A 
ENDBRANCH   4  10
BRANCH   1  17
ATOM     17  S   LIG    1       -1.978   5.586   6.584  0.00  0.00    +0.260 S 
BRANCH  17  21
ATOM     18  C   LIG    1       -0.140   3.353   4.004  0.00  0.00    +0.150 A 
ATOM     19  N   LIG    1       -0.622   2.466   4.825  0.00  0.00    -0.270 NA
ATOM     20  N   LIG    1       -1.276   3.058   5.762  0.00  0.00    -0.210 NA
ATOM     21  C   LIG    1       -1.232   4.354   5.569  0.00  0.00    +0.090 A 
ATOM     22  O   LIG    1       -0.508   4.568   4.455  0.00  0.00    -0.190 OA
BRANCH  18  23
ATOM     23  C   LIG    1        0.687   3.073   2.775  0.00  0.00    +0.460 C 
BRANCH  23  31
ATOM     24  O   LIG    1       -0.103   5.066   1.176  0.00  0.00    -0.530 OA
ATOM     25  C   LIG    1       -0.530   3.969   0.883  0.00  0.00    +0.520 C 
ATOM     26  C   LIG    1       -1.439   3.809  -0.318  0.00  0.00    +0.050 C 
ATOM     27  C   LIG    1       -0.662   3.086  -1.422  0.00  0.00    +0.040 C 
ATOM     28  C   LIG    1       -0.733   1.582  -1.232  0.00  0.00    +0.010 C 
ATOM     29  C   LIG    1       -0.013   1.086   0.008  0.00  0.00    +0.010 C 
ATOM     30  C   LIG    1       -0.715   1.572   1.277  0.00  0.00    +0.290 C 
ATOM     31  N   LIG    1       -0.198   2.908   1.619  0.00  0.00    -0.610 N 
ENDBRANCH  23  31
ENDBRANCH  18  23
ENDBRANCH  17  21
ENDBRANCH   1  17
TORSDOF 5
