REMARK  Name = ZINCpk00000y6xKr.0
REMARK                            x       y       z     vdW  Elec       q    Type
REMARK                         _______ _______ _______ _____ _____    ______ ____
ROOT
ATOM      1  N   LIG    1        0.362   3.596  -5.160  0.00  0.00    -0.640 N 
ATOM      2  H   LIG    1        1.327   3.552  -5.245  0.00  0.00    +0.410 HD
ATOM      3  C   LIG    1       -0.219   3.396  -3.960  0.00  0.00    +0.500 C 
ATOM      4  O   LIG    1       -1.426   3.452  -3.853  0.00  0.00    -0.520 OA
ENDROOT
BRANCH   1  10
ATOM      5  C   LIG    1        1.478   4.094  -8.025  0.00  0.00    +0.160 C 
ATOM      6  C   LIG    1        0.035   4.099  -7.592  0.00  0.00    +0.070 A 
ATOM      7  N   LIG    1       -0.997   4.318  -8.367  0.00  0.00    -0.270 NA
ATOM      8  N   LIG    1       -2.159   4.238  -7.590  0.00  0.00    -0.320 N 
ATOM      9  C   LIG    1       -1.787   3.956  -6.311  0.00  0.00    +0.250 A 
ATOM     10  C   LIG    1       -0.432   3.871  -6.288  0.00  0.00    +0.000 A 
BRANCH   8  11
ATOM     11  C   LIG    1       -3.472   4.412  -8.048  0.00  0.00    +0.170 A 
ATOM     12  C   LIG    1       -4.538   4.298  -7.165  0.00  0.00    -0.010 A 
ATOM     13  C   LIG    1       -5.830   4.475  -7.619  0.00  0.00    +0.040 A 
ATOM     14  C   LIG    1       -6.064   4.755  -8.952  0.00  0.00    +0.000 A 
ATOM     15  C   LIG    1       -5.005   4.863  -9.835  0.00  0.00    +0.040 A 
ATOM     16  C   LIG    1       -3.710   4.692  -9.386  0.00  0.00    +0.020 A 
ENDBRANCH   8  11
ENDBRANCH   1  10
BRANCH   3  17
ATOM     17  C   LIG    1        0.632   3.102  -2.751  0.00  0.00    +0.340 C 
BRANCH  17  18
ATOM     18  N   LIG    1       -0.229   2.925  -1.579  0.00  0.00    -0.590 N 
ATOM     19  C   LIG    1       -0.739   1.586  -1.242  0.00  0.00    +0.280 C 
ATOM     20  C   LIG    1       -0.013   1.086   0.008  0.00  0.00    +0.010 C 
ATOM     21  C   LIG    1       -0.710   1.569   1.267  0.00  0.00    +0.030 C 
ATOM     22  C   LIG    1       -0.633   3.071   1.472  0.00  0.00    +0.050 C 
ATOM     23  C   LIG    1       -1.431   3.805   0.392  0.00  0.00    +0.180 C 
ATOM     24  C   LIG    1       -0.547   3.978  -0.825  0.00  0.00    +0.490 C 
ATOM     25  O   LIG    1       -0.125   5.078  -1.115  0.00  0.00    -0.530 OA
BRANCH  23  26
ATOM     26  O   LIG    1       -1.832   5.087   0.880  0.00  0.00    -0.540 OA
ATOM     27  H   LIG    1       -2.330   5.614   0.240  0.00  0.00    +0.390 HD
ENDBRANCH  23  26
ENDBRANCH  17  18
ENDBRANCH   3  17
TORSDOF 5
