REMARK  Name = ZINCvU0000000Dc2.0
REMARK                            x       y       z     vdW  Elec       q    Type
REMARK                         _______ _______ _______ _____ _____    ______ ____
ROOT
ATOM      1  C   LIG    1        3.002   7.337  -0.523  0.00  0.00    +0.310 C 
ATOM      2  N   LIG    1        3.434   6.111  -0.383  0.00  0.00    -0.480 NA
ATOM      3  C   LIG    1        2.403   5.315   0.032  0.00  0.00    -0.050 C 
ATOM      4  C   LIG    1        1.226   6.200   0.139  0.00  0.00    +0.520 C 
ATOM      5  O   LIG    1        0.098   5.889   0.474  0.00  0.00    -0.460 OA
ATOM      6  C   LIG    1        2.451   3.976   0.290  0.00  0.00    +0.230 C 
ATOM      7  N   LIG    1        1.667   7.429  -0.211  0.00  0.00    -0.510 N 
ENDROOT
BRANCH   7   8
ATOM      8  C   LIG    1        0.891   8.597  -0.255  0.00  0.00    +0.110 A 
ATOM      9  C   LIG    1        1.128   9.622   0.651  0.00  0.00    +0.060 A 
ATOM     10  C   LIG    1        0.366  10.774   0.603  0.00  0.00    +0.010 A 
ATOM     11  C   LIG    1       -0.638  10.902  -0.341  0.00  0.00    +0.120 A 
ATOM     12  C   LIG    1       -0.879   9.878  -1.242  0.00  0.00    +0.010 A 
ATOM     13  F   LIG    1       -1.385  12.027  -0.383  0.00  0.00    -0.130 F 
ATOM     14  C   LIG    1       -0.116   8.727  -1.201  0.00  0.00    +0.070 A 
ENDBRANCH   7   8
BRANCH   6  15
ATOM     15  C   LIG    1        1.300   3.306   0.907  0.00  0.00    -0.100 A 
ATOM     16  C   LIG    1        0.588   3.934   1.936  0.00  0.00    +0.070 A 
ATOM     17  C   LIG    1       -0.492   3.297   2.509  0.00  0.00    +0.000 A 
ATOM     18  C   LIG    1       -0.870   2.039   2.074  0.00  0.00    +0.040 A 
ATOM     19  C   LIG    1       -0.175   1.413   1.053  0.00  0.00    +0.000 A 
ATOM     20  C   LIG    1        0.908   2.035   0.469  0.00  0.00    +0.050 A 
ENDBRANCH   6  15
BRANCH   1  21
ATOM     21  S   LIG    1        3.999   8.693  -1.044  0.00  0.00    +0.060 S 
BRANCH  21  22
ATOM     22  C   LIG    1        5.585   7.849  -1.266  0.00  0.00    +0.160 C 
ATOM     23  C   LIG    1        5.467   6.833  -2.404  0.00  0.00    +0.110 C 
BRANCH  22  27
ATOM     24  C   LIG    1        8.444   9.979  -1.687  0.00  0.00    +0.180 A 
ATOM     25  N   LIG    1        7.583  10.490  -2.515  0.00  0.00    -0.370 NA
ATOM     26  O   LIG    1        6.548   9.858  -2.487  0.00  0.00    +0.090 OA
ATOM     27  C   LIG    1        6.650   8.860  -1.604  0.00  0.00    +0.190 A 
ATOM     28  N   LIG    1        7.855   8.926  -1.092  0.00  0.00    -0.460 NA
BRANCH  24  29
ATOM     29  C   LIG    1        9.846  10.474  -1.438  0.00  0.00    +0.160 C 
BRANCH  29  31
ATOM     30  C   LIG    1       12.234  10.280  -2.146  0.00  0.00    +0.030 C 
ATOM     31  C   LIG    1       10.811   9.777  -2.399  0.00  0.00    +0.020 C 
ENDBRANCH  29  31
ENDBRANCH  24  29
ENDBRANCH  22  27
ENDBRANCH  21  22
ENDBRANCH   1  21
TORSDOF 7
