REMARK  Name = ZINCpk00000y6wXQ.1
REMARK                            x       y       z     vdW  Elec       q    Type
REMARK                         _______ _______ _______ _____ _____    ______ ____
ROOT
ATOM      1  N   LIG    1       -0.085   5.240   0.039  0.00  0.00    -0.930 N 
ATOM      2  C   LIG    1        1.193   5.964  -0.008  0.00  0.00    +0.320 C 
ATOM      3  C   LIG    1        2.237   5.121   0.736  0.00  0.00    +0.160 C 
ATOM      4  C   LIG    1        2.420   3.796  -0.003  0.00  0.00    +0.120 C 
ATOM      5  C   LIG    1        1.087   3.139  -0.245  0.00  0.00    -0.130 A 
ATOM      6  C   LIG    1        1.047   1.778  -0.500  0.00  0.00    +0.050 A 
ATOM      7  C   LIG    1       -0.160   1.148  -0.735  0.00  0.00    -0.010 A 
ATOM      8  C   LIG    1       -1.337   1.874  -0.721  0.00  0.00    +0.070 A 
ATOM      9  C   LIG    1       -1.307   3.229  -0.460  0.00  0.00    -0.020 A 
ATOM     10  C   LIG    1       -0.094   3.866  -0.222  0.00  0.00    +0.180 A 
ENDROOT
BRANCH   3  11
ATOM     11  N   LIG    1        3.514   5.845   0.778  0.00  0.00    -0.380 N 
ATOM     12  C   LIG    1        4.512   5.036   1.491  0.00  0.00    +0.320 C 
ATOM     13  C   LIG    1        3.330   7.124   1.477  0.00  0.00    +0.330 C 
ATOM     14  H   LIG    1        3.833   6.019  -0.163  0.00  0.00    +0.430 HD
ENDBRANCH   3  11
BRANCH   1  15
ATOM     15  S   LIG    1       -1.491   6.038   0.397  0.00  0.00    +2.710 S 
ATOM     16  O   LIG    1       -1.113   7.279   0.976  0.00  0.00    -0.950 OA
ATOM     17  O   LIG    1       -2.330   5.097   1.054  0.00  0.00    -0.940 OA
BRANCH  15  21
ATOM     18  C   LIG    1       -4.500   5.743  -3.908  0.00  0.00    +0.340 C 
ATOM     19  N   LIG    1       -3.548   6.265  -2.924  0.00  0.00    -0.390 N 
ATOM     20  C   LIG    1       -3.166   5.639  -1.792  0.00  0.00    +0.260 A 
ATOM     21  C   LIG    1       -2.277   6.422  -1.133  0.00  0.00    -0.760 A 
ATOM     22  C   LIG    1       -2.098   7.589  -1.879  0.00  0.00    +0.060 A 
ATOM     23  C   LIG    1       -2.895   7.476  -3.002  0.00  0.00    -0.020 A 
BRANCH  23  24
ATOM     24  C   LIG    1       -3.027   8.463  -4.072  0.00  0.00    +0.550 C 
ATOM     25  O   LIG    1       -2.389   9.507  -4.024  0.00  0.00    -0.670 OA
ATOM     26  O   LIG    1       -3.776   8.245  -5.016  0.00  0.00    -0.680 OA
ENDBRANCH  23  24
ENDBRANCH  15  21
ENDBRANCH   1  15
TORSDOF 4
