REMARK  Name = ZINCvU000000099j.0
REMARK                            x       y       z     vdW  Elec       q    Type
REMARK                         _______ _______ _______ _____ _____    ______ ____
ROOT
ATOM      1  C   LIG    1        1.165   3.563   0.070  0.00  0.00    +0.160 C 
ATOM      2  N   LIG    1        2.211   4.316   0.049  0.00  0.00    -0.230 NA
ATOM      3  N   LIG    1        1.929   5.681   0.037  0.00  0.00    -0.460 N 
ATOM      4  C   LIG    1        0.470   5.866   0.062  0.00  0.00    +0.250 C 
ATOM      5  C   LIG    1        2.844   6.670   0.012  0.00  0.00    +0.590 C 
ATOM      6  O   LIG    1        2.486   7.828  -0.090  0.00  0.00    -0.490 OA
ATOM      7  C   LIG    1       -0.077   4.425   0.085  0.00  0.00    +0.100 C 
ENDROOT
BRANCH   4   8
ATOM      8  C   LIG    1        0.051   6.612   1.302  0.00  0.00    -0.090 A 
ATOM      9  C   LIG    1        0.737   6.422   2.487  0.00  0.00    +0.000 A 
ATOM     10  C   LIG    1        0.353   7.107   3.626  0.00  0.00    +0.010 A 
ATOM     11  C   LIG    1       -0.717   7.981   3.578  0.00  0.00    +0.000 A 
ATOM     12  C   LIG    1       -1.403   8.170   2.393  0.00  0.00    -0.080 A 
ATOM     13  C   LIG    1       -2.569   9.124   2.342  0.00  0.00    +0.090 C 
ATOM     14  C   LIG    1       -1.016   7.490   1.254  0.00  0.00    +0.020 A 
ENDBRANCH   4   8
BRANCH   5  15
ATOM     15  C   LIG    1        4.283   6.348   0.108  0.00  0.00    -0.140 A 
ATOM     16  C   LIG    1        4.706   5.018   0.097  0.00  0.00    +0.130 A 
ATOM     17  C   LIG    1        6.051   4.724   0.182  0.00  0.00    -0.010 A 
ATOM     18  C   LIG    1        6.980   5.744   0.290  0.00  0.00    +0.050 A 
ATOM     19  C   LIG    1        6.569   7.065   0.307  0.00  0.00    +0.010 A 
ATOM     20  C   LIG    1        5.226   7.374   0.217  0.00  0.00    +0.020 A 
ATOM     21 CL   LIG    1        4.711   9.031   0.239  0.00  0.00    -0.040 Cl
ENDBRANCH   5  15
BRANCH   1  25
ATOM     22  C   LIG    1        1.202  -0.684   0.108  0.00  0.00    +0.190 A 
ATOM     23  C   LIG    1       -0.006   0.001   0.124  0.00  0.00    -0.110 A 
ATOM     24  C   LIG    1       -0.023   1.378   0.112  0.00  0.00    +0.130 A 
ATOM     25  C   LIG    1        1.178   2.090   0.083  0.00  0.00    -0.110 A 
ATOM     26  C   LIG    1        2.398   1.397   0.067  0.00  0.00    +0.210 A 
ATOM     27  C   LIG    1        2.401   0.014   0.079  0.00  0.00    -0.110 A 
BRANCH  22  29
ATOM     28  C   LIG    1       -0.058  -2.699   0.149  0.00  0.00    +0.240 C 
ATOM     29  O   LIG    1        1.211  -2.043   0.120  0.00  0.00    -0.310 OA
ENDBRANCH  22  29
BRANCH  26  30
ATOM     30  O   LIG    1        3.570   2.081   0.039  0.00  0.00    -0.290 OA
ATOM     31  C   LIG    1        4.772   1.309   0.023  0.00  0.00    +0.240 C 
ENDBRANCH  26  30
ENDBRANCH   1  25
TORSDOF 5
