REMARK  Name = ZINCrg000000tSm8.0
REMARK                            x       y       z     vdW  Elec       q    Type
REMARK                         _______ _______ _______ _____ _____    ______ ____
ROOT
ATOM      1  O   LIG    1        2.866   2.037   1.905  0.00  0.00    -0.520 OA
ATOM      2  C   LIG    1        1.750   1.867   1.460  0.00  0.00    +0.520 C 
ATOM      3  C   LIG    1        1.423   1.659  -0.003  0.00  0.00    +0.070 C 
ATOM      4  C   LIG    1       -0.013   1.086   0.008  0.00  0.00    -0.010 C 
ATOM      5  C   LIG    1       -0.557   1.624   1.350  0.00  0.00    +0.300 C 
ATOM      6  N   LIG    1        0.625   1.838   2.194  0.00  0.00    -0.620 N 
ENDROOT
BRANCH   4   7
ATOM      7  C   LIG    1       -0.814   1.618  -1.152  0.00  0.00    +0.530 C 
ATOM      8  N   LIG    1       -0.456   1.313  -2.415  0.00  0.00    -0.610 N 
ATOM      9  C   LIG    1        0.715   0.462  -2.659  0.00  0.00    +0.270 C 
ATOM     10  C   LIG    1        0.295  -0.741  -3.522  0.00  0.00    +0.290 C 
ATOM     11  N   LIG    1       -0.507  -0.202  -4.636  0.00  0.00    -0.630 N 
ATOM     12  C   LIG    1       -0.293  -0.359  -5.946  0.00  0.00    +0.520 C 
ATOM     13  C   LIG    1       -1.055   0.705  -6.710  0.00  0.00    +0.060 C 
ATOM     14  C   LIG    1       -2.212   1.090  -5.761  0.00  0.00    +0.070 C 
ATOM     15  O   LIG    1        0.402  -1.219  -6.445  0.00  0.00    -0.520 OA
ATOM     16  C   LIG    1       -1.699   0.636  -4.388  0.00  0.00    +0.210 C 
ATOM     17  C   LIG    1       -1.243   1.828  -3.547  0.00  0.00    +0.290 C 
ATOM     18  O   LIG    1       -1.782   2.321  -0.949  0.00  0.00    -0.530 OA
ENDBRANCH   4   7
BRANCH   6  19
ATOM     19  C   LIG    1        0.583   1.998   3.650  0.00  0.00    +0.300 C 
BRANCH  19  20
ATOM     20  C   LIG    1        0.427   3.480   3.995  0.00  0.00    +0.060 C 
BRANCH  20  21
ATOM     21  C   LIG    1        0.384   3.645   5.492  0.00  0.00    -0.090 A 
ATOM     22  C   LIG    1       -0.828   3.605   6.157  0.00  0.00    +0.040 A 
ATOM     23  C   LIG    1       -0.868   3.751   7.531  0.00  0.00    -0.010 A 
ATOM     24  C   LIG    1        0.305   3.948   8.240  0.00  0.00    +0.100 A 
ATOM     25  C   LIG    1        1.517   3.993   7.573  0.00  0.00    -0.010 A 
ATOM     26  F   LIG    1        0.266   4.096   9.582  0.00  0.00    -0.140 F 
ATOM     27  C   LIG    1        1.555   3.841   6.200  0.00  0.00    +0.050 A 
ENDBRANCH  20  21
ENDBRANCH  19  20
ENDBRANCH   6  19
TORSDOF 4
