REMARK  Name = ZINCvU00000007rZ.0
REMARK                            x       y       z     vdW  Elec       q    Type
REMARK                         _______ _______ _______ _____ _____    ______ ____
ROOT
ATOM      1  N   LIG    1        3.761   2.085   0.739  0.00  0.00    -0.450 N 
ATOM      2  C   LIG    1        4.625   1.050   0.520  0.00  0.00    +0.150 A 
ATOM      3  N   LIG    1        3.899  -0.029   0.328  0.00  0.00    -0.290 NA
ATOM      4  N   LIG    1        2.650   0.258   0.417  0.00  0.00    -0.240 NA
ATOM      5  C   LIG    1        2.501   1.537   0.670  0.00  0.00    +0.220 A 
ENDROOT
BRANCH   5   6
ATOM      6  C   LIG    1        1.220   2.256   0.842  0.00  0.00    -0.010 A 
ATOM      7  C   LIG    1        0.977   3.435   0.136  0.00  0.00    +0.040 A 
ATOM      8  C   LIG    1       -0.220   4.100   0.301  0.00  0.00    +0.030 A 
ATOM      9  C   LIG    1       -1.179   3.601   1.165  0.00  0.00    +0.050 A 
ATOM     10  C   LIG    1       -0.948   2.430   1.864  0.00  0.00    +0.030 A 
ATOM     11  C   LIG    1        0.247   1.757   1.712  0.00  0.00    +0.000 A 
ATOM     12 CL   LIG    1        0.539   0.291   2.595  0.00  0.00    -0.040 Cl
ENDBRANCH   5   6
BRANCH   1  13
ATOM     13  C   LIG    1        4.105   3.486   0.996  0.00  0.00    +0.310 C 
BRANCH  13  14
ATOM     14  C   LIG    1        4.136   3.734   2.505  0.00  0.00    +0.030 C 
BRANCH  14  15
ATOM     15  C   LIG    1        4.495   5.197   2.774  0.00  0.00    +0.180 C 
BRANCH  15  17
ATOM     16  C   LIG    1        4.851   6.772   4.545  0.00  0.00    +0.200 C 
ATOM     17  O   LIG    1        4.524   5.429   4.184  0.00  0.00    -0.390 OA
ENDBRANCH  15  17
ENDBRANCH  14  15
ENDBRANCH  13  14
ENDBRANCH   1  13
BRANCH   2  18
ATOM     18  S   LIG    1        6.384   1.145   0.493  0.00  0.00    +0.080 S 
BRANCH  18  19
ATOM     19  C   LIG    1        6.787  -0.586   0.146  0.00  0.00    +0.020 C 
ATOM     20  C   LIG    1        6.339  -1.459   1.320  0.00  0.00    +0.100 C 
BRANCH  19  21
ATOM     21  C   LIG    1        8.275  -0.726  -0.046  0.00  0.00    +0.540 C 
ATOM     22  N   LIG    1        8.766  -1.743  -0.782  0.00  0.00    -0.660 N 
ATOM     23  H   LIG    1        8.162  -2.339  -1.251  0.00  0.00    +0.420 HD
ATOM     24  O   LIG    1        9.030   0.075   0.462  0.00  0.00    -0.500 OA
BRANCH  22  25
ATOM     25  C   LIG    1       10.151  -1.938  -0.871  0.00  0.00    +0.150 A 
ATOM     26  C   LIG    1       10.993  -1.384   0.083  0.00  0.00    +0.070 A 
ATOM     27  C   LIG    1       12.358  -1.583  -0.002  0.00  0.00    +0.030 A 
ATOM     28  C   LIG    1       12.886  -2.325  -1.045  0.00  0.00    +0.100 A 
ATOM     29  C   LIG    1       12.049  -2.873  -2.002  0.00  0.00    +0.030 A 
ATOM     30  F   LIG    1       14.222  -2.513  -1.129  0.00  0.00    -0.130 F 
ATOM     31  C   LIG    1       10.683  -2.682  -1.917  0.00  0.00    -0.040 A 
ATOM     32 CL   LIG    1        9.633  -3.370  -3.116  0.00  0.00    -0.050 Cl
ENDBRANCH  22  25
ENDBRANCH  19  21
ENDBRANCH  18  19
ENDBRANCH   2  18
TORSDOF 9
