REMARK  Name = ZINCrD00000l5ymh.0
REMARK                            x       y       z     vdW  Elec       q    Type
REMARK                         _______ _______ _______ _____ _____    ______ ____
ROOT
ATOM      1  N   LIG    1       -3.329   3.957  -1.179  0.00  0.00    -0.600 N 
ATOM      2  C   LIG    1       -3.029   4.885  -2.109  0.00  0.00    +0.500 C 
ATOM      3  O   LIG    1       -2.072   5.613  -1.952  0.00  0.00    -0.500 OA
ENDROOT
BRANCH   2   4
ATOM      4  C   LIG    1       -3.883   5.018  -3.343  0.00  0.00    +0.170 C 
ATOM      5  C   LIG    1       -3.651   3.832  -4.308  0.00  0.00    +0.090 C 
ATOM      6  C   LIG    1       -2.587   4.372  -5.245  0.00  0.00    +0.120 C 
ATOM      7  N   LIG    1       -2.532   5.653  -5.099  0.00  0.00    -0.260 NA
ATOM      8  O   LIG    1       -3.458   6.138  -4.146  0.00  0.00    -0.160 OA
BRANCH   6   9
ATOM      9  C   LIG    1       -1.757   3.570  -6.165  0.00  0.00    -0.010 A 
ATOM     10  C   LIG    1       -0.808   4.194  -6.978  0.00  0.00    +0.050 A 
ATOM     11  C   LIG    1       -0.035   3.439  -7.836  0.00  0.00    +0.050 A 
ATOM     12  C   LIG    1       -0.196   2.067  -7.893  0.00  0.00    +0.010 A 
ATOM     13  C   LIG    1       -1.135   1.440  -7.089  0.00  0.00    +0.100 A 
ATOM     14  F   LIG    1       -1.287   0.099  -7.150  0.00  0.00    -0.130 F 
ATOM     15  C   LIG    1       -1.912   2.183  -6.222  0.00  0.00    +0.020 A 
ENDBRANCH   6   9
ENDBRANCH   2   4
BRANCH   1  17
ATOM     16  C   LIG    1       -5.747   3.638  -1.007  0.00  0.00    +0.010 C 
ATOM     17  C   LIG    1       -4.416   3.005  -1.418  0.00  0.00    +0.260 C 
ENDBRANCH   1  17
BRANCH   1  18
ATOM     18  C   LIG    1       -2.567   3.899   0.071  0.00  0.00    +0.350 C 
BRANCH  18  19
ATOM     19  C   LIG    1       -1.385   2.980  -0.102  0.00  0.00    -0.110 A 
ATOM     20  C   LIG    1       -0.115   3.509  -0.240  0.00  0.00    +0.080 A 
ATOM     21  C   LIG    1        0.971   2.673  -0.400  0.00  0.00    +0.060 A 
ATOM     22  C   LIG    1        0.787   1.289  -0.421  0.00  0.00    +0.010 A 
ATOM     23  C   LIG    1       -0.497   0.759  -0.282  0.00  0.00    +0.040 A 
ATOM     24  C   LIG    1       -1.577   1.607  -0.128  0.00  0.00    +0.110 A 
ATOM     25  F   LIG    1       -2.822   1.098   0.002  0.00  0.00    -0.130 F 
BRANCH  22  26
ATOM     26  C   LIG    1        1.911   0.417  -0.587  0.00  0.00    +0.250 C 
ATOM     27  N   LIG    1        2.802  -0.275  -0.718  0.00  0.00    -0.400 NA
ENDBRANCH  22  26
ENDBRANCH  18  19
ENDBRANCH   1  18
TORSDOF 6
