REMARK  Name = ZINCqH0000007tWK.0
REMARK                            x       y       z     vdW  Elec       q    Type
REMARK                         _______ _______ _______ _____ _____    ______ ____
ROOT
ATOM      1  C   LIG    1       -2.007   2.750  -0.724  0.00  0.00    +0.190 C 
ATOM      2  C   LIG    1       -0.771   2.139  -1.419  0.00  0.00    +0.030 C 
ATOM      3  C   LIG    1        0.141   1.663  -0.270  0.00  0.00    +0.020 C 
ATOM      4  C   LIG    1       -0.618   2.027   1.024  0.00  0.00    +0.160 C 
ATOM      5  N   LIG    1       -1.524   3.137   0.626  0.00  0.00    -0.490 NA
ENDROOT
BRANCH   1   9
ATOM      6  C   LIG    1       -3.371   6.193  -2.864  0.00  0.00    +0.170 A 
ATOM      7  C   LIG    1       -2.488   6.335  -1.803  0.00  0.00    -0.120 A 
ATOM      8  C   LIG    1       -2.049   5.221  -1.114  0.00  0.00    +0.130 A 
ATOM      9  C   LIG    1       -2.488   3.963  -1.478  0.00  0.00    -0.150 A 
ATOM     10  C   LIG    1       -3.368   3.815  -2.541  0.00  0.00    +0.170 A 
ATOM     11  C   LIG    1       -3.814   4.931  -3.231  0.00  0.00    -0.110 A 
BRANCH   6  13
ATOM     12  C   LIG    1       -3.305   8.557  -3.109  0.00  0.00    +0.250 C 
ATOM     13  O   LIG    1       -3.802   7.289  -3.542  0.00  0.00    -0.320 OA
ENDBRANCH   6  13
BRANCH  10  14
ATOM     14  O   LIG    1       -3.796   2.577  -2.902  0.00  0.00    -0.310 OA
ATOM     15  C   LIG    1       -4.700   2.499  -4.006  0.00  0.00    +0.240 C 
ENDBRANCH  10  14
ENDBRANCH   1   9
BRANCH   5  16
ATOM     16  C   LIG    1       -2.643   3.268   1.569  0.00  0.00    +0.210 C 
BRANCH  16  17
ATOM     17  C   LIG    1       -2.152   3.894   2.849  0.00  0.00    +0.520 C 
ATOM     18  N   LIG    1       -3.010   4.112   3.865  0.00  0.00    -0.680 N 
ATOM     19  H   LIG    1       -3.957   3.938   3.745  0.00  0.00    +0.410 HD
ATOM     20  O   LIG    1       -0.984   4.201   2.964  0.00  0.00    -0.500 OA
BRANCH  18  21
ATOM     21  C   LIG    1       -2.535   4.590   5.091  0.00  0.00    +0.150 A 
ATOM     22  C   LIG    1       -1.277   4.215   5.544  0.00  0.00    +0.000 A 
ATOM     23  C   LIG    1       -0.809   4.693   6.752  0.00  0.00    +0.030 A 
ATOM     24  C   LIG    1       -1.596   5.535   7.516  0.00  0.00    -0.020 A 
ATOM     25  C   LIG    1       -2.852   5.906   7.070  0.00  0.00    -0.070 A 
ATOM     26  C   LIG    1       -3.706   6.824   7.906  0.00  0.00    +0.090 C 
ATOM     27  C   LIG    1       -3.323   5.436   5.860  0.00  0.00    -0.030 A 
ENDBRANCH  18  21
ENDBRANCH  16  17
ENDBRANCH   5  16
TORSDOF 6
