REMARK  Name = ZINCqH0000037XDx.0
REMARK                            x       y       z     vdW  Elec       q    Type
REMARK                         _______ _______ _______ _____ _____    ______ ____
ROOT
ATOM      1  C   LIG    1       -0.233   5.289  -0.428  0.00  0.00    +0.560 C 
ATOM      2  N   LIG    1        0.882   6.034  -0.568  0.00  0.00    -0.720 N 
ATOM      3  H   LIG    1        1.754   5.613  -0.520  0.00  0.00    +0.400 HD
ATOM      4  O   LIG    1       -1.327   5.816  -0.488  0.00  0.00    -0.530 OA
ENDROOT
BRANCH   1  11
ATOM      5  C   LIG    1       -2.616   3.756   0.141  0.00  0.00    +0.120 C 
ATOM      6  C   LIG    1       -1.270   3.081   0.076  0.00  0.00    -0.020 A 
ATOM      7  C   LIG    1       -1.171   1.720   0.283  0.00  0.00    +0.000 A 
ATOM      8  C   LIG    1        0.060   1.095   0.230  0.00  0.00    +0.050 A 
ATOM      9  C   LIG    1        1.210   1.835  -0.044  0.00  0.00    -0.060 A 
ATOM     10  C   LIG    1        1.117   3.206  -0.259  0.00  0.00    +0.060 A 
ATOM     11  C   LIG    1       -0.126   3.832  -0.200  0.00  0.00    -0.140 A 
BRANCH   9  12
ATOM     12  C   LIG    1        2.530   1.160  -0.107  0.00  0.00    -0.050 A 
ATOM     13  C   LIG    1        3.679   1.896  -0.386  0.00  0.00    +0.010 A 
ATOM     14  C   LIG    1        4.905   1.264  -0.439  0.00  0.00    +0.010 A 
ATOM     15  C   LIG    1        4.993  -0.099  -0.225  0.00  0.00    +0.000 A 
ATOM     16  C   LIG    1        3.854  -0.836   0.049  0.00  0.00    +0.010 A 
ATOM     17  C   LIG    1        2.624  -0.214   0.108  0.00  0.00    +0.020 A 
ENDBRANCH   9  12
ENDBRANCH   1  11
BRANCH   2  18
ATOM     18  C   LIG    1        0.775   7.477  -0.794  0.00  0.00    +0.280 C 
BRANCH  18  19
ATOM     19  C   LIG    1        2.177   8.079  -0.918  0.00  0.00    +0.140 C 
ATOM     20  C   LIG    1        2.087   9.612  -1.123  0.00  0.00    +0.030 C 
ATOM     21  C   LIG    1        3.470  10.066  -0.571  0.00  0.00    +0.030 C 
ATOM     22  C   LIG    1        3.716   9.048   0.553  0.00  0.00    +0.080 C 
ATOM     23  C   LIG    1        3.390   9.675   1.921  0.00  0.00    +0.020 C 
ATOM     24  C   LIG    1        4.539   9.125   2.807  0.00  0.00    +0.210 C 
ATOM     25  O   LIG    1        5.678   9.113   1.918  0.00  0.00    -0.370 OA
ATOM     26  C   LIG    1        5.202   8.677   0.631  0.00  0.00    +0.200 C 
ATOM     27  O   LIG    1        2.906   7.903   0.310  0.00  0.00    -0.360 OA
ENDBRANCH  18  19
ENDBRANCH   2  18
TORSDOF 4
