REMARK  Name = ZINCrH000004rjxa.0
REMARK                            x       y       z     vdW  Elec       q    Type
REMARK                         _______ _______ _______ _____ _____    ______ ____
ROOT
ATOM      1  C   LIG    1        2.370   5.552   0.836  0.00  0.00    +0.210 A 
ATOM      2  N   LIG    1        3.330   6.138   1.485  0.00  0.00    -0.370 NA
ATOM      3  O   LIG    1        2.949   7.200   1.931  0.00  0.00    +0.100 OA
ATOM      4  C   LIG    1        1.667   7.393   1.606  0.00  0.00    +0.150 A 
ATOM      5  N   LIG    1        1.289   6.349   0.909  0.00  0.00    -0.450 NA
ENDROOT
BRANCH   1   6
ATOM      6  C   LIG    1        2.450   4.220   0.136  0.00  0.00    -0.020 C 
ATOM      7  C   LIG    1        3.405   4.104  -1.054  0.00  0.00    +0.060 C 
ATOM      8  C   LIG    1        3.751   3.426   0.274  0.00  0.00    +0.080 C 
BRANCH   6  16
ATOM      9  C   LIG    1        1.246   3.222   2.565  0.00  0.00    +0.080 C 
ATOM     10  C   LIG    1        0.586   2.962   1.235  0.00  0.00    -0.070 A 
ATOM     11  C   LIG    1       -0.595   2.246   1.179  0.00  0.00    +0.040 A 
ATOM     12  C   LIG    1       -1.204   2.012  -0.039  0.00  0.00    +0.000 A 
ATOM     13  C   LIG    1       -0.626   2.485  -1.204  0.00  0.00    +0.100 A 
ATOM     14  C   LIG    1        0.557   3.202  -1.147  0.00  0.00    +0.010 A 
ATOM     15  F   LIG    1       -1.218   2.252  -2.396  0.00  0.00    -0.140 F 
ATOM     16  C   LIG    1        1.162   3.440   0.073  0.00  0.00    -0.010 A 
ENDBRANCH   6  16
ENDBRANCH   1   6
BRANCH   4  17
ATOM     17  C   LIG    1        0.818   8.583   1.971  0.00  0.00    +0.500 C 
BRANCH  17  18
ATOM     18  N   LIG    1        0.152   8.334   3.252  0.00  0.00    -0.610 N 
ATOM     19  C   LIG    1       -1.165   7.710   3.423  0.00  0.00    +0.340 C 
ATOM     20  C   LIG    1       -1.421   7.666   4.909  0.00  0.00    -0.080 A 
ATOM     21  C   LIG    1       -2.468   7.201   5.671  0.00  0.00    +0.030 A 
ATOM     22  C   LIG    1       -2.418   7.306   7.051  0.00  0.00    +0.060 A 
ATOM     23  C   LIG    1       -1.318   7.878   7.666  0.00  0.00    +0.010 A 
ATOM     24  C   LIG    1       -0.263   8.347   6.911  0.00  0.00    +0.090 A 
ATOM     25  C   LIG    1       -0.306   8.244   5.520  0.00  0.00    -0.160 A 
ATOM     26  C   LIG    1        0.644   8.644   4.464  0.00  0.00    +0.560 C 
ATOM     27  O   LIG    1        1.718   9.178   4.662  0.00  0.00    -0.510 OA
ENDBRANCH  17  18
ENDBRANCH   4  17
TORSDOF 4
