REMARK  Name = ZINCrg000000s6CO.0
REMARK                            x       y       z     vdW  Elec       q    Type
REMARK                         _______ _______ _______ _____ _____    ______ ____
ROOT
ATOM      1  N   LIG    1        0.297   1.232  -2.383  0.00  0.00    -0.650 N 
ATOM      2  H   LIG    1        1.197   0.875  -2.320  0.00  0.00    +0.410 HD
ATOM      3  C   LIG    1       -0.401   1.503  -1.262  0.00  0.00    +0.520 C 
ATOM      4  O   LIG    1       -1.526   1.949  -1.342  0.00  0.00    -0.480 OA
ENDROOT
BRANCH   1  10
ATOM      5  N   LIG    1        0.314   1.244  -4.841  0.00  0.00    -0.340 N 
ATOM      6  N   LIG    1       -0.603   1.607  -5.836  0.00  0.00    -0.280 NA
ATOM      7  C   LIG    1       -1.694   2.037  -5.255  0.00  0.00    +0.100 A 
ATOM      8  C   LIG    1       -1.519   1.961  -3.871  0.00  0.00    -0.080 A 
ATOM      9  C   LIG    1       -2.931   2.531  -5.960  0.00  0.00    +0.170 C 
ATOM     10  C   LIG    1       -0.274   1.465  -3.634  0.00  0.00    +0.310 A 
BRANCH   5  15
ATOM     11  C   LIG    1        5.541  -0.794  -5.694  0.00  0.00    +0.090 C 
ATOM     12  C   LIG    1        4.153  -0.253  -5.468  0.00  0.00    -0.090 A 
ATOM     13  C   LIG    1        3.133  -0.585  -6.339  0.00  0.00    +0.040 A 
ATOM     14  C   LIG    1        1.859  -0.091  -6.134  0.00  0.00    +0.040 A 
ATOM     15  C   LIG    1        1.605   0.741  -5.052  0.00  0.00    +0.150 A 
ATOM     16  C   LIG    1        2.633   1.077  -4.182  0.00  0.00    -0.030 A 
ATOM     17  C   LIG    1        3.903   0.575  -4.389  0.00  0.00    +0.040 A 
ENDBRANCH   5  15
ENDBRANCH   1  10
BRANCH   3  18
ATOM     18  C   LIG    1        0.216   1.251   0.089  0.00  0.00    +0.220 C 
BRANCH  18  19
ATOM     19  N   LIG    1       -0.681   1.751   1.138  0.00  0.00    -0.510 NA
ATOM     20  C   LIG    1       -0.800   3.215   1.076  0.00  0.00    +0.150 C 
ATOM     21  C   LIG    1       -1.789   3.688   2.145  0.00  0.00    +0.220 C 
ATOM     22  O   LIG    1       -1.348   3.235   3.428  0.00  0.00    -0.380 OA
ATOM     23  C   LIG    1       -1.222   1.813   3.525  0.00  0.00    +0.240 C 
ATOM     24  C   LIG    1       -0.227   1.322   2.469  0.00  0.00    +0.130 C 
BRANCH  24  25
ATOM     25  C   LIG    1       -0.148  -0.205   2.514  0.00  0.00    +0.070 C 
BRANCH  25  26
ATOM     26  C   LIG    1        0.446  -0.639   3.829  0.00  0.00    +0.520 C 
ATOM     27  O   LIG    1        0.876   0.190   4.603  0.00  0.00    -0.540 OA
ATOM     28  N   LIG    1        0.498  -1.948   4.146  0.00  0.00    -0.850 N 
ATOM     29  H   LIG    1        0.881  -2.227   4.992  0.00  0.00    +0.400 HD
ATOM     30  H   LIG    1        0.154  -2.611   3.527  0.00  0.00    +0.400 HD
ENDBRANCH  25  26
ENDBRANCH  24  25
ENDBRANCH  18  19
ENDBRANCH   3  18
TORSDOF 6
