REMARK  Name = ZINCvU0000000CbU.0
REMARK                            x       y       z     vdW  Elec       q    Type
REMARK                         _______ _______ _______ _____ _____    ______ ____
ROOT
ATOM      1  C   LIG    1       -2.369   3.360  -0.797  0.00  0.00    +0.510 C 
ATOM      2  O   LIG    1       -3.312   2.821  -0.253  0.00  0.00    -0.490 OA
ENDROOT
BRANCH   1   3
ATOM      3  C   LIG    1       -1.207   2.557  -1.231  0.00  0.00    -0.100 A 
ATOM      4  C   LIG    1       -0.170   3.153  -1.942  0.00  0.00    +0.090 A 
ATOM      5  C   LIG    1        0.915   2.397  -2.346  0.00  0.00    +0.020 A 
ATOM      6  C   LIG    1        0.979   1.047  -2.048  0.00  0.00    +0.060 A 
ATOM      7  C   LIG    1       -0.042   0.438  -1.342  0.00  0.00    +0.040 A 
ATOM      8  C   LIG    1       -1.145   1.181  -0.932  0.00  0.00    -0.090 A 
BRANCH   8   9
ATOM      9  C   LIG    1       -2.243   0.533  -0.183  0.00  0.00    +0.460 C 
ATOM     10  O   LIG    1       -2.102   0.272   0.996  0.00  0.00    -0.430 OA
BRANCH   9  11
ATOM     11  C   LIG    1       -3.509   0.202  -0.866  0.00  0.00    -0.130 A 
ATOM     12  C   LIG    1       -3.636   0.403  -2.243  0.00  0.00    +0.070 A 
ATOM     13  C   LIG    1       -4.820   0.088  -2.876  0.00  0.00    +0.020 A 
ATOM     14  C   LIG    1       -5.885  -0.418  -2.148  0.00  0.00    -0.010 A 
ATOM     15  C   LIG    1       -5.767  -0.614  -0.781  0.00  0.00    +0.020 A 
ATOM     16 CL   LIG    1       -7.374  -0.806  -2.951  0.00  0.00    -0.060 Cl
ATOM     17  C   LIG    1       -4.587  -0.307  -0.138  0.00  0.00    +0.100 A 
ENDBRANCH   9  11
ENDBRANCH   8   9
ENDBRANCH   1   3
BRANCH   1  18
ATOM     18  O   LIG    1       -2.383   4.691  -1.004  0.00  0.00    -0.320 OA
BRANCH  18  19
ATOM     19  C   LIG    1       -3.556   5.417  -0.551  0.00  0.00    +0.270 C 
BRANCH  19  21
ATOM     20  N   LIG    1       -4.365   7.754  -0.535  0.00  0.00    -0.570 N 
ATOM     21  C   LIG    1       -3.393   6.882  -0.866  0.00  0.00    +0.520 C 
ATOM     22  O   LIG    1       -2.387   7.275  -1.417  0.00  0.00    -0.500 OA
BRANCH  20  23
ATOM     23  C   LIG    1       -4.173   9.126  -0.735  0.00  0.00    +0.140 A 
ATOM     24  C   LIG    1       -3.443   9.868   0.185  0.00  0.00    +0.010 A 
ATOM     25  C   LIG    1       -3.251  11.220  -0.018  0.00  0.00    +0.020 A 
ATOM     26  C   LIG    1       -3.793  11.838  -1.131  0.00  0.00    +0.020 A 
ATOM     27  C   LIG    1       -4.524  11.103  -2.046  0.00  0.00    +0.020 A 
ATOM     28  C   LIG    1       -4.715   9.749  -1.851  0.00  0.00    +0.010 A 
ENDBRANCH  20  23
BRANCH  20  30
ATOM     29  C   LIG    1       -5.868   7.944   1.385  0.00  0.00    +0.040 C 
ATOM     30  C   LIG    1       -5.624   7.267   0.035  0.00  0.00    +0.230 C 
ATOM     31  C   LIG    1       -6.776   7.597  -0.916  0.00  0.00    +0.030 C 
ENDBRANCH  20  30
ENDBRANCH  19  21
ENDBRANCH  18  19
ENDBRANCH   1  18
TORSDOF 8
