REMARK  Name = ZINCrg00000Mfq45.1
REMARK                            x       y       z     vdW  Elec       q    Type
REMARK                         _______ _______ _______ _____ _____    ______ ____
ROOT
ATOM      1  C   LIG    1        5.673  -5.081  -3.437  0.00  0.00    +0.250 C 
ATOM      2  C   LIG    1        4.234  -5.052  -3.991  0.00  0.00    +0.010 C 
ATOM      3  C   LIG    1        3.373  -4.328  -2.940  0.00  0.00    +0.010 C 
ATOM      4  C   LIG    1        4.320  -3.943  -1.784  0.00  0.00    +0.240 C 
ATOM      5  C   LIG    1        5.496  -4.944  -1.903  0.00  0.00    +0.020 C 
ENDROOT
BRANCH   1   7
ATOM      6  C   LIG    1        5.736  -7.615  -3.317  0.00  0.00    +0.290 C 
ATOM      7  N   LIG    1        6.324  -6.351  -3.768  0.00  0.00    -0.600 N 
ATOM      8  C   LIG    1        7.465  -6.357  -4.486  0.00  0.00    +0.610 C 
ATOM      9  O   LIG    1        8.006  -5.307  -4.776  0.00  0.00    -0.520 OA
BRANCH   8  10
ATOM     10  C   LIG    1        8.056  -7.635  -4.920  0.00  0.00    +0.000 A 
ATOM     11  N   LIG    1        7.533  -8.834  -4.778  0.00  0.00    -0.200 NA
ATOM     12  N   LIG    1        8.292  -9.750  -5.261  0.00  0.00    -0.420 N 
ATOM     13  H   LIG    1        8.082 -10.697  -5.251  0.00  0.00    +0.450 HD
ATOM     14  C   LIG    1        9.439  -9.217  -5.790  0.00  0.00    +0.060 A 
ATOM     15  C   LIG    1       10.563  -9.742  -6.418  0.00  0.00    +0.010 A 
ATOM     16  C   LIG    1       11.565  -8.897  -6.841  0.00  0.00    +0.050 A 
ATOM     17  C   LIG    1       11.466  -7.526  -6.648  0.00  0.00    -0.010 A 
ATOM     18  C   LIG    1       10.369  -6.988  -6.033  0.00  0.00    +0.100 A 
ATOM     19  C   LIG    1        9.343  -7.823  -5.603  0.00  0.00    -0.110 A 
ENDBRANCH   8  10
ENDBRANCH   1   7
BRANCH   4  20
ATOM     20  N   LIG    1        3.644  -4.097  -0.494  0.00  0.00    -0.720 N 
ATOM     21  H   LIG    1        3.709  -4.935  -0.009  0.00  0.00    +0.400 HD
ATOM     22  C   LIG    1        2.931  -3.075   0.019  0.00  0.00    +0.520 C 
ATOM     23  O   LIG    1        2.849  -2.028  -0.587  0.00  0.00    -0.510 OA
BRANCH  22  24
ATOM     24  C   LIG    1        2.235  -3.234   1.347  0.00  0.00    +0.190 C 
BRANCH  24  25
ATOM     25  C   LIG    1        1.514  -1.956   1.692  0.00  0.00    +0.180 A 
ATOM     26  N   LIG    1        2.041  -0.764   1.758  0.00  0.00    -0.260 NA
ATOM     27  N   LIG    1        1.137   0.092   2.079  0.00  0.00    -0.290 NA
ATOM     28  C   LIG    1       -0.009  -0.515   2.232  0.00  0.00    +0.380 A 
ATOM     29  N   LIG    1        0.198  -1.832   1.990  0.00  0.00    -0.580 N 
ATOM     30  H   LIG    1       -0.462  -2.542   2.025  0.00  0.00    +0.430 HD
ENDBRANCH  24  25
ENDBRANCH  22  24
ENDBRANCH   4  20
TORSDOF 5
