REMARK  Name = ZINCrg00000Mfq45.0
REMARK                            x       y       z     vdW  Elec       q    Type
REMARK                         _______ _______ _______ _____ _____    ______ ____
ROOT
ATOM      1  C   LIG    1        2.220   6.953  -0.206  0.00  0.00    +0.250 C 
ATOM      2  C   LIG    1        2.071   7.684  -1.557  0.00  0.00    +0.030 C 
ATOM      3  C   LIG    1        1.232   8.941  -1.218  0.00  0.00    +0.010 C 
ATOM      4  C   LIG    1        1.782   9.356   0.169  0.00  0.00    +0.240 C 
ATOM      5  C   LIG    1        2.036   8.016   0.891  0.00  0.00    +0.020 C 
ENDROOT
BRANCH   1   7
ATOM      6  C   LIG    1       -0.225   6.293  -0.047  0.00  0.00    +0.290 C 
ATOM      7  N   LIG    1        1.191   5.918  -0.080  0.00  0.00    -0.600 N 
ATOM      8  C   LIG    1        1.547   4.621   0.006  0.00  0.00    +0.610 C 
ATOM      9  O   LIG    1        2.722   4.316   0.068  0.00  0.00    -0.530 OA
BRANCH   8  10
ATOM     10  C   LIG    1        0.511   3.573   0.025  0.00  0.00    +0.000 A 
ATOM     11  N   LIG    1       -0.792   3.752   0.063  0.00  0.00    -0.200 NA
ATOM     12  N   LIG    1       -1.430   2.638   0.066  0.00  0.00    -0.420 N 
ATOM     13  H   LIG    1       -2.397   2.561   0.087  0.00  0.00    +0.450 HD
ATOM     14  C   LIG    1       -0.569   1.572   0.038  0.00  0.00    +0.060 A 
ATOM     15  C   LIG    1       -0.723   0.190   0.030  0.00  0.00    +0.010 A 
ATOM     16  C   LIG    1        0.390  -0.620  -0.007  0.00  0.00    +0.050 A 
ATOM     17  C   LIG    1        1.666  -0.073  -0.038  0.00  0.00    -0.010 A 
ATOM     18  C   LIG    1        1.840   1.284  -0.031  0.00  0.00    +0.100 A 
ATOM     19  C   LIG    1        0.729   2.120   0.007  0.00  0.00    -0.110 A 
ENDBRANCH   8  10
ENDBRANCH   1   7
BRANCH   4  20
ATOM     20  N   LIG    1        0.790  10.151   0.897  0.00  0.00    -0.720 N 
ATOM     21  H   LIG    1        0.143   9.711   1.471  0.00  0.00    +0.400 HD
ATOM     22  C   LIG    1        0.777  11.492   0.770  0.00  0.00    +0.520 C 
ATOM     23  O   LIG    1        1.586  12.042   0.052  0.00  0.00    -0.520 OA
BRANCH  22  24
ATOM     24  C   LIG    1       -0.244  12.310   1.519  0.00  0.00    +0.190 C 
BRANCH  24  25
ATOM     25  C   LIG    1       -0.045  13.771   1.206  0.00  0.00    +0.240 A 
ATOM     26  N   LIG    1        0.722  14.593   1.872  0.00  0.00    -0.300 NA
ATOM     27  N   LIG    1        0.617  15.845   1.244  0.00  0.00    -0.480 N 
ATOM     28  H   LIG    1        1.069  16.664   1.502  0.00  0.00    +0.440 HD
ATOM     29  C   LIG    1       -0.237  15.684   0.219  0.00  0.00    +0.490 A 
ATOM     30  N   LIG    1       -0.626  14.435   0.207  0.00  0.00    -0.540 NA
ENDBRANCH  24  25
ENDBRANCH  22  24
ENDBRANCH   4  20
TORSDOF 5
