REMARK  Name = ZINCtV00000L6l9b.0
REMARK                            x       y       z     vdW  Elec       q    Type
REMARK                         _______ _______ _______ _____ _____    ______ ____
ROOT
ATOM      1  C   LIG    1       -1.042  -3.035  -2.609  0.00  0.00    +0.250 C 
ENDROOT
BRANCH   1   4
ATOM      2  N   LIG    1       -0.907  -0.657  -1.940  0.00  0.00    -0.670 N 
ATOM      3  H   LIG    1       -0.529  -0.948  -1.096  0.00  0.00    +0.410 HD
ATOM      4  C   LIG    1       -1.210  -1.564  -2.891  0.00  0.00    +0.490 C 
ATOM      5  O   LIG    1       -1.617  -1.196  -3.972  0.00  0.00    -0.490 OA
BRANCH   2  11
ATOM      6  C   LIG    1       -1.355   1.564  -1.105  0.00  0.00    -0.110 A 
ATOM      7  C   LIG    1       -1.578   2.907  -1.337  0.00  0.00    +0.020 A 
ATOM      8  C   LIG    1       -1.591   3.394  -2.631  0.00  0.00    -0.010 A 
ATOM      9  C   LIG    1       -1.382   2.538  -3.697  0.00  0.00    +0.020 A 
ATOM     10  C   LIG    1       -1.159   1.194  -3.471  0.00  0.00    +0.020 A 
ATOM     11  C   LIG    1       -1.139   0.703  -2.172  0.00  0.00    +0.150 A 
BRANCH   6  12
ATOM     12  C   LIG    1       -1.341   1.035   0.306  0.00  0.00    +0.020 C 
ATOM     13  C   LIG    1       -2.647   1.413   1.006  0.00  0.00    +0.030 C 
BRANCH  12  15
ATOM     14  C   LIG    1       -0.071   1.011   2.458  0.00  0.00    +0.010 C 
ATOM     15  C   LIG    1       -0.160   1.642   1.067  0.00  0.00    +0.010 C 
ENDBRANCH  12  15
ENDBRANCH   6  12
ENDBRANCH   2  11
ENDBRANCH   1   4
BRANCH   1  16
ATOM     16  C   LIG    1        0.422  -3.326  -2.273  0.00  0.00    -0.010 C 
ATOM     17  C   LIG    1        1.293  -3.042  -3.499  0.00  0.00    +0.030 C 
ATOM     18  C   LIG    1        0.571  -4.795  -1.871  0.00  0.00    +0.040 C 
ENDBRANCH   1  16
BRANCH   1  19
ATOM     19  N   LIG    1       -1.434  -3.806  -3.791  0.00  0.00    -0.710 N 
ATOM     20  H   LIG    1       -0.756  -4.145  -4.396  0.00  0.00    +0.410 HD
BRANCH  19  21
ATOM     21  C   LIG    1       -2.785  -4.053  -4.048  0.00  0.00    +0.270 A 
ATOM     22  C   LIG    1       -3.762  -3.483  -3.242  0.00  0.00    -0.050 A 
ATOM     23  C   LIG    1       -5.097  -3.729  -3.498  0.00  0.00    +0.130 A 
ATOM     24  C   LIG    1       -5.462  -4.542  -4.555  0.00  0.00    -0.230 A 
ATOM     25  C   LIG    1       -4.492  -5.112  -5.360  0.00  0.00    +0.140 A 
ATOM     26  C   LIG    1       -3.155  -4.867  -5.113  0.00  0.00    -0.110 A 
ATOM     27 CL   LIG    1       -1.939  -5.577  -6.127  0.00  0.00    -0.060 Cl
BRANCH  24  28
ATOM     28  C   LIG    1       -6.920  -4.807  -4.832  0.00  0.00    +0.520 C 
ATOM     29  F   LIG    1       -7.638  -4.756  -3.632  0.00  0.00    -0.180 F 
ATOM     30  F   LIG    1       -7.062  -6.074  -5.407  0.00  0.00    -0.180 F 
ATOM     31  F   LIG    1       -7.411  -3.837  -5.712  0.00  0.00    -0.180 F 
ENDBRANCH  24  28
ENDBRANCH  19  21
ENDBRANCH   1  19
TORSDOF 8
