REMARK  Name = ZINCpk000000nvbd.0
REMARK                            x       y       z     vdW  Elec       q    Type
REMARK                         _______ _______ _______ _____ _____    ______ ____
ROOT
ATOM      1  N   LIG    1        5.769  10.042   2.716  0.00  0.00    -1.000 NA
ATOM      2  C   LIG    1        5.824  10.141   1.251  0.00  0.00    +0.300 C 
ATOM      3  C   LIG    1        4.582   9.463   0.664  0.00  0.00    +0.020 C 
ATOM      4  C   LIG    1        4.489   8.031   1.194  0.00  0.00    +0.250 C 
ATOM      5  C   LIG    1        4.350   8.057   2.718  0.00  0.00    +0.000 C 
ATOM      6  C   LIG    1        5.590   8.718   3.328  0.00  0.00    +0.300 C 
ENDROOT
BRANCH   4   7
ATOM      7  N   LIG    1        3.320   7.369   0.609  0.00  0.00    -0.720 N 
ATOM      8  H   LIG    1        2.568   7.897   0.299  0.00  0.00    +0.400 HD
ATOM      9  C   LIG    1        3.290   6.026   0.501  0.00  0.00    +0.520 C 
ATOM     10  O   LIG    1        4.230   5.365   0.889  0.00  0.00    -0.510 OA
BRANCH   9  11
ATOM     11  C   LIG    1        2.087   5.345  -0.101  0.00  0.00    +0.170 C 
ATOM     12  C   LIG    1        1.962   5.740  -1.573  0.00  0.00    +0.060 C 
BRANCH  11  13
ATOM     13  O   LIG    1        2.242   3.928   0.001  0.00  0.00    -0.280 OA
BRANCH  13  14
ATOM     14  C   LIG    1        1.105   3.182   0.006  0.00  0.00    +0.080 A 
ATOM     15  C   LIG    1       -0.133   3.782  -0.199  0.00  0.00    -0.030 A 
ATOM     16  C   LIG    1       -1.263   2.980  -0.184  0.00  0.00    +0.010 A 
ATOM     17  C   LIG    1       -1.125   1.623   0.037  0.00  0.00    +0.220 A 
ATOM     18  N   LIG    1        0.065   1.085   0.223  0.00  0.00    -0.440 NA
ATOM     19  C   LIG    1        1.164   1.812   0.217  0.00  0.00    +0.250 A 
ENDBRANCH  13  14
ENDBRANCH  11  13
ENDBRANCH   9  11
ENDBRANCH   4   7
BRANCH   1  20
ATOM     20  S   LIG    1        5.907  11.396   3.659  0.00  0.00    +2.600 S 
ATOM     21  O   LIG    1        6.652  12.305   2.860  0.00  0.00    -0.950 OA
ATOM     22  O   LIG    1        6.422  10.913   4.892  0.00  0.00    -0.950 OA
BRANCH  20  23
ATOM     23  C   LIG    1        4.202  11.979   3.866  0.00  0.00    -0.360 C 
BRANCH  23  25
ATOM     24  C   LIG    1        4.923  14.368   3.992  0.00  0.00    +0.030 C 
ATOM     25  C   LIG    1        4.196  13.242   4.730  0.00  0.00    -0.010 C 
ATOM     26  C   LIG    1        2.752  13.663   5.009  0.00  0.00    +0.040 C 
ENDBRANCH  23  25
ENDBRANCH  20  23
ENDBRANCH   1  20
TORSDOF 7
