REMARK  Name = ZINCpk00000y6w4P.0
REMARK                            x       y       z     vdW  Elec       q    Type
REMARK                         _______ _______ _______ _____ _____    ______ ____
ROOT
ATOM      1  C   LIG    1       -0.612   1.634  -1.314  0.00  0.00    +0.080 C 
ATOM      2  C   LIG    1        0.618   1.589  -2.255  0.00  0.00    +0.270 C 
ATOM      3  N   LIG    1        1.761   1.959  -1.400  0.00  0.00    -0.620 N 
ATOM      4  C   LIG    1        1.423   1.651  -0.003  0.00  0.00    +0.260 C 
ATOM      5  C   LIG    1        2.923   2.491  -1.829  0.00  0.00    +0.530 C 
ATOM      6  O   LIG    1        3.093   2.703  -3.011  0.00  0.00    -0.540 OA
ATOM      7  C   LIG    1       -0.013   1.086   0.008  0.00  0.00    +0.010 C 
ENDROOT
BRANCH   1  11
ATOM      8  C   LIG    1       -5.085  -0.046  -2.826  0.00  0.00    +0.360 C 
ATOM      9  N   LIG    1       -3.663   0.012  -2.478  0.00  0.00    -0.370 N 
ATOM     10  C   LIG    1       -3.003   1.095  -2.017  0.00  0.00    +0.240 A 
ATOM     11  C   LIG    1       -1.712   0.738  -1.821  0.00  0.00    -0.230 A 
ATOM     12  C   LIG    1       -1.582  -0.612  -2.166  0.00  0.00    +0.240 A 
ATOM     13  N   LIG    1       -2.751  -1.048  -2.560  0.00  0.00    -0.290 NA
ENDBRANCH   1  11
BRANCH   5  14
ATOM     14  C   LIG    1        4.010   2.821  -0.840  0.00  0.00    +0.070 C 
BRANCH  14  15
ATOM     15  C   LIG    1        5.213   3.408  -1.581  0.00  0.00    +0.110 C 
BRANCH  15  16
ATOM     16  C   LIG    1        6.301   3.738  -0.592  0.00  0.00    -0.050 A 
ATOM     17  C   LIG    1        6.346   4.993  -0.012  0.00  0.00    +0.010 A 
ATOM     18  C   LIG    1        7.336   5.301   0.898  0.00  0.00    +0.060 A 
ATOM     19  C   LIG    1        8.301   4.346   1.225  0.00  0.00    -0.030 A 
ATOM     20  C   LIG    1        8.252   3.083   0.632  0.00  0.00    +0.060 A 
ATOM     21  C   LIG    1        7.253   2.787  -0.272  0.00  0.00    +0.010 A 
BRANCH  19  22
ATOM     22  C   LIG    1        9.335   4.660   2.164  0.00  0.00    +0.250 C 
ATOM     23  N   LIG    1       10.156   4.910   2.909  0.00  0.00    -0.410 NA
ENDBRANCH  19  22
ENDBRANCH  15  16
ENDBRANCH  14  15
ENDBRANCH   5  14
BRANCH   7  24
ATOM     24  C   LIG    1       -0.791   1.608   1.217  0.00  0.00    +0.190 C 
BRANCH  24  25
ATOM     25  O   LIG    1       -0.251   1.041   2.413  0.00  0.00    -0.570 OA
ATOM     26  H   LIG    1       -0.697   1.329   3.221  0.00  0.00    +0.380 HD
ENDBRANCH  24  25
ENDBRANCH   7  24
TORSDOF 7
