REMARK  Name = ZINCBI0000000fB8.0
REMARK                            x       y       z     vdW  Elec       q    Type
REMARK                         _______ _______ _______ _____ _____    ______ ____
ROOT
ATOM      1  C   LIG    1       -0.290   1.323   0.503  0.00  0.00    +0.500 C 
ATOM      2  N   LIG    1       -0.195   0.005   0.239  0.00  0.00    -0.690 N 
ATOM      3  H   LIG    1        0.676  -0.418   0.185  0.00  0.00    +0.410 HD
ATOM      4  O   LIG    1       -1.380   1.852   0.565  0.00  0.00    -0.510 OA
ENDROOT
BRANCH   1   7
ATOM      5  N   LIG    1        0.853   3.452   0.979  0.00  0.00    -0.700 N 
ATOM      6  H   LIG    1       -0.019   3.874   1.033  0.00  0.00    +0.420 HD
ATOM      7  C   LIG    1        0.947   2.134   0.715  0.00  0.00    +0.510 C 
ATOM      8  O   LIG    1        2.038   1.605   0.648  0.00  0.00    -0.510 OA
BRANCH   5  17
ATOM      9  C   LIG    1        3.604   5.339  -2.652  0.00  0.00    -0.170 A 
ATOM     10  C   LIG    1        3.113   4.067  -2.422  0.00  0.00    +0.030 A 
ATOM     11  C   LIG    1        2.620   3.739  -1.176  0.00  0.00    +0.040 A 
ATOM     12  C   LIG    1        2.613   4.675  -0.150  0.00  0.00    -0.060 A 
ATOM     13  C   LIG    1        3.098   5.943  -0.381  0.00  0.00    -0.060 A 
ATOM     14  C   LIG    1        3.114   7.010   0.682  0.00  0.00    +0.090 C 
ATOM     15  C   LIG    1        2.951   6.391   2.068  0.00  0.00    +0.040 C 
ATOM     16  C   LIG    1        1.730   5.465   2.044  0.00  0.00    +0.040 C 
ATOM     17  C   LIG    1        2.066   4.246   1.186  0.00  0.00    +0.290 C 
ATOM     18  C   LIG    1        3.595   6.271  -1.635  0.00  0.00    +0.030 A 
BRANCH   9  19
ATOM     19  C   LIG    1        4.147   5.706  -4.009  0.00  0.00    +0.330 C 
BRANCH  19  20
ATOM     20  N   LIG    1        3.062   6.241  -4.843  0.00  0.00    -0.640 N 
ATOM     21  H   LIG    1        2.674   7.061  -4.403  0.00  0.00    +0.430 HD
ATOM     22  H   LIG    1        2.342   5.542  -4.946  0.00  0.00    +0.430 HD
ATOM     23  H   LIG    1        3.426   6.486  -5.751  0.00  0.00    +0.440 HD
ENDBRANCH  19  20
ENDBRANCH   9  19
ENDBRANCH   5  17
ENDBRANCH   1   7
BRANCH   2  24
ATOM     24  C   LIG    1       -1.408  -0.790   0.032  0.00  0.00    +0.320 C 
BRANCH  24  25
ATOM     25  C   LIG    1       -1.038  -2.244  -0.114  0.00  0.00    -0.110 A 
ATOM     26  C   LIG    1       -1.076  -2.845  -1.355  0.00  0.00    +0.030 A 
ATOM     27  C   LIG    1       -0.731  -4.178  -1.491  0.00  0.00    +0.010 A 
ATOM     28  C   LIG    1       -0.357  -4.918  -0.384  0.00  0.00    +0.030 A 
ATOM     29  C   LIG    1       -0.321  -4.327   0.863  0.00  0.00    +0.030 A 
ATOM     30  C   LIG    1       -0.662  -2.984   1.005  0.00  0.00    -0.030 A 
BRANCH  30  31
ATOM     31  C   LIG    1       -0.625  -2.344   2.343  0.00  0.00    -0.040 A 
ATOM     32  C   LIG    1        0.548  -2.364   3.096  0.00  0.00    +0.030 A 
ATOM     33  C   LIG    1        0.579  -1.764   4.338  0.00  0.00    +0.040 A 
ATOM     34  C   LIG    1       -0.555  -1.150   4.840  0.00  0.00    -0.110 A 
ATOM     35  C   LIG    1       -1.723  -1.131   4.100  0.00  0.00    +0.040 A 
ATOM     36  C   LIG    1       -1.763  -1.724   2.854  0.00  0.00    +0.020 A 
BRANCH  34  37
ATOM     37  C   LIG    1       -0.517  -0.500   6.199  0.00  0.00    +0.350 C 
BRANCH  37  38
ATOM     38  N   LIG    1       -0.892  -1.482   7.220  0.00  0.00    -0.460 N 
ATOM     39  C   LIG    1       -0.043  -2.317   7.896  0.00  0.00    +0.110 A 
ATOM     40  C   LIG    1       -0.801  -3.048   8.735  0.00  0.00    +0.140 A 
ATOM     41  N   LIG    1       -2.079  -2.670   8.576  0.00  0.00    -0.490 NA
ATOM     42  C   LIG    1       -2.140  -1.728   7.675  0.00  0.00    +0.380 A 
ENDBRANCH  37  38
ENDBRANCH  34  37
ENDBRANCH  30  31
ENDBRANCH  24  25
ENDBRANCH   2  24
TORSDOF 9
