REMARK  Name = ZINCvU000000040I.0
REMARK                            x       y       z     vdW  Elec       q    Type
REMARK                         _______ _______ _______ _____ _____    ______ ____
ROOT
ATOM      1  O   LIG    1       -7.447   4.894   0.027  0.00  0.00    -0.480 OA
ATOM      2  C   LIG    1       -6.542   5.695  -0.075  0.00  0.00    +0.520 C 
ATOM      3  N   LIG    1       -5.264   5.268  -0.108  0.00  0.00    -0.620 N 
ATOM      4  H   LIG    1       -4.540   5.909  -0.190  0.00  0.00    +0.430 HD
ENDROOT
BRANCH   3   5
ATOM      5  C   LIG    1       -4.983   3.910  -0.027  0.00  0.00    +0.280 A 
ATOM      6  N   LIG    1       -3.797   3.387  -0.049  0.00  0.00    -0.500 NA
ATOM      7  C   LIG    1       -3.719   2.067   0.039  0.00  0.00    +0.130 A 
ATOM      8  C   LIG    1       -4.897   1.425   0.137  0.00  0.00    -0.110 A 
ATOM      9  S   LIG    1       -6.183   2.630   0.122  0.00  0.00    +0.210 S 
BRANCH   7  10
ATOM     10  C   LIG    1       -2.422   1.347   0.025  0.00  0.00    -0.020 A 
ATOM     11  C   LIG    1       -2.397  -0.046   0.016  0.00  0.00    +0.040 A 
ATOM     12  C   LIG    1       -1.190  -0.715   0.004  0.00  0.00    +0.030 A 
ATOM     13  C   LIG    1        0.002  -0.004   0.002  0.00  0.00    +0.060 A 
ATOM     14  O   LIG    1        1.182  -0.684  -0.006  0.00  0.00    -0.310 OA
ATOM     15  C   LIG    1        2.347   0.055  -0.388  0.00  0.00    +0.220 C 
ATOM     16  C   LIG    1        2.335   1.393   0.364  0.00  0.00    +0.220 C 
ATOM     17  O   LIG    1        1.143   2.099   0.002  0.00  0.00    -0.310 OA
ATOM     18  C   LIG    1       -0.017   1.387   0.010  0.00  0.00    +0.050 A 
ATOM     19  C   LIG    1       -1.226   2.062   0.019  0.00  0.00    +0.060 A 
ENDBRANCH   7  10
ENDBRANCH   3   5
BRANCH   2  20
ATOM     20  C   LIG    1       -6.847   7.169  -0.163  0.00  0.00    +0.180 C 
BRANCH  20  21
ATOM     21  C   LIG    1       -8.338   7.378  -0.103  0.00  0.00    +0.070 A 
ATOM     22  C   LIG    1       -8.907   8.179   0.803  0.00  0.00    -0.090 A 
ATOM     23  S   LIG    1      -10.650   8.158   0.541  0.00  0.00    +0.150 S 
ATOM     24  C   LIG    1      -10.430   7.031  -0.795  0.00  0.00    +0.100 A 
ATOM     25  N   LIG    1       -9.160   6.779  -0.935  0.00  0.00    -0.430 NA
BRANCH  24  26
ATOM     26  C   LIG    1      -11.513   6.462  -1.625  0.00  0.00    -0.010 A 
ATOM     27  C   LIG    1      -11.212   5.580  -2.663  0.00  0.00    +0.090 A 
ATOM     28  C   LIG    1      -12.228   5.049  -3.430  0.00  0.00    +0.030 A 
ATOM     29  C   LIG    1      -13.543   5.397  -3.180  0.00  0.00    +0.050 A 
ATOM     30  C   LIG    1      -13.850   6.275  -2.156  0.00  0.00    +0.030 A 
ATOM     31  C   LIG    1      -12.843   6.810  -1.377  0.00  0.00    -0.030 A 
ATOM     32 CL   LIG    1      -13.229   7.912  -0.092  0.00  0.00    -0.030 Cl
ENDBRANCH  24  26
ENDBRANCH  20  21
ENDBRANCH   2  20
TORSDOF 5
