REMARK  Name = ZINCpk00000y6xU6.0
REMARK                            x       y       z     vdW  Elec       q    Type
REMARK                         _______ _______ _______ _____ _____    ______ ____
ROOT
ATOM      1  C   LIG    1        3.530   0.650  -0.028  0.00  0.00    +0.620 C 
ATOM      2  N   LIG    1        4.186  -0.527  -0.040  0.00  0.00    -0.610 N 
ATOM      3  C   LIG    1        3.560  -1.857  -0.043  0.00  0.00    +0.280 C 
ATOM      4  C   LIG    1        4.698  -2.900  -0.032  0.00  0.00    +0.110 C 
ATOM      5  C   LIG    1        5.896  -2.101   0.546  0.00  0.00    +0.030 C 
ATOM      6  C   LIG    1        5.651  -0.694  -0.061  0.00  0.00    +0.290 C 
ATOM      7  O   LIG    1        4.154   1.694  -0.028  0.00  0.00    -0.540 OA
ENDROOT
BRANCH   4   8
ATOM      8  C   LIG    1        4.348  -4.063   0.859  0.00  0.00    +0.300 A 
ATOM      9  N   LIG    1        4.691  -5.310   0.665  0.00  0.00    -0.510 NA
ATOM     10  C   LIG    1        4.214  -6.069   1.651  0.00  0.00    +0.230 A 
ATOM     11  N   LIG    1        3.550  -5.313   2.485  0.00  0.00    -0.290 NA
ATOM     12  N   LIG    1        3.624  -4.001   1.990  0.00  0.00    -0.470 N 
ATOM     13  H   LIG    1        3.230  -3.207   2.385  0.00  0.00    +0.440 HD
BRANCH  10  14
ATOM     14  C   LIG    1        4.403  -7.559   1.780  0.00  0.00    +0.320 C 
BRANCH  14  15
ATOM     15  O   LIG    1        3.337  -8.234   1.110  0.00  0.00    -0.380 OA
ATOM     16  C   LIG    1        3.421  -9.659   1.172  0.00  0.00    +0.220 C 
ENDBRANCH  14  15
ENDBRANCH  10  14
ENDBRANCH   4   8
BRANCH   1  20
ATOM     17  N   LIG    1       -0.016   1.354   0.009  0.00  0.00    -0.450 N 
ATOM     18  C   LIG    1        0.002  -0.004   0.002  0.00  0.00    +0.400 A 
ATOM     19  N   LIG    1        1.238  -0.411  -0.012  0.00  0.00    -0.470 NA
ATOM     20  C   LIG    1        2.057   0.672  -0.014  0.00  0.00    -0.070 A 
ATOM     21  C   LIG    1        1.267   1.784  -0.001  0.00  0.00    +0.230 A 
BRANCH  17  23
ATOM     22  C   LIG    1       -1.619   2.490   1.466  0.00  0.00    +0.040 C 
ATOM     23  C   LIG    1       -1.211   2.202   0.020  0.00  0.00    +0.300 C 
ENDBRANCH  17  23
ENDBRANCH   1  20
BRANCH   5  24
ATOM     24  C   LIG    1        7.227  -2.680   0.062  0.00  0.00    -0.030 C 
ATOM     25  C   LIG    1        8.113  -3.375   1.097  0.00  0.00    +0.020 C 
ATOM     26  C   LIG    1        8.510  -2.003   0.547  0.00  0.00    +0.010 C 
ENDBRANCH   5  24
TORSDOF 6
