REMARK  Name = ZINCpk00000y6xU6.1
REMARK                            x       y       z     vdW  Elec       q    Type
REMARK                         _______ _______ _______ _____ _____    ______ ____
ROOT
ATOM      1  C   LIG    1        1.995   2.940   0.677  0.00  0.00    +0.630 C 
ATOM      2  N   LIG    1        1.409   1.933  -0.001  0.00  0.00    -0.610 N 
ATOM      3  C   LIG    1        2.048   0.969  -0.927  0.00  0.00    +0.290 C 
ATOM      4  C   LIG    1        1.365  -0.381  -0.616  0.00  0.00    +0.110 C 
ATOM      5  C   LIG    1        0.002  -0.004   0.002  0.00  0.00    +0.030 C 
ATOM      6  C   LIG    1       -0.019   1.540   0.011  0.00  0.00    +0.280 C 
ATOM      7  O   LIG    1        1.329   3.651   1.405  0.00  0.00    -0.540 OA
ENDROOT
BRANCH   4   8
ATOM      8  C   LIG    1        1.165  -1.173  -1.882  0.00  0.00    +0.190 A 
ATOM      9  N   LIG    1        1.165  -2.474  -1.989  0.00  0.00    -0.280 NA
ATOM     10  N   LIG    1        0.961  -2.808  -3.214  0.00  0.00    -0.280 NA
ATOM     11  C   LIG    1        0.832  -1.735  -3.946  0.00  0.00    +0.180 A 
ATOM     12  N   LIG    1        0.957  -0.667  -3.122  0.00  0.00    -0.560 N 
ATOM     13  H   LIG    1        0.908   0.270  -3.369  0.00  0.00    +0.430 HD
BRANCH  11  14
ATOM     14  C   LIG    1        0.588  -1.692  -5.433  0.00  0.00    +0.330 C 
BRANCH  14  15
ATOM     15  O   LIG    1        0.505  -0.332  -5.863  0.00  0.00    -0.400 OA
ATOM     16  C   LIG    1        0.274  -0.179  -7.265  0.00  0.00    +0.220 C 
ENDBRANCH  14  15
ENDBRANCH  11  14
ENDBRANCH   4   8
BRANCH   1  20
ATOM     17  N   LIG    1        5.446   4.017   0.753  0.00  0.00    -0.450 N 
ATOM     18  C   LIG    1        5.497   2.966  -0.107  0.00  0.00    +0.400 A 
ATOM     19  N   LIG    1        4.303   2.463  -0.232  0.00  0.00    -0.470 NA
ATOM     20  C   LIG    1        3.442   3.179   0.536  0.00  0.00    -0.060 A 
ATOM     21  C   LIG    1        4.162   4.155   1.159  0.00  0.00    +0.230 A 
BRANCH  17  23
ATOM     22  C   LIG    1        7.226   4.248   2.414  0.00  0.00    +0.050 C 
ATOM     23  C   LIG    1        6.578   4.850   1.166  0.00  0.00    +0.300 C 
ENDBRANCH  17  23
ENDBRANCH   1  20
BRANCH   5  24
ATOM     24  C   LIG    1       -0.102  -0.545   1.429  0.00  0.00    -0.030 C 
ATOM     25  C   LIG    1       -1.149  -1.628   1.700  0.00  0.00    +0.020 C 
ATOM     26  C   LIG    1       -1.365  -0.206   2.223  0.00  0.00    +0.010 C 
ENDBRANCH   5  24
TORSDOF 6
