REMARK  Name = ZINCpk00000y6xU6.2
REMARK                            x       y       z     vdW  Elec       q    Type
REMARK                         _______ _______ _______ _____ _____    ______ ____
ROOT
ATOM      1  C   LIG    1        5.166   3.661  -1.410  0.00  0.00    +0.630 C 
ATOM      2  N   LIG    1        4.905   2.507  -0.764  0.00  0.00    -0.610 N 
ATOM      3  C   LIG    1        4.106   1.372  -1.262  0.00  0.00    +0.310 C 
ATOM      4  C   LIG    1        3.562   0.627  -0.029  0.00  0.00    +0.110 C 
ATOM      5  C   LIG    1        4.132   1.393   1.187  0.00  0.00    +0.030 C 
ATOM      6  C   LIG    1        5.364   2.119   0.590  0.00  0.00    +0.280 C 
ATOM      7  O   LIG    1        5.846   4.517  -0.876  0.00  0.00    -0.550 OA
ENDROOT
BRANCH   4   8
ATOM      8  C   LIG    1        2.055   0.669  -0.014  0.00  0.00    +0.240 A 
ATOM      9  N   LIG    1        1.326   1.754  -0.001  0.00  0.00    -0.300 NA
ATOM     10  N   LIG    1       -0.016   1.340   0.009  0.00  0.00    -0.460 N 
ATOM     11  H   LIG    1       -0.800   1.911   0.016  0.00  0.00    +0.450 HD
ATOM     12  C   LIG    1        0.002  -0.004   0.002  0.00  0.00    +0.290 A 
ATOM     13  N   LIG    1        1.251  -0.393  -0.012  0.00  0.00    -0.530 NA
BRANCH  12  14
ATOM     14  C   LIG    1       -1.206  -0.905   0.008  0.00  0.00    +0.320 C 
BRANCH  14  15
ATOM     15  O   LIG    1       -2.393  -0.111   0.023  0.00  0.00    -0.400 OA
ATOM     16  C   LIG    1       -3.602  -0.873   0.030  0.00  0.00    +0.230 C 
ENDBRANCH  14  15
ENDBRANCH  12  14
ENDBRANCH   4   8
BRANCH   1  20
ATOM     17  N   LIG    1        4.151   4.790  -4.692  0.00  0.00    -0.460 N 
ATOM     18  C   LIG    1        3.576   3.562  -4.625  0.00  0.00    +0.400 A 
ATOM     19  N   LIG    1        3.864   3.020  -3.477  0.00  0.00    -0.460 NA
ATOM     20  C   LIG    1        4.628   3.886  -2.763  0.00  0.00    -0.060 A 
ATOM     21  C   LIG    1        4.811   5.000  -3.529  0.00  0.00    +0.230 A 
BRANCH  17  23
ATOM     22  C   LIG    1        5.231   5.459  -6.782  0.00  0.00    +0.050 C 
ATOM     23  C   LIG    1        4.071   5.722  -5.820  0.00  0.00    +0.300 C 
ENDBRANCH  17  23
ENDBRANCH   1  20
BRANCH   5  24
ATOM     24  C   LIG    1        4.558   0.421   2.289  0.00  0.00    -0.030 C 
ATOM     25  C   LIG    1        3.739   0.414   3.581  0.00  0.00    +0.010 C 
ATOM     26  C   LIG    1        5.146   1.018   3.570  0.00  0.00    +0.020 C 
ENDBRANCH   5  24
TORSDOF 6
