REMARK  Name = ZINCqH0000035U4u.0
REMARK                            x       y       z     vdW  Elec       q    Type
REMARK                         _______ _______ _______ _____ _____    ______ ____
ROOT
ATOM      1  C   LIG    1       -0.125   7.656  -1.400  0.00  0.00    +0.510 C 
ATOM      2  N   LIG    1       -0.147   8.335  -2.564  0.00  0.00    -0.620 N 
ATOM      3  H   LIG    1       -0.147   7.855  -3.407  0.00  0.00    +0.430 HD
ATOM      4  O   LIG    1       -0.125   8.257  -0.347  0.00  0.00    -0.500 OA
ENDROOT
BRANCH   2   5
ATOM      5  C   LIG    1       -0.169   9.725  -2.557  0.00  0.00    +0.270 A 
ATOM      6  N   LIG    1       -0.191  10.479  -3.611  0.00  0.00    -0.500 NA
ATOM      7  C   LIG    1       -0.211  11.790  -3.413  0.00  0.00    +0.130 A 
ATOM      8  C   LIG    1       -0.206  12.178  -2.125  0.00  0.00    -0.110 A 
ATOM      9  S   LIG    1       -0.180  10.735  -1.115  0.00  0.00    +0.210 S 
BRANCH   7  10
ATOM     10  C   LIG    1       -0.238  12.761  -4.534  0.00  0.00    -0.070 A 
ATOM     11  C   LIG    1       -0.242  12.316  -5.859  0.00  0.00    +0.090 A 
ATOM     12  C   LIG    1       -0.268  13.262  -6.869  0.00  0.00    -0.030 A 
ATOM     13  C   LIG    1       -0.288  14.605  -6.538  0.00  0.00    +0.260 A 
ATOM     14  N   LIG    1       -0.284  14.995  -5.278  0.00  0.00    -0.480 NA
ATOM     15  C   LIG    1       -0.265  14.132  -4.283  0.00  0.00    +0.280 A 
ENDBRANCH   7  10
ENDBRANCH   2   5
BRANCH   1  16
ATOM     16  C   LIG    1       -0.101   6.149  -1.408  0.00  0.00    +0.090 C 
BRANCH  16  17
ATOM     17  C   LIG    1       -0.079   5.632   0.032  0.00  0.00    +0.110 C 
BRANCH  17  21
ATOM     18  C   LIG    1       -0.016   1.356   0.009  0.00  0.00    +0.100 A 
ATOM     19  C   LIG    1       -1.224   2.034   0.019  0.00  0.00    -0.030 A 
ATOM     20  C   LIG    1       -1.241   3.416   0.031  0.00  0.00    +0.020 A 
ATOM     21  C   LIG    1       -0.055   4.125   0.024  0.00  0.00    -0.090 A 
ATOM     22  C   LIG    1        1.155   3.455   0.009  0.00  0.00    -0.030 A 
ATOM     23  C   LIG    1        1.179   2.070   0.002  0.00  0.00    +0.100 A 
BRANCH  18  25
ATOM     24  C   LIG    1       -1.262  -0.670   0.011  0.00  0.00    +0.250 C 
ATOM     25  O   LIG    1        0.002  -0.004   0.002  0.00  0.00    -0.310 OA
ENDBRANCH  18  25
BRANCH  23  26
ATOM     26  O   LIG    1        2.367   1.409  -0.012  0.00  0.00    -0.310 OA
ATOM     27  C   LIG    1        3.553   2.206  -0.019  0.00  0.00    +0.240 C 
ENDBRANCH  23  26
ENDBRANCH  17  21
ENDBRANCH  16  17
ENDBRANCH   1  16
TORSDOF 7
