REMARK  Name = ZINCqH00000037v2.0
REMARK                            x       y       z     vdW  Elec       q    Type
REMARK                         _______ _______ _______ _____ _____    ______ ____
ROOT
ATOM      1  N   LIG    1       -0.099  -0.501   1.376  0.00  0.00    -0.600 N 
ATOM      2  C   LIG    1        1.019  -0.715   2.099  0.00  0.00    +0.520 C 
ATOM      3  O   LIG    1        2.107  -0.495   1.612  0.00  0.00    -0.530 OA
ENDROOT
BRANCH   1   5
ATOM      4  C   LIG    1       -1.816  -2.216   1.683  0.00  0.00    +0.020 C 
ATOM      5  C   LIG    1       -1.414  -0.767   1.965  0.00  0.00    +0.270 C 
ENDBRANCH   1   5
BRANCH   2   6
ATOM      6  C   LIG    1        0.915  -1.226   3.513  0.00  0.00    +0.120 C 
BRANCH   6   7
ATOM      7  C   LIG    1        2.297  -1.378   4.095  0.00  0.00    -0.010 A 
ATOM      8  C   LIG    1        2.975  -2.576   3.962  0.00  0.00    +0.050 A 
ATOM      9  C   LIG    1        4.245  -2.714   4.492  0.00  0.00    +0.110 A 
ATOM     10  C   LIG    1        4.832  -1.657   5.162  0.00  0.00    -0.040 A 
ATOM     11  C   LIG    1        4.152  -0.462   5.299  0.00  0.00    +0.100 A 
ATOM     12  C   LIG    1        2.885  -0.322   4.765  0.00  0.00    +0.040 A 
BRANCH  10  13
ATOM     13  N   LIG    1        6.189  -1.806   5.733  0.00  0.00    +0.030 N 
ATOM     14  O   LIG    1        6.789  -2.860   5.612  0.00  0.00    -0.160 OA
ATOM     15  O   LIG    1        6.707  -0.876   6.324  0.00  0.00    -0.160 OA
ENDBRANCH  10  13
ENDBRANCH   6   7
ENDBRANCH   2   6
BRANCH   1  16
ATOM     16  C   LIG    1        0.002  -0.004   0.002  0.00  0.00    +0.360 C 
BRANCH  16  17
ATOM     17  C   LIG    1       -0.018   1.503   0.010  0.00  0.00    +0.140 A 
ATOM     18  N   LIG    1       -1.172   2.125   0.019  0.00  0.00    -0.460 NA
ATOM     19  C   LIG    1       -1.241   3.460   0.032  0.00  0.00    +0.130 A 
ATOM     20  C   LIG    1       -2.481   4.122   0.046  0.00  0.00    +0.050 A 
ATOM     21  C   LIG    1       -2.520   5.483   0.054  0.00  0.00    +0.030 A 
ATOM     22  C   LIG    1       -1.348   6.236   0.047  0.00  0.00    +0.020 A 
ATOM     23  C   LIG    1       -0.129   5.630   0.032  0.00  0.00    +0.030 A 
ATOM     24  C   LIG    1       -0.050   4.228   0.024  0.00  0.00    -0.100 A 
ATOM     25  C   LIG    1        1.190   3.563   0.009  0.00  0.00    +0.080 A 
ATOM     26  C   LIG    1        1.190   2.197   0.003  0.00  0.00    -0.010 A 
ENDBRANCH  16  17
ENDBRANCH   1  16
TORSDOF 6
