REMARK  Name = ZINCkj000005lrFu.0
REMARK                            x       y       z     vdW  Elec       q    Type
REMARK                         _______ _______ _______ _____ _____    ______ ____
ROOT
ATOM      1  C   LIG    1        1.808  -4.866   4.500  0.00  0.00    +0.500 C 
ATOM      2  N   LIG    1        1.242  -4.157   3.502  0.00  0.00    -0.580 N 
ATOM      3  C   LIG    1        0.856  -4.812   2.245  0.00  0.00    +0.290 C 
ATOM      4  C   LIG    1        1.500  -4.056   1.078  0.00  0.00    +0.030 C 
ATOM      5  C   LIG    1        1.115  -2.577   1.160  0.00  0.00    +0.010 C 
ATOM      6  C   LIG    1        1.642  -1.984   2.468  0.00  0.00    +0.030 C 
ATOM      7  C   LIG    1        1.000  -2.716   3.651  0.00  0.00    +0.260 C 
ATOM      8  O   LIG    1        2.002  -6.055   4.364  0.00  0.00    -0.530 OA
ENDROOT
BRANCH   1   9
ATOM      9  C   LIG    1        2.198  -4.180   5.784  0.00  0.00    +0.170 C 
BRANCH   9  10
ATOM     10  N   LIG    1        3.189  -4.998   6.494  0.00  0.00    -0.620 N 
ATOM     11  H   LIG    1        3.451  -4.539   7.354  0.00  0.00    +0.440 HD
ATOM     12  H   LIG    1        4.006  -5.115   5.914  0.00  0.00    +0.440 HD
ATOM     13  H   LIG    1        2.792  -5.902   6.703  0.00  0.00    +0.440 HD
ENDBRANCH   9  10
BRANCH   9  14
ATOM     14  C   LIG    1        0.959  -4.002   6.663  0.00  0.00    +0.110 C 
BRANCH  14  15
ATOM     15  C   LIG    1        1.330  -3.196   7.910  0.00  0.00    -0.080 C 
ATOM     16  C   LIG    1        1.200  -3.892   9.266  0.00  0.00    +0.030 C 
ATOM     17  C   LIG    1        0.199  -2.808   8.864  0.00  0.00    +0.050 C 
ENDBRANCH  14  15
ENDBRANCH   9  14
ENDBRANCH   1   9
BRANCH   5  18
ATOM     18  C   LIG    1        1.728  -1.825  -0.024  0.00  0.00    +0.130 C 
BRANCH  18  19
ATOM     19  C   LIG    1        1.250  -0.396  -0.012  0.00  0.00    +0.070 A 
ATOM     20  N   LIG    1        0.002  -0.004   0.002  0.00  0.00    -0.290 NA
ATOM     21  N   LIG    1       -0.017   1.397   0.010  0.00  0.00    -0.480 N 
ATOM     22  H   LIG    1       -0.809   1.957   0.017  0.00  0.00    +0.440 HD
ATOM     23  C   LIG    1        1.261   1.829  -0.000  0.00  0.00    +0.240 A 
ATOM     24  C   LIG    1        2.065   0.741  -0.014  0.00  0.00    -0.120 A 
ENDBRANCH  18  19
ENDBRANCH   5  18
TORSDOF 6
