REMARK  Name = ZINCrg00000zXfgR.1
REMARK                            x       y       z     vdW  Elec       q    Type
REMARK                         _______ _______ _______ _____ _____    ______ ____
ROOT
ATOM      1  C   LIG    1        8.877   3.700  -4.035  0.00  0.00    +0.040 C 
ATOM      2  C   LIG    1        8.773   2.451  -3.158  0.00  0.00    -0.010 C 
ATOM      3  C   LIG    1        9.277   1.197  -3.915  0.00  0.00    +0.280 C 
ATOM      4  N   LIG    1        8.589   0.065  -3.269  0.00  0.00    -0.610 N 
ATOM      5  C   LIG    1        7.354   0.558  -2.642  0.00  0.00    +0.250 C 
ATOM      6  C   LIG    1        9.020  -1.212  -3.256  0.00  0.00    +0.510 C 
ATOM      7  O   LIG    1        8.419  -2.049  -2.616  0.00  0.00    -0.530 OA
ATOM      8  C   LIG    1        7.290   2.080  -2.892  0.00  0.00    -0.010 C 
ENDROOT
BRANCH   6   9
ATOM      9  C   LIG    1       10.249  -1.601  -4.036  0.00  0.00    +0.120 C 
ATOM     10  C   LIG    1       10.230  -3.114  -4.334  0.00  0.00    +0.030 C 
ATOM     11  C   LIG    1       11.713  -3.544  -4.208  0.00  0.00    +0.020 C 
ATOM     12  C   LIG    1       12.217  -2.692  -3.016  0.00  0.00    +0.020 C 
ATOM     13  C   LIG    1       11.512  -1.332  -3.199  0.00  0.00    +0.050 C 
BRANCH   9  14
ATOM     14  O   LIG    1       10.306  -0.862  -5.258  0.00  0.00    -0.540 OA
ATOM     15  H   LIG    1        9.591  -1.066  -5.875  0.00  0.00    +0.380 HD
ENDBRANCH   9  14
ENDBRANCH   6   9
BRANCH   8  16
ATOM     16  C   LIG    1        6.762   2.810  -1.656  0.00  0.00    +0.280 C 
BRANCH  16  17
ATOM     17  N   LIG    1        5.363   2.440  -1.430  0.00  0.00    -0.730 N 
ATOM     18  H   LIG    1        4.923   1.817  -2.030  0.00  0.00    +0.400 HD
ATOM     19  C   LIG    1        4.686   2.965  -0.390  0.00  0.00    +0.520 C 
ATOM     20  O   LIG    1        5.236   3.744   0.360  0.00  0.00    -0.530 OA
BRANCH  19  21
ATOM     21  C   LIG    1        3.247   2.584  -0.158  0.00  0.00    -0.010 C 
ATOM     22  C   LIG    1        2.718   3.316   1.079  0.00  0.00    +0.080 C 
ATOM     23  C   LIG    1        1.198   3.130   1.172  0.00  0.00    +0.120 C 
ATOM     24  C   LIG    1        0.889   1.663   1.024  0.00  0.00    -0.030 A 
ATOM     25  C   LIG    1        1.751   0.747   0.533  0.00  0.00    +0.000 A 
ATOM     26  N   LIG    1        1.143  -0.442   0.550  0.00  0.00    -0.480 NA
ATOM     27  C   LIG    1       -0.065  -0.300   1.031  0.00  0.00    +0.390 A 
ATOM     28  N   LIG    1       -0.259   1.004   1.339  0.00  0.00    -0.560 N 
ATOM     29  H   LIG    1       -1.065   1.394   1.713  0.00  0.00    +0.420 HD
ATOM     30  C   LIG    1        3.148   1.070   0.062  0.00  0.00    +0.140 C 
ENDBRANCH  19  21
ENDBRANCH  16  17
ENDBRANCH   8  16
TORSDOF 5
