REMARK  Name = ZINCrg00000zXfgR.0
REMARK                            x       y       z     vdW  Elec       q    Type
REMARK                         _______ _______ _______ _____ _____    ______ ____
ROOT
ATOM      1  C   LIG    1        1.194   3.668  -0.276  0.00  0.00    +0.040 C 
ATOM      2  C   LIG    1        1.010   2.338  -1.011  0.00  0.00    -0.010 C 
ATOM      3  C   LIG    1       -0.349   1.700  -0.652  0.00  0.00    +0.270 C 
ATOM      4  N   LIG    1       -0.130   0.252  -0.521  0.00  0.00    -0.610 N 
ATOM      5  C   LIG    1        1.287  -0.039  -0.805  0.00  0.00    +0.260 C 
ATOM      6  C   LIG    1       -1.069  -0.658  -0.195  0.00  0.00    +0.510 C 
ATOM      7  O   LIG    1       -0.798  -1.840  -0.206  0.00  0.00    -0.530 OA
ATOM      8  C   LIG    1        2.032   1.286  -0.507  0.00  0.00    -0.010 C 
ENDROOT
BRANCH   6   9
ATOM      9  C   LIG    1       -2.457  -0.207   0.183  0.00  0.00    +0.120 C 
ATOM     10  C   LIG    1       -3.179  -1.321   0.968  0.00  0.00    +0.030 C 
ATOM     11  C   LIG    1       -4.647  -1.237   0.483  0.00  0.00    +0.020 C 
ATOM     12  C   LIG    1       -4.491  -0.918  -1.025  0.00  0.00    +0.020 C 
ATOM     13  C   LIG    1       -3.291   0.049  -1.085  0.00  0.00    +0.050 C 
BRANCH   9  14
ATOM     14  O   LIG    1       -2.386   0.983   0.971  0.00  0.00    -0.540 OA
ATOM     15  H   LIG    1       -1.959   0.861   1.830  0.00  0.00    +0.380 HD
ENDBRANCH   9  14
ENDBRANCH   6   9
BRANCH   8  16
ATOM     16  C   LIG    1        3.340   1.369  -1.297  0.00  0.00    +0.280 C 
BRANCH  16  17
ATOM     17  N   LIG    1        4.267   0.342  -0.817  0.00  0.00    -0.730 N 
ATOM     18  H   LIG    1        4.001  -0.255  -0.100  0.00  0.00    +0.400 HD
ATOM     19  C   LIG    1        5.490   0.226  -1.371  0.00  0.00    +0.520 C 
ATOM     20  O   LIG    1        5.824   0.973  -2.267  0.00  0.00    -0.530 OA
BRANCH  19  21
ATOM     21  C   LIG    1        6.444  -0.830  -0.876  0.00  0.00    +0.000 C 
ATOM     22  C   LIG    1        7.753  -0.747  -1.667  0.00  0.00    +0.050 C 
ATOM     23  C   LIG    1        8.808  -1.644  -1.008  0.00  0.00    +0.120 C 
ATOM     24  C   LIG    1        8.202  -3.007  -0.783  0.00  0.00    +0.010 A 
ATOM     25  C   LIG    1        6.876  -3.257  -0.813  0.00  0.00    -0.030 A 
ATOM     26  N   LIG    1        6.714  -4.587  -0.572  0.00  0.00    -0.560 N 
ATOM     27  H   LIG    1        5.873  -5.068  -0.531  0.00  0.00    +0.420 HD
ATOM     28  C   LIG    1        7.950  -5.111  -0.399  0.00  0.00    +0.390 A 
ATOM     29  N   LIG    1        8.833  -4.156  -0.528  0.00  0.00    -0.490 NA
ATOM     30  C   LIG    1        5.817  -2.217  -1.071  0.00  0.00    +0.130 C 
ENDBRANCH  19  21
ENDBRANCH  16  17
ENDBRANCH   8  16
TORSDOF 5
