REMARK  Name = ZINCkj000005jfgn.0
REMARK                            x       y       z     vdW  Elec       q    Type
REMARK                         _______ _______ _______ _____ _____    ______ ____
ROOT
ATOM      1  C   LIG    1       -0.939   3.233  -1.770  0.00  0.00    +0.240 C 
ATOM      2  C   LIG    1       -2.332   3.694  -1.336  0.00  0.00    +0.070 C 
ENDROOT
BRANCH   1   3
ATOM      3  N   LIG    1       -0.759   1.823  -1.414  0.00  0.00    -1.140 NA
ATOM      4  H   LIG    1       -1.074   1.128  -2.013  0.00  0.00    +0.420 HD
BRANCH   3   5
ATOM      5  S   LIG    1       -0.017   1.417   0.010  0.00  0.00    +2.590 S 
ATOM      6  O   LIG    1        1.190   2.166   0.002  0.00  0.00    -0.940 OA
ATOM      7  O   LIG    1        0.002  -0.004   0.002  0.00  0.00    -0.930 OA
BRANCH   5   8
ATOM      8  C   LIG    1       -1.139   2.031   1.296  0.00  0.00    -0.270 C 
BRANCH   8   9
ATOM      9  C   LIG    1       -0.558   1.712   2.675  0.00  0.00    -0.060 C 
ATOM     10  C   LIG    1       -1.286   0.669   3.524  0.00  0.00    +0.100 C 
ATOM     11  C   LIG    1       -1.363   2.151   3.900  0.00  0.00    +0.120 C 
BRANCH   9  12
ATOM     12  C   LIG    1        0.910   1.765   2.772  0.00  0.00    +0.180 C 
ATOM     13  N   LIG    1        2.043   1.805   2.848  0.00  0.00    -0.360 NA
ENDBRANCH   9  12
ENDBRANCH   8   9
ENDBRANCH   5   8
ENDBRANCH   3   5
ENDBRANCH   1   3
BRANCH   1  14
ATOM     14  C   LIG    1       -0.795   3.399  -3.284  0.00  0.00    +0.280 C 
BRANCH  14  20
ATOM     15  C   LIG    1        1.925   0.787  -5.178  0.00  0.00    +0.040 C 
ATOM     16  C   LIG    1        1.886   2.244  -5.643  0.00  0.00    +0.010 C 
ATOM     17  C   LIG    1        3.069   3.005  -5.037  0.00  0.00    +0.050 C 
ATOM     18  C   LIG    1        2.931   3.013  -3.511  0.00  0.00    +0.050 C 
ATOM     19  C   LIG    1        1.585   3.634  -3.131  0.00  0.00    +0.250 C 
ATOM     20  N   LIG    1        0.495   2.845  -3.717  0.00  0.00    -0.390 N 
ATOM     21  H   LIG    1        0.570   1.888  -3.408  0.00  0.00    +0.420 HD
ATOM     22  C   LIG    1        0.580   2.893  -5.182  0.00  0.00    +0.260 C 
ENDBRANCH  14  20
ENDBRANCH   1  14
TORSDOF 7
