REMARK  Name = ZINCkj000005jfgn.1
REMARK                            x       y       z     vdW  Elec       q    Type
REMARK                         _______ _______ _______ _____ _____    ______ ____
ROOT
ATOM      1  C   LIG    1        4.364   0.014  -2.227  0.00  0.00    +0.240 C 
ATOM      2  C   LIG    1        4.944  -0.327  -3.601  0.00  0.00    +0.070 C 
ENDROOT
BRANCH   1   3
ATOM      3  N   LIG    1        4.340   1.469  -2.054  0.00  0.00    -1.140 NA
ATOM      4  H   LIG    1        3.604   1.988  -2.415  0.00  0.00    +0.420 HD
BRANCH   3   5
ATOM      5  S   LIG    1        5.568   2.226  -1.242  0.00  0.00    +2.590 S 
ATOM      6  O   LIG    1        5.680   1.505  -0.022  0.00  0.00    -0.940 OA
ATOM      7  O   LIG    1        5.200   3.599  -1.250  0.00  0.00    -0.930 OA
BRANCH   5   8
ATOM      8  C   LIG    1        7.032   1.954  -2.279  0.00  0.00    -0.270 C 
BRANCH   8   9
ATOM      9  C   LIG    1        8.248   2.615  -1.627  0.00  0.00    -0.060 C 
ATOM     10  C   LIG    1        8.847   3.837  -2.326  0.00  0.00    +0.100 C 
ATOM     11  C   LIG    1        9.589   2.499  -2.354  0.00  0.00    +0.120 C 
BRANCH   9  12
ATOM     12  C   LIG    1        8.269   2.595  -0.155  0.00  0.00    +0.180 C 
ATOM     13  N   LIG    1        8.286   2.580   0.980  0.00  0.00    -0.360 NA
ENDBRANCH   9  12
ENDBRANCH   8   9
ENDBRANCH   5   8
ENDBRANCH   3   5
ENDBRANCH   1   3
BRANCH   1  14
ATOM     14  C   LIG    1        2.940  -0.535  -2.124  0.00  0.00    +0.280 C 
BRANCH  14  20
ATOM     15  C   LIG    1        3.257  -0.949   2.743  0.00  0.00    +0.070 C 
ATOM     16  C   LIG    1        2.505  -0.275   1.594  0.00  0.00    -0.020 C 
ATOM     17  C   LIG    1        1.018  -0.630   1.678  0.00  0.00    +0.030 C 
ATOM     18  C   LIG    1        0.288  -0.015   0.480  0.00  0.00    +0.050 C 
ATOM     19  C   LIG    1        0.932  -0.515  -0.815  0.00  0.00    +0.250 C 
ATOM     20  N   LIG    1        2.346  -0.121  -0.846  0.00  0.00    -0.380 N 
ATOM     21  H   LIG    1        2.417   0.881  -0.754  0.00  0.00    +0.420 HD
ATOM     22  C   LIG    1        3.067  -0.765   0.258  0.00  0.00    +0.250 C 
ENDBRANCH  14  20
ENDBRANCH   1  14
TORSDOF 7
