REMARK  Name = ZINCvU0000000DKr.0
REMARK                            x       y       z     vdW  Elec       q    Type
REMARK                         _______ _______ _______ _____ _____    ______ ____
ROOT
ATOM      1  C   LIG    1        3.044   4.606  -1.097  0.00  0.00    +0.290 A 
ATOM      2  N   LIG    1        4.161   5.175  -0.750  0.00  0.00    -0.470 NA
ATOM      3  C   LIG    1        4.256   5.207   0.604  0.00  0.00    +0.050 A 
ATOM      4  C   LIG    1        5.220   5.692   1.492  0.00  0.00    +0.070 A 
ATOM      5  C   LIG    1        5.026   5.576   2.839  0.00  0.00    +0.010 A 
ATOM      6  C   LIG    1        3.877   4.979   3.339  0.00  0.00    +0.040 A 
ATOM      7  C   LIG    1        2.912   4.494   2.482  0.00  0.00    +0.010 A 
ATOM      8  C   LIG    1        3.090   4.609   1.110  0.00  0.00    +0.050 A 
ATOM      9  N   LIG    1        2.346   4.233   0.010  0.00  0.00    -0.480 N 
ENDROOT
BRANCH   1  13
ATOM     10  O   LIG    1        4.069   3.733  -5.707  0.00  0.00    -0.500 OA
ATOM     11  C   LIG    1        3.602   4.229  -4.703  0.00  0.00    +0.520 C 
ATOM     12  C   LIG    1        3.652   3.607  -3.325  0.00  0.00    +0.110 C 
ATOM     13  C   LIG    1        2.590   4.390  -2.518  0.00  0.00    +0.100 C 
ATOM     14  C   LIG    1        2.530   5.727  -3.288  0.00  0.00    +0.310 C 
ATOM     15  N   LIG    1        2.964   5.412  -4.654  0.00  0.00    -0.560 N 
BRANCH  15  16
ATOM     16  C   LIG    1        2.743   6.236  -5.763  0.00  0.00    +0.180 A 
ATOM     17  C   LIG    1        3.300   5.912  -6.993  0.00  0.00    +0.010 A 
ATOM     18  C   LIG    1        3.076   6.724  -8.087  0.00  0.00    +0.080 A 
ATOM     19  C   LIG    1        2.306   7.867  -7.956  0.00  0.00    -0.120 A 
ATOM     20  C   LIG    1        1.755   8.195  -6.730  0.00  0.00    +0.080 A 
ATOM     21 BR   LIG    1        2.008   8.982  -9.454  0.00  0.00    -0.050 Br
ATOM     22  C   LIG    1        1.971   7.383  -5.634  0.00  0.00    -0.020 A 
ENDBRANCH  15  16
ENDBRANCH   1  13
BRANCH   9  23
ATOM     23  C   LIG    1        1.043   3.563   0.029  0.00  0.00    +0.330 C 
BRANCH  23  24
ATOM     24  C   LIG    1        1.249   2.047   0.021  0.00  0.00    +0.180 C 
BRANCH  24  25
ATOM     25  O   LIG    1       -0.022   1.394   0.040  0.00  0.00    -0.310 OA
BRANCH  25  26
ATOM     26  C   LIG    1       -0.017   0.035   0.035  0.00  0.00    +0.130 A 
ATOM     27  C   LIG    1        1.186  -0.655   0.006  0.00  0.00    -0.080 A 
ATOM     28  C   LIG    1        1.188  -2.037   0.007  0.00  0.00    +0.050 A 
ATOM     29  C   LIG    1       -0.008  -2.731   0.025  0.00  0.00    -0.020 A 
ATOM     30  C   LIG    1       -1.208  -2.045   0.048  0.00  0.00    +0.050 A 
ATOM     31  C   LIG    1       -1.215  -0.664   0.053  0.00  0.00    -0.020 A 
ENDBRANCH  25  26
ENDBRANCH  24  25
ENDBRANCH  23  24
ENDBRANCH   9  23
TORSDOF 6
