REMARK  Name = ZINCrH000004qKrO.0
REMARK                            x       y       z     vdW  Elec       q    Type
REMARK                         _______ _______ _______ _____ _____    ______ ____
ROOT
ATOM      1  N   LIG    1        0.836  -1.422   5.662  0.00  0.00    -0.640 N 
ATOM      2  H   LIG    1        0.470  -1.212   6.536  0.00  0.00    +0.420 HD
ATOM      3  C   LIG    1        1.727  -2.424   5.528  0.00  0.00    +0.510 C 
ATOM      4  O   LIG    1        2.264  -2.619   4.457  0.00  0.00    -0.500 OA
ENDROOT
BRANCH   1  11
ATOM      5  C   LIG    1        0.255   1.340   6.014  0.00  0.00    +0.110 C 
ATOM      6  C   LIG    1        0.146   0.669   4.669  0.00  0.00    -0.090 A 
ATOM      7  C   LIG    1       -0.245   1.397   3.564  0.00  0.00    +0.030 A 
ATOM      8  C   LIG    1       -0.346   0.778   2.324  0.00  0.00    +0.100 A 
ATOM      9  C   LIG    1       -0.059  -0.575   2.198  0.00  0.00    -0.020 A 
ATOM     10  C   LIG    1        0.338  -1.303   3.303  0.00  0.00    +0.040 A 
ATOM     11  C   LIG    1        0.439  -0.684   4.542  0.00  0.00    +0.130 A 
BRANCH   8  12
ATOM     12  N   LIG    1       -0.743   1.515   1.205  0.00  0.00    -0.510 N 
ATOM     13  C   LIG    1       -1.364   0.650   0.199  0.00  0.00    +0.200 C 
ATOM     14  C   LIG    1       -2.172   1.498  -0.788  0.00  0.00    +0.120 C 
ATOM     15  S   LIG    1       -1.035   2.632  -1.642  0.00  0.00    -0.270 S 
ATOM     16  C   LIG    1       -0.155   3.401  -0.248  0.00  0.00    +0.120 C 
ATOM     17  C   LIG    1        0.376   2.291   0.664  0.00  0.00    +0.210 C 
ENDBRANCH   8  12
ENDBRANCH   1  11
BRANCH   3  18
ATOM     18  C   LIG    1        2.054  -3.294   6.697  0.00  0.00    +0.510 C 
ATOM     19  N   LIG    1        2.945  -4.296   6.562  0.00  0.00    -0.690 N 
ATOM     20  H   LIG    1        3.374  -4.452   5.706  0.00  0.00    +0.410 HD
ATOM     21  O   LIG    1        1.517  -3.099   7.767  0.00  0.00    -0.510 OA
BRANCH  19  22
ATOM     22  C   LIG    1        3.265  -5.150   7.709  0.00  0.00    +0.240 C 
ATOM     23  C   LIG    1        4.359  -4.487   8.549  0.00  0.00    +0.010 C 
ATOM     24  C   LIG    1        4.417  -5.151   9.925  0.00  0.00    +0.020 C 
ATOM     25  C   LIG    1        2.997  -5.348  10.459  0.00  0.00    +0.010 C 
ATOM     26  C   LIG    1        2.681  -6.843  10.529  0.00  0.00    +0.010 C 
ATOM     27  C   LIG    1        2.398  -7.370   9.120  0.00  0.00    +0.000 C 
ATOM     28  C   LIG    1        3.715  -7.520   8.357  0.00  0.00    +0.030 C 
ATOM     29  C   LIG    1        3.759  -6.510   7.210  0.00  0.00    +0.010 C 
ENDBRANCH  19  22
ENDBRANCH   3  18
TORSDOF 4
