REMARK  Name = ZINCue000000034E.0
REMARK                            x       y       z     vdW  Elec       q    Type
REMARK                         _______ _______ _______ _____ _____    ______ ____
ROOT
ATOM      1  C   LIG    1        5.465   4.226   0.967  0.00  0.00    +0.060 C 
ENDROOT
BRANCH   1   2
ATOM      2  C   LIG    1        4.055   3.927   1.482  0.00  0.00    +0.040 C 
BRANCH   2   5
ATOM      3  N   LIG    1        2.151   2.477   0.858  0.00  0.00    -0.720 N 
ATOM      4  H   LIG    1        1.668   2.837   1.618  0.00  0.00    +0.400 HD
ATOM      5  C   LIG    1        3.404   2.897   0.595  0.00  0.00    +0.510 C 
ATOM      6  O   LIG    1        4.008   2.447  -0.356  0.00  0.00    -0.540 OA
BRANCH   3   9
ATOM      7  C   LIG    1        0.002  -0.004   0.002  0.00  0.00    -0.140 C 
ATOM      8  C   LIG    1       -0.019   1.534   0.011  0.00  0.00    +0.040 C 
ATOM      9  C   LIG    1        1.518   1.476  -0.004  0.00  0.00    +0.240 C 
ATOM     10  C   LIG    1        1.394   0.090   0.649  0.00  0.00    +0.030 C 
BRANCH   7  11
ATOM     11  C   LIG    1        0.018  -0.600  -1.382  0.00  0.00    +0.520 C 
ATOM     12  O   LIG    1       -0.512  -0.008  -2.307  0.00  0.00    -0.700 OA
ATOM     13  O   LIG    1        0.562  -1.674  -1.577  0.00  0.00    -0.670 OA
ENDBRANCH   7  11
BRANCH   7  14
ATOM     14  C   LIG    1       -1.054  -0.636   0.910  0.00  0.00    +0.170 C 
BRANCH  14  16
ATOM     15  C   LIG    1       -1.905  -2.752   1.651  0.00  0.00    +0.170 C 
ATOM     16  O   LIG    1       -0.957  -2.060   0.835  0.00  0.00    -0.360 OA
ENDBRANCH  14  16
ENDBRANCH   7  14
ENDBRANCH   3   9
ENDBRANCH   2   5
ENDBRANCH   1   2
BRANCH   1  17
ATOM     17  C   LIG    1        6.126   5.271   1.868  0.00  0.00    +0.020 C 
BRANCH  17  18
ATOM     18  C   LIG    1        7.535   5.570   1.353  0.00  0.00    +0.330 C 
BRANCH  18  19
ATOM     19  N   LIG    1        8.168   6.570   2.216  0.00  0.00    -0.280 N 
ATOM     20  C   LIG    1        9.358   6.433   2.845  0.00  0.00    +0.150 A 
ATOM     21  C   LIG    1        9.558   7.595   3.532  0.00  0.00    +0.030 A 
ATOM     22  N   LIG    1        8.485   8.367   3.283  0.00  0.00    -0.270 NA
ATOM     23  N   LIG    1        7.689   7.731   2.498  0.00  0.00    -0.070 NA
BRANCH  21  24
ATOM     24  C   LIG    1       10.725   7.938   4.385  0.00  0.00    -0.120 A 
ATOM     25  C   LIG    1       10.783   9.147   5.012  0.00  0.00    +0.330 A 
ATOM     26  N   LIG    1       11.845   9.469   5.793  0.00  0.00    -0.500 N 
ATOM     27  C   LIG    1       12.862   8.604   5.965  0.00  0.00    +0.510 A 
ATOM     28  C   LIG    1       12.839   7.348   5.335  0.00  0.00    -0.090 A 
ATOM     29  O   LIG    1       13.809   8.913   6.671  0.00  0.00    -0.550 OA
ATOM     30  C   LIG    1       11.885  10.774   6.457  0.00  0.00    +0.330 C 
ATOM     31  C   LIG    1       11.776   7.011   4.553  0.00  0.00    +0.140 A 
ENDBRANCH  21  24
ENDBRANCH  18  19
ENDBRANCH  17  18
ENDBRANCH   1  17
TORSDOF 10
