REMARK  Name = ZINCrH000004lZh9.0
REMARK                            x       y       z     vdW  Elec       q    Type
REMARK                         _______ _______ _______ _____ _____    ______ ____
ROOT
ATOM      1  C   LIG    1       -1.257   1.692   0.064  0.00  0.00    +0.180 A 
ATOM      2  C   LIG    1       -1.312   3.058  -0.196  0.00  0.00    +0.010 A 
ATOM      3  C   LIG    1       -2.521   3.717  -0.166  0.00  0.00    +0.060 A 
ATOM      4  C   LIG    1       -3.692   3.013   0.126  0.00  0.00    -0.150 A 
ATOM      5  C   LIG    1       -3.633   1.641   0.387  0.00  0.00    +0.100 A 
ATOM      6  C   LIG    1       -2.422   0.987   0.350  0.00  0.00    -0.120 A 
ATOM      7  C   LIG    1       -2.358  -0.494   0.624  0.00  0.00    +0.100 C 
ENDROOT
BRANCH   4   8
ATOM      8  C   LIG    1       -4.989   3.717   0.159  0.00  0.00    +0.570 C 
ATOM      9  N   LIG    1       -5.054   4.989   0.600  0.00  0.00    -0.610 N 
ATOM     10  C   LIG    1       -3.858   5.626   1.151  0.00  0.00    +0.300 C 
ATOM     11  C   LIG    1       -3.440   6.792   0.240  0.00  0.00    +0.100 C 
ATOM     12  S   LIG    1       -4.827   7.960   0.112  0.00  0.00    -0.250 S 
ATOM     13  C   LIG    1       -6.184   6.889  -0.449  0.00  0.00    +0.110 C 
ATOM     14  C   LIG    1       -6.323   5.716   0.527  0.00  0.00    +0.310 C 
ATOM     15  O   LIG    1       -5.998   3.149  -0.211  0.00  0.00    -0.530 OA
ENDBRANCH   4   8
BRANCH   1  17
ATOM     16  C   LIG    1        0.984   1.523  -0.701  0.00  0.00    +0.560 C 
ATOM     17  N   LIG    1       -0.033   1.027   0.032  0.00  0.00    -0.660 N 
ATOM     18  H   LIG    1        0.087   0.206   0.534  0.00  0.00    +0.410 HD
ATOM     19  O   LIG    1        0.806   2.493  -1.410  0.00  0.00    -0.510 OA
BRANCH  16  22
ATOM     20  C   LIG    1        4.617   0.794  -1.339  0.00  0.00    +0.120 A 
ATOM     21  C   LIG    1        3.370   1.393  -1.403  0.00  0.00    +0.000 A 
ATOM     22  C   LIG    1        2.317   0.886  -0.641  0.00  0.00    -0.110 A 
ATOM     23  C   LIG    1        2.525  -0.229   0.172  0.00  0.00    +0.010 A 
ATOM     24  C   LIG    1        3.770  -0.821   0.225  0.00  0.00    +0.050 A 
ATOM     25  C   LIG    1        4.814  -0.314  -0.526  0.00  0.00    -0.080 A 
ATOM     26  C   LIG    1        6.171  -0.967  -0.464  0.00  0.00    +0.110 C 
BRANCH  20  28
ATOM     27  C   LIG    1        5.372   2.431  -2.889  0.00  0.00    +0.240 C 
ATOM     28  O   LIG    1        5.646   1.288  -2.075  0.00  0.00    -0.310 OA
ENDBRANCH  20  28
ENDBRANCH  16  22
ENDBRANCH   1  17
TORSDOF 4
