REMARK  Name = ZINCrH000004tGGH.0
REMARK                            x       y       z     vdW  Elec       q    Type
REMARK                         _______ _______ _______ _____ _____    ______ ____
ROOT
ATOM      1  O   LIG    1       -1.576  -7.711  -0.024  0.00  0.00    -0.530 OA
ATOM      2  C   LIG    1       -2.695  -7.244  -0.010  0.00  0.00    +0.520 C 
ATOM      3  N   LIG    1       -2.866  -5.907  -0.001  0.00  0.00    -0.730 N 
ATOM      4  H   LIG    1       -3.761  -5.533   0.010  0.00  0.00    +0.400 HD
ENDROOT
BRANCH   3   5
ATOM      5  C   LIG    1       -1.702  -5.019  -0.008  0.00  0.00    +0.260 C 
BRANCH   5   6
ATOM      6  C   LIG    1       -2.171  -3.562   0.004  0.00  0.00    +0.040 C 
BRANCH   6   7
ATOM      7  C   LIG    1       -0.954  -2.634  -0.003  0.00  0.00    +0.070 C 
BRANCH   7   8
ATOM      8  S   LIG    1       -1.510  -0.908   0.012  0.00  0.00    -0.110 S 
BRANCH   8   9
ATOM      9  C   LIG    1        0.002  -0.004   0.002  0.00  0.00    -0.090 A 
ATOM     10  C   LIG    1       -0.017   1.385   0.010  0.00  0.00    +0.030 A 
ATOM     11  C   LIG    1        1.171   2.091   0.002  0.00  0.00    +0.030 A 
ATOM     12  C   LIG    1        2.377   1.415  -0.013  0.00  0.00    +0.010 A 
ATOM     13  C   LIG    1        2.400   0.033  -0.021  0.00  0.00    +0.030 A 
ATOM     14  C   LIG    1        1.217  -0.679  -0.013  0.00  0.00    -0.010 A 
ENDBRANCH   8   9
ENDBRANCH   7   8
ENDBRANCH   6   7
ENDBRANCH   5   6
ENDBRANCH   3   5
BRANCH   2  15
ATOM     15  C   LIG    1       -3.893  -8.158  -0.003  0.00  0.00    +0.040 C 
BRANCH  15  16
ATOM     16  C   LIG    1       -3.424  -9.614  -0.015  0.00  0.00    +0.350 C 
BRANCH  16  17
ATOM     17  N   LIG    1       -4.589 -10.502  -0.009  0.00  0.00    -0.580 N 
ATOM     18  C   LIG    1       -5.179 -10.974   1.104  0.00  0.00    +0.570 C 
ATOM     19  C   LIG    1       -6.316 -11.830   0.707  0.00  0.00    -0.130 A 
ATOM     20  C   LIG    1       -7.265 -12.563   1.402  0.00  0.00    +0.110 A 
ATOM     21  C   LIG    1       -8.222 -13.284   0.706  0.00  0.00    +0.100 A 
ATOM     22  C   LIG    1       -8.237 -13.277  -0.677  0.00  0.00    -0.070 A 
ATOM     23  C   LIG    1       -7.293 -12.548  -1.386  0.00  0.00    +0.130 A 
ATOM     24 BR   LIG    1       -9.551 -14.268  -1.607  0.00  0.00    -0.020 Br
ATOM     25  C   LIG    1       -6.331 -11.822  -0.703  0.00  0.00    -0.130 A 
ATOM     26  O   LIG    1       -4.837 -10.735   2.244  0.00  0.00    -0.450 OA
ATOM     27  C   LIG    1       -5.205 -10.958  -1.114  0.00  0.00    +0.580 C 
ATOM     28  O   LIG    1       -4.889 -10.701  -2.259  0.00  0.00    -0.450 OA
ENDBRANCH  16  17
ENDBRANCH  15  16
ENDBRANCH   2  15
TORSDOF 8
