REMARK  Name = ZINCtV000002OATZ.0
REMARK                            x       y       z     vdW  Elec       q    Type
REMARK                         _______ _______ _______ _____ _____    ______ ____
ROOT
ATOM      1  C   LIG    1        3.568   3.487   0.349  0.00  0.00    -0.230 C 
ATOM      2  C   LIG    1        4.111   2.221   0.366  0.00  0.00    +0.220 C 
ENDROOT
BRANCH   2   3
ATOM      3  C   LIG    1        3.234   1.048   0.306  0.00  0.00    -0.100 A 
ATOM      4  C   LIG    1        2.010   1.046   0.988  0.00  0.00    +0.070 A 
ATOM      5  C   LIG    1        1.193  -0.061   0.926  0.00  0.00    +0.030 A 
ATOM      6  C   LIG    1        1.577  -1.171   0.193  0.00  0.00    +0.060 A 
ATOM      7  C   LIG    1        2.784  -1.181  -0.484  0.00  0.00    +0.030 A 
ATOM      8  C   LIG    1        3.616  -0.081  -0.434  0.00  0.00    -0.010 A 
ATOM      9 CL   LIG    1        5.130  -0.095  -1.284  0.00  0.00    -0.050 Cl
ENDBRANCH   2   3
BRANCH   1  11
ATOM     10  O   LIG    1        5.635   4.519   0.657  0.00  0.00    -0.500 OA
ATOM     11  C   LIG    1        4.431   4.660   0.561  0.00  0.00    +0.580 C 
ATOM     12  N   LIG    1        3.886   5.889   0.649  0.00  0.00    -0.660 N 
ATOM     13  H   LIG    1        2.922   5.994   0.650  0.00  0.00    +0.420 HD
BRANCH  12  14
ATOM     14  C   LIG    1        4.712   7.015   0.740  0.00  0.00    +0.160 A 
ATOM     15  C   LIG    1        6.040   6.938   0.341  0.00  0.00    +0.030 A 
ATOM     16  C   LIG    1        6.852   8.052   0.431  0.00  0.00    +0.040 A 
ATOM     17  C   LIG    1        6.346   9.242   0.920  0.00  0.00    +0.000 A 
ATOM     18  C   LIG    1        5.024   9.323   1.319  0.00  0.00    +0.050 A 
ATOM     19  C   LIG    1        4.204   8.214   1.226  0.00  0.00    -0.070 A 
ATOM     20 CL   LIG    1        2.543   8.318   1.721  0.00  0.00    -0.060 Cl
ENDBRANCH  12  14
ENDBRANCH   1  11
BRANCH   1  21
ATOM     21  C   LIG    1        2.126   3.666   0.120  0.00  0.00    +0.570 C 
ATOM     22  N   LIG    1        1.610   3.472  -1.110  0.00  0.00    -0.650 N 
ATOM     23  H   LIG    1        2.175   3.144  -1.827  0.00  0.00    +0.420 HD
ATOM     24  O   LIG    1        1.400   3.990   1.040  0.00  0.00    -0.500 OA
BRANCH  22  25
ATOM     25  C   LIG    1        0.259   3.742  -1.352  0.00  0.00    +0.160 A 
ATOM     26  C   LIG    1       -0.450   4.571  -0.493  0.00  0.00    +0.030 A 
ATOM     27  C   LIG    1       -1.783   4.837  -0.736  0.00  0.00    +0.040 A 
ATOM     28  C   LIG    1       -2.413   4.279  -1.832  0.00  0.00    +0.010 A 
ATOM     29  C   LIG    1       -1.711   3.453  -2.691  0.00  0.00    +0.050 A 
ATOM     30  C   LIG    1       -0.375   3.187  -2.458  0.00  0.00    -0.070 A 
ATOM     31 CL   LIG    1        0.508   2.155  -3.539  0.00  0.00    -0.060 Cl
ENDBRANCH  22  25
ENDBRANCH   1  21
TORSDOF 5
