REMARK  Name = ZINCpe000000ULGu.1
REMARK                            x       y       z     vdW  Elec       q    Type
REMARK                         _______ _______ _______ _____ _____    ______ ____
ROOT
ATOM      1  N   LIG    1       -3.936  -1.315   3.630  0.00  0.00    -0.620 N 
ATOM      2  C   LIG    1       -2.686  -0.893   3.904  0.00  0.00    +0.700 C 
ATOM      3  N   LIG    1       -2.063  -0.041   3.065  0.00  0.00    -0.670 N 
ATOM      4  H   LIG    1       -2.542   0.332   2.309  0.00  0.00    +0.410 HD
ATOM      5  O   LIG    1       -2.120  -1.280   4.908  0.00  0.00    -0.570 OA
ATOM      6  C   LIG    1       -4.618  -0.848   2.420  0.00  0.00    +0.290 C 
ENDROOT
BRANCH   3   7
ATOM      7  C   LIG    1       -0.723   0.306   3.286  0.00  0.00    +0.190 A 
ATOM      8  C   LIG    1        0.109  -0.549   3.993  0.00  0.00    +0.020 A 
ATOM      9  C   LIG    1        1.429  -0.202   4.215  0.00  0.00    +0.030 A 
ATOM     10  C   LIG    1        1.925   0.993   3.728  0.00  0.00    -0.010 A 
ATOM     11  C   LIG    1        1.104   1.848   3.016  0.00  0.00    -0.010 A 
ATOM     12  C   LIG    1       -0.221   1.509   2.790  0.00  0.00    +0.050 A 
BRANCH  12  13
ATOM     13  N   LIG    1       -1.054   2.373   2.071  0.00  0.00    -0.510 N 
ATOM     14  C   LIG    1       -1.232   3.646   2.783  0.00  0.00    +0.200 C 
ATOM     15  C   LIG    1       -0.535   2.597   0.715  0.00  0.00    +0.190 C 
ENDBRANCH  12  13
ENDBRANCH   3   7
BRANCH   1  16
ATOM     16  C   LIG    1       -4.613  -2.241   4.542  0.00  0.00    +0.280 C 
BRANCH  16  17
ATOM     17  C   LIG    1       -5.387  -1.445   5.594  0.00  0.00    +0.200 C 
BRANCH  17  18
ATOM     18  O   LIG    1       -6.434  -0.707   4.959  0.00  0.00    -0.540 OA
ATOM     19  H   LIG    1       -7.074  -1.258   4.490  0.00  0.00    +0.370 HD
ENDBRANCH  17  18
BRANCH  17  20
ATOM     20  C   LIG    1       -5.991  -2.408   6.619  0.00  0.00    +0.150 C 
BRANCH  20  25
ATOM     21  C   LIG    1       -8.179  -0.101  11.288  0.00  0.00    +0.190 C 
ATOM     22  N   LIG    1       -7.435  -0.865  10.277  0.00  0.00    -0.550 NA
ATOM     23  C   LIG    1       -8.342  -1.700   9.476  0.00  0.00    +0.180 C 
ATOM     24  C   LIG    1       -7.523  -2.537   8.490  0.00  0.00    +0.180 C 
ATOM     25  N   LIG    1       -6.735  -1.644   7.630  0.00  0.00    -0.530 NA
ATOM     26  C   LIG    1       -5.829  -0.809   8.431  0.00  0.00    +0.180 C 
ATOM     27  C   LIG    1       -6.647   0.028   9.416  0.00  0.00    +0.180 C 
ENDBRANCH  20  25
ENDBRANCH  17  20
ENDBRANCH  16  17
ENDBRANCH   1  16
TORSDOF 7
