REMARK  Name = ZINCvU0000000BFi.0
REMARK                            x       y       z     vdW  Elec       q    Type
REMARK                         _______ _______ _______ _____ _____    ______ ____
ROOT
ATOM      1  C   LIG    1       -4.001   1.952   1.808  0.00  0.00    +0.290 A 
ATOM      2  N   LIG    1       -4.210   1.776   3.080  0.00  0.00    -0.480 NA
ATOM      3  C   LIG    1       -3.578   0.649   3.496  0.00  0.00    +0.050 A 
ATOM      4  C   LIG    1       -3.470   0.004   4.730  0.00  0.00    +0.070 A 
ATOM      5  C   LIG    1       -2.742  -1.147   4.836  0.00  0.00    +0.000 A 
ATOM      6  C   LIG    1       -2.106  -1.686   3.727  0.00  0.00    +0.030 A 
ATOM      7  C   LIG    1       -2.198  -1.066   2.498  0.00  0.00    +0.010 A 
ATOM      8  C   LIG    1       -2.938   0.101   2.371  0.00  0.00    +0.060 A 
ATOM      9  N   LIG    1       -3.220   0.951   1.320  0.00  0.00    -0.480 N 
ENDROOT
BRANCH   1  13
ATOM     10  O   LIG    1       -5.559   6.486   1.525  0.00  0.00    -0.520 OA
ATOM     11  C   LIG    1       -5.490   5.281   1.405  0.00  0.00    +0.530 C 
ATOM     12  C   LIG    1       -4.255   4.452   1.683  0.00  0.00    +0.090 C 
ATOM     13  C   LIG    1       -4.544   3.098   0.994  0.00  0.00    +0.090 C 
ATOM     14  C   LIG    1       -6.088   3.079   0.974  0.00  0.00    +0.290 C 
ATOM     15  N   LIG    1       -6.498   4.487   1.005  0.00  0.00    -0.610 N 
BRANCH  15  16
ATOM     16  C   LIG    1       -7.835   4.968   0.645  0.00  0.00    +0.360 C 
BRANCH  16  17
ATOM     17  C   LIG    1       -8.710   4.981   1.872  0.00  0.00    -0.130 A 
ATOM     18  C   LIG    1       -9.458   3.865   2.200  0.00  0.00    +0.060 A 
ATOM     19  C   LIG    1      -10.257   3.875   3.327  0.00  0.00    -0.020 A 
ATOM     20  C   LIG    1      -10.318   5.007   4.122  0.00  0.00    +0.110 A 
ATOM     21  C   LIG    1       -9.573   6.126   3.790  0.00  0.00    -0.020 A 
ATOM     22  F   LIG    1      -11.102   5.019   5.222  0.00  0.00    -0.140 F 
ATOM     23  C   LIG    1       -8.770   6.112   2.665  0.00  0.00    +0.070 A 
ENDBRANCH  16  17
ENDBRANCH  15  16
ENDBRANCH   1  13
BRANCH   9  24
ATOM     24  C   LIG    1       -2.766   0.800  -0.065  0.00  0.00    +0.370 C 
BRANCH  24  25
ATOM     25  C   LIG    1       -3.845   0.130  -0.876  0.00  0.00    -0.110 A 
ATOM     26  C   LIG    1       -4.814   0.893  -1.500  0.00  0.00    +0.040 A 
ATOM     27  C   LIG    1       -5.801   0.279  -2.250  0.00  0.00    +0.020 A 
ATOM     28  C   LIG    1       -5.823  -1.097  -2.369  0.00  0.00    +0.050 A 
ATOM     29  C   LIG    1       -4.858  -1.862  -1.740  0.00  0.00    +0.030 A 
ATOM     30  C   LIG    1       -3.870  -1.248  -0.991  0.00  0.00    -0.020 A 
ATOM     31 CL   LIG    1       -2.658  -2.208  -0.200  0.00  0.00    -0.060 Cl
ENDBRANCH  24  25
ENDBRANCH   9  24
TORSDOF 5
