REMARK  Name = ZINCqH0000002r5c.0
REMARK                            x       y       z     vdW  Elec       q    Type
REMARK                         _______ _______ _______ _____ _____    ______ ____
ROOT
ATOM      1  C   LIG    1        0.795   1.871   5.513  0.00  0.00    +0.560 A 
ATOM      2  N   LIG    1        1.192   1.149   6.531  0.00  0.00    -0.540 NA
ATOM      3  C   LIG    1        0.459   0.006   6.592  0.00  0.00    +0.090 A 
ATOM      4  C   LIG    1        0.463  -1.091   7.457  0.00  0.00    +0.050 A 
ATOM      5  C   LIG    1       -0.425  -2.124   7.255  0.00  0.00    +0.010 A 
ATOM      6  C   LIG    1       -1.324  -2.084   6.200  0.00  0.00    +0.010 A 
ATOM      7  C   LIG    1       -1.340  -1.007   5.337  0.00  0.00    +0.010 A 
ATOM      8  C   LIG    1       -0.457   0.044   5.528  0.00  0.00    +0.050 A 
ATOM      9  N   LIG    1       -0.219   1.233   4.858  0.00  0.00    -0.500 N 
ENDROOT
BRANCH   1  10
ATOM     10  N   LIG    1        1.323   3.094   5.157  0.00  0.00    -0.710 N 
ATOM     11  H   LIG    1        0.972   3.568   4.386  0.00  0.00    +0.400 HD
BRANCH  10  12
ATOM     12  C   LIG    1        2.413   3.679   5.941  0.00  0.00    +0.280 C 
BRANCH  12  13
ATOM     13  C   LIG    1        2.810   5.027   5.338  0.00  0.00    +0.010 C 
BRANCH  13  15
ATOM     14  C   LIG    1        4.345   6.987   5.553  0.00  0.00    +0.010 C 
ATOM     15  C   LIG    1        3.949   5.638   6.157  0.00  0.00    +0.020 C 
ENDBRANCH  13  15
ENDBRANCH  12  13
ENDBRANCH  10  12
ENDBRANCH   1  10
BRANCH   9  16
ATOM     16  C   LIG    1       -0.927   1.718   3.671  0.00  0.00    +0.340 C 
BRANCH  16  17
ATOM     17  C   LIG    1       -0.222   1.232   2.431  0.00  0.00    +0.490 C 
ATOM     18  N   LIG    1       -0.698   1.558   1.213  0.00  0.00    -0.720 N 
ATOM     19  H   LIG    1       -1.495   2.106   1.135  0.00  0.00    +0.400 HD
ATOM     20  O   LIG    1        0.774   0.548   2.529  0.00  0.00    -0.510 OA
BRANCH  18  21
ATOM     21  C   LIG    1       -0.013   1.086   0.008  0.00  0.00    +0.320 C 
BRANCH  21  22
ATOM     22  C   LIG    1       -0.742   1.585  -1.213  0.00  0.00    -0.130 A 
ATOM     23  C   LIG    1       -1.750   0.824  -1.775  0.00  0.00    +0.070 A 
ATOM     24  C   LIG    1       -2.423   1.284  -2.891  0.00  0.00    -0.010 A 
ATOM     25  C   LIG    1       -2.079   2.501  -3.454  0.00  0.00    +0.110 A 
ATOM     26  C   LIG    1       -1.065   3.260  -2.893  0.00  0.00    -0.020 A 
ATOM     27  F   LIG    1       -2.732   2.948  -4.549  0.00  0.00    -0.140 F 
ATOM     28  C   LIG    1       -0.398   2.801  -1.774  0.00  0.00    +0.070 A 
ENDBRANCH  21  22
ENDBRANCH  18  21
ENDBRANCH  16  17
ENDBRANCH   9  16
TORSDOF 8
