REMARK  Name = ZINCrg00001Jdv1d.0
REMARK                            x       y       z     vdW  Elec       q    Type
REMARK                         _______ _______ _______ _____ _____    ______ ____
ROOT
ATOM      1  C   LIG    1       -4.919  10.113  -0.330  0.00  0.00    +0.670 C 
ATOM      2  N   LIG    1       -5.642   9.036   0.033  0.00  0.00    -0.610 N 
ATOM      3  C   LIG    1       -5.713   7.764  -0.702  0.00  0.00    +0.290 C 
ATOM      4  C   LIG    1       -6.636   6.822   0.100  0.00  0.00    +0.280 C 
ATOM      5  C   LIG    1       -6.582   7.418   1.531  0.00  0.00    +0.000 C 
ATOM      6  C   LIG    1       -6.493   8.936   1.233  0.00  0.00    +0.320 C 
ATOM      7  O   LIG    1       -4.935  11.115   0.357  0.00  0.00    -0.550 OA
ENDROOT
BRANCH   4   8
ATOM      8  N   LIG    1       -6.114   5.453   0.088  0.00  0.00    -0.290 N 
ATOM      9  C   LIG    1       -4.808   5.102   0.074  0.00  0.00    +0.180 A 
ATOM     10  C   LIG    1       -4.780   3.749   0.067  0.00  0.00    -0.030 A 
ATOM     11  N   LIG    1       -6.055   3.344   0.071  0.00  0.00    -0.250 NA
ATOM     12  N   LIG    1       -6.821   4.377   0.089  0.00  0.00    -0.070 NA
BRANCH  10  13
ATOM     13  C   LIG    1       -3.555   2.872   0.051  0.00  0.00    +0.360 C 
BRANCH  13  14
ATOM     14  O   LIG    1       -2.384   3.690   0.044  0.00  0.00    -0.290 OA
BRANCH  14  15
ATOM     15  C   LIG    1       -1.188   3.053   0.030  0.00  0.00    +0.510 A 
ATOM     16  N   LIG    1       -1.163   1.730   0.017  0.00  0.00    -0.570 NA
ATOM     17  C   LIG    1       -0.013   1.076   0.008  0.00  0.00    +0.370 A 
ATOM     18  C   LIG    1        1.173   1.794   0.001  0.00  0.00    -0.120 A 
ATOM     19  C   LIG    1        1.109   3.178   0.009  0.00  0.00    +0.370 A 
ATOM     20  N   LIG    1       -0.075   3.768   0.023  0.00  0.00    -0.520 NA
ENDBRANCH  14  15
ENDBRANCH  13  14
ENDBRANCH  10  13
ENDBRANCH   4   8
BRANCH   1  21
ATOM     21  O   LIG    1       -4.178  10.080  -1.454  0.00  0.00    -0.360 OA
BRANCH  21  23
ATOM     22  C   LIG    1       -2.442  11.587  -0.652  0.00  0.00    +0.030 C 
ATOM     23  C   LIG    1       -3.425  11.277  -1.783  0.00  0.00    +0.140 C 
ATOM     24  C   LIG    1       -4.387  12.453  -1.959  0.00  0.00    +0.040 C 
ATOM     25  C   LIG    1       -2.651  11.051  -3.083  0.00  0.00    +0.080 C 
ENDBRANCH  21  23
ENDBRANCH   1  21
BRANCH   5  26
ATOM     26  C   LIG    1       -7.855   7.086   2.312  0.00  0.00    +0.210 C 
BRANCH  26  27
ATOM     27  O   LIG    1       -7.722   7.548   3.658  0.00  0.00    -0.570 OA
ATOM     28  H   LIG    1       -8.494   7.371   4.212  0.00  0.00    +0.390 HD
ENDBRANCH  26  27
ENDBRANCH   5  26
TORSDOF 8
