REMARK  Name = ZINCtV000002GkFJ.0
REMARK                            x       y       z     vdW  Elec       q    Type
REMARK                         _______ _______ _______ _____ _____    ______ ____
ROOT
ATOM      1  C   LIG    1        3.570  -0.997   0.186  0.00  0.00    -0.120 A 
ATOM      2  C   LIG    1        4.804  -0.344   0.176  0.00  0.00    +0.080 A 
ATOM      3  C   LIG    1        5.969  -1.076   0.277  0.00  0.00    +0.030 A 
ATOM      4  C   LIG    1        5.917  -2.455   0.378  0.00  0.00    -0.060 A 
ATOM      5  C   LIG    1        4.697  -3.109   0.384  0.00  0.00    +0.040 A 
ATOM      6  C   LIG    1        3.524  -2.389   0.288  0.00  0.00    +0.090 A 
ENDROOT
BRANCH   1   7
ATOM      7  C   LIG    1        2.318  -0.219   0.084  0.00  0.00    +0.510 C 
ATOM      8  O   LIG    1        1.246  -0.790   0.089  0.00  0.00    -0.480 OA
BRANCH   7   9
ATOM      9  O   LIG    1        2.366   1.124  -0.014  0.00  0.00    -0.290 OA
BRANCH   9  17
ATOM     10  C   LIG    1        1.015   1.429  -2.476  0.00  0.00    +0.110 C 
ATOM     11  C   LIG    1        0.470   1.967  -1.179  0.00  0.00    -0.070 A 
ATOM     12  C   LIG    1       -0.736   2.641  -1.162  0.00  0.00    +0.040 A 
ATOM     13  C   LIG    1       -1.237   3.135   0.030  0.00  0.00    -0.020 A 
ATOM     14  C   LIG    1       -0.534   2.950   1.207  0.00  0.00    +0.040 A 
ATOM     15  C   LIG    1        0.675   2.282   1.194  0.00  0.00    +0.040 A 
ATOM     16 CL   LIG    1       -2.752   3.982   0.048  0.00  0.00    -0.060 Cl
ATOM     17  C   LIG    1        1.179   1.786   0.000  0.00  0.00    +0.080 A 
ENDBRANCH   9  17
ENDBRANCH   7   9
ENDBRANCH   1   7
BRANCH   4  18
ATOM     18  C   LIG    1        7.193  -3.248   0.481  0.00  0.00    +0.260 C 
BRANCH  18  19
ATOM     19  O   LIG    1        7.644  -3.599  -0.829  0.00  0.00    -0.310 OA
BRANCH  19  20
ATOM     20  C   LIG    1        8.792  -4.322  -0.914  0.00  0.00    +0.120 A 
ATOM     21  C   LIG    1        9.473  -4.681   0.240  0.00  0.00    -0.080 A 
ATOM     22  C   LIG    1       10.637  -5.420   0.151  0.00  0.00    +0.050 A 
ATOM     23  C   LIG    1       11.128  -5.793  -1.087  0.00  0.00    -0.110 A 
ATOM     24  C   LIG    1       10.454  -5.431  -2.238  0.00  0.00    +0.050 A 
ATOM     25  C   LIG    1        9.287  -4.696  -2.154  0.00  0.00    -0.020 A 
BRANCH  23  26
ATOM     26  C   LIG    1       12.401  -6.594  -1.181  0.00  0.00    -0.030 C 
ATOM     27  C   LIG    1       12.115  -7.926  -1.877  0.00  0.00    +0.040 C 
ATOM     28  C   LIG    1       12.942  -6.859   0.226  0.00  0.00    +0.030 C 
ATOM     29  C   LIG    1       13.439  -5.810  -1.987  0.00  0.00    +0.040 C 
ENDBRANCH  23  26
ENDBRANCH  19  20
ENDBRANCH  18  19
ENDBRANCH   4  18
TORSDOF 7
