REMARK  Name = ZINCqH0000032vO1.1
REMARK                            x       y       z     vdW  Elec       q    Type
REMARK                         _______ _______ _______ _____ _____    ______ ____
ROOT
ATOM      1  N   LIG    1       -2.214   3.354   2.554  0.00  0.00    -0.660 NA
ATOM      2  H   LIG    1       -2.064   2.792   3.379  0.00  0.00    +0.350 HD
ENDROOT
BRANCH   1   7
ATOM      3  C   LIG    1       -2.450   1.359  -2.970  0.00  0.00    +0.230 A 
ATOM      4  N   LIG    1       -2.801   2.441  -2.320  0.00  0.00    -0.310 NA
ATOM      5  N   LIG    1       -2.502   2.212  -0.974  0.00  0.00    -0.370 N 
ATOM      6  C   LIG    1       -2.701   3.110   0.164  0.00  0.00    +0.330 C 
ATOM      7  C   LIG    1       -1.851   2.612   1.339  0.00  0.00    +0.140 C 
ATOM      8  C   LIG    1       -2.106   1.117   1.558  0.00  0.00    +0.040 C 
ATOM      9  C   LIG    1       -1.516   0.327   0.383  0.00  0.00    +0.170 C 
ATOM     10  C   LIG    1       -1.978   0.974  -0.900  0.00  0.00    +0.270 A 
ATOM     11  N   LIG    1       -1.951   0.475  -2.104  0.00  0.00    -0.530 NA
BRANCH   3  13
ATOM     12  C   LIG    1       -1.205   0.892  -5.063  0.00  0.00    +0.050 C 
ATOM     13  C   LIG    1       -2.586   1.148  -4.456  0.00  0.00    +0.090 C 
ATOM     14  C   LIG    1       -3.490  -0.058  -4.719  0.00  0.00    +0.050 C 
ENDBRANCH   3  13
ENDBRANCH   1   7
BRANCH   1  15
ATOM     15  C   LIG    1       -1.476   4.621   2.638  0.00  0.00    +0.230 C 
BRANCH  15  16
ATOM     16  C   LIG    1       -1.873   5.352   3.895  0.00  0.00    -0.090 A 
ATOM     17  C   LIG    1       -1.099   5.240   5.034  0.00  0.00    -0.010 A 
ATOM     18  C   LIG    1       -1.464   5.912   6.188  0.00  0.00    +0.000 A 
ATOM     19  C   LIG    1       -2.603   6.695   6.205  0.00  0.00    +0.050 A 
ATOM     20  C   LIG    1       -3.381   6.811   5.069  0.00  0.00    -0.030 A 
ATOM     21 CL   LIG    1        0.331   4.257   5.018  0.00  0.00    -0.070 Cl
ATOM     22  C   LIG    1       -3.015   6.143   3.907  0.00  0.00    +0.140 A 
BRANCH  22  23
ATOM     23  N   LIG    1       -3.796   6.262   2.756  0.00  0.00    -0.460 N 
ATOM     24  C   LIG    1       -5.017   7.066   3.022  0.00  0.00    +0.180 C 
ATOM     25  C   LIG    1       -5.452   7.529   1.608  0.00  0.00    +0.040 C 
ATOM     26  C   LIG    1       -4.103   7.802   0.904  0.00  0.00    +0.020 C 
ATOM     27  C   LIG    1       -3.064   6.981   1.690  0.00  0.00    +0.180 C 
ENDBRANCH  22  23
ENDBRANCH  15  16
ENDBRANCH   1  15
TORSDOF 5
