REMARK  Name = ZINCfA000000bgiV.0
REMARK                            x       y       z     vdW  Elec       q    Type
REMARK                         _______ _______ _______ _____ _____    ______ ____
ROOT
ATOM      1  N   LIG    1       -3.167   1.029   1.525  0.00  0.00    -0.510 N 
ATOM      2  H   LIG    1       -3.052   1.205   2.512  0.00  0.00    +0.430 HD
ATOM      3  H   LIG    1       -2.979   0.056   1.333  0.00  0.00    +0.430 HD
ENDROOT
BRANCH   1   7
ATOM      4  C   LIG    1       -0.013   1.086   0.008  0.00  0.00    +0.020 C 
ATOM      5  C   LIG    1       -0.812   1.624  -1.205  0.00  0.00    +0.070 C 
ATOM      6  C   LIG    1       -2.281   1.493  -0.731  0.00  0.00    +0.050 C 
ATOM      7  C   LIG    1       -2.231   1.867   0.765  0.00  0.00    +0.170 C 
ATOM      8  C   LIG    1       -0.786   1.609   1.236  0.00  0.00    +0.090 C 
BRANCH   4   9
ATOM      9  S   LIG    1        1.678   1.742  -0.005  0.00  0.00    -0.230 S 
BRANCH   9  11
ATOM     10  C   LIG    1        3.870   1.393  -1.603  0.00  0.00    +0.080 C 
ATOM     11  C   LIG    1        2.418   0.936  -1.451  0.00  0.00    +0.070 C 
ENDBRANCH   9  11
ENDBRANCH   4   9
ENDBRANCH   1   7
BRANCH   1  12
ATOM     12  C   LIG    1       -4.545   1.349   1.128  0.00  0.00    +0.280 C 
BRANCH  12  13
ATOM     13  C   LIG    1       -5.520   0.475   1.920  0.00  0.00    -0.010 C 
ATOM     14  C   LIG    1       -6.965   0.900   1.606  0.00  0.00    +0.070 C 
ATOM     15  C   LIG    1       -7.893  -0.207   2.168  0.00  0.00    +0.140 C 
ATOM     16  S   LIG    1       -7.006  -1.737   1.680  0.00  0.00    -0.240 S 
ATOM     17  C   LIG    1       -5.337  -1.002   1.515  0.00  0.00    +0.090 C 
ENDBRANCH  12  13
ENDBRANCH   1  12
TORSDOF 5
