REMARK  Name = ZINCrg00000SjSI9.0
REMARK                            x       y       z     vdW  Elec       q    Type
REMARK                         _______ _______ _______ _____ _____    ______ ____
ROOT
ATOM      1  N   LIG    1        0.562  -1.118   5.023  0.00  0.00    -0.400 N 
ATOM      2  C   LIG    1        1.513  -0.888   5.957  0.00  0.00    +0.530 A 
ATOM      3  N   LIG    1        2.069   0.284   5.738  0.00  0.00    -0.500 NA
ATOM      4  C   LIG    1        1.514   0.857   4.668  0.00  0.00    +0.340 A 
ATOM      5  N   LIG    1        1.716   2.060   4.013  0.00  0.00    -0.510 N 
ATOM      6  C   LIG    1        2.731   2.998   4.499  0.00  0.00    +0.350 C 
ATOM      7  C   LIG    1        0.980   2.369   2.928  0.00  0.00    +0.710 A 
ATOM      8  O   LIG    1        1.171   3.430   2.365  0.00  0.00    -0.530 OA
ATOM      9  N   LIG    1        0.040   1.535   2.452  0.00  0.00    -0.550 N 
ATOM     10  C   LIG    1       -0.206   0.351   3.052  0.00  0.00    +0.600 A 
ATOM     11  O   LIG    1       -1.065  -0.395   2.614  0.00  0.00    -0.490 OA
ATOM     12  C   LIG    1        0.544  -0.015   4.186  0.00  0.00    -0.140 A 
ENDROOT
BRANCH   2  13
ATOM     13  N   LIG    1        1.849  -1.754   6.989  0.00  0.00    -0.310 N 
ATOM     14  N   LIG    1        1.269  -3.004   7.239  0.00  0.00    -0.290 NA
ATOM     15  C   LIG    1        1.847  -3.520   8.293  0.00  0.00    +0.110 A 
ATOM     16  C   LIG    1        2.815  -2.619   8.752  0.00  0.00    -0.220 A 
ATOM     17  C   LIG    1        3.716  -2.817   9.943  0.00  0.00    +0.140 C 
ATOM     18  C   LIG    1        1.525  -4.857   8.908  0.00  0.00    +0.180 C 
ATOM     19  C   LIG    1        2.804  -1.542   7.933  0.00  0.00    +0.130 A 
ATOM     20  C   LIG    1        3.688  -0.327   8.049  0.00  0.00    +0.180 C 
ENDBRANCH   2  13
BRANCH   1  21
ATOM     21  C   LIG    1       -0.286  -2.308   4.917  0.00  0.00    +0.330 C 
BRANCH  21  23
ATOM     22  C   LIG    1       -2.452  -3.339   5.617  0.00  0.00    +0.040 C 
ATOM     23  C   LIG    1       -1.566  -2.096   5.728  0.00  0.00    +0.010 C 
ENDBRANCH  21  23
ENDBRANCH   1  21
BRANCH   9  24
ATOM     24  C   LIG    1       -0.733   1.918   1.269  0.00  0.00    +0.350 C 
BRANCH  24  25
ATOM     25  C   LIG    1       -0.017   1.425   0.010  0.00  0.00    +0.170 C 
BRANCH  25  26
ATOM     26  O   LIG    1        0.002  -0.004   0.002  0.00  0.00    -0.380 OA
ATOM     27  C   LIG    1        0.652  -0.570  -1.138  0.00  0.00    +0.200 C 
ENDBRANCH  25  26
ENDBRANCH  24  25
ENDBRANCH   9  24
TORSDOF 6
