REMARK  Name = ZINCpe00000gLT0c.0
REMARK                            x       y       z     vdW  Elec       q    Type
REMARK                         _______ _______ _______ _____ _____    ______ ____
ROOT
ATOM      1  C   LIG    1       -2.791   3.903  -0.578  0.00  0.00    +0.530 C 
ATOM      2  N   LIG    1       -1.505   3.648  -0.265  0.00  0.00    -0.590 N 
ATOM      3  C   LIG    1       -0.639   3.099  -1.286  0.00  0.00    +0.280 C 
ATOM      4  C   LIG    1       -0.680   1.552  -1.222  0.00  0.00    +0.040 C 
ATOM      5  C   LIG    1       -0.013   1.086   0.008  0.00  0.00    +0.200 C 
ATOM      6  N   LIG    1       -0.651   1.535   1.245  0.00  0.00    -0.470 N 
ATOM      7  C   LIG    1       -0.129   2.825   1.648  0.00  0.00    +0.200 C 
ATOM      8  C   LIG    1       -1.041   3.942   1.108  0.00  0.00    +0.280 C 
ATOM      9  O   LIG    1       -3.199   3.671  -1.696  0.00  0.00    -0.530 OA
ENDROOT
BRANCH   1  12
ATOM     10  N   LIG    1       -5.636   5.917   0.498  0.00  0.00    -0.620 N 
ATOM     11  C   LIG    1       -5.137   4.683  -0.120  0.00  0.00    +0.290 C 
ATOM     12  C   LIG    1       -3.720   4.475   0.461  0.00  0.00    -0.010 C 
ATOM     13  C   LIG    1       -3.316   5.920   0.830  0.00  0.00    +0.080 C 
ATOM     14  C   LIG    1       -4.634   6.634   1.034  0.00  0.00    +0.520 C 
ATOM     15  O   LIG    1       -4.767   7.699   1.600  0.00  0.00    -0.530 OA
BRANCH  10  17
ATOM     16  C   LIG    1       -7.708   5.758   1.787  0.00  0.00    +0.020 C 
ATOM     17  C   LIG    1       -7.045   6.316   0.526  0.00  0.00    +0.280 C 
ENDBRANCH  10  17
ENDBRANCH   1  12
BRANCH   6  18
ATOM     18  C   LIG    1       -0.492   0.600   2.253  0.00  0.00    +0.360 A 
ATOM     19  N   LIG    1        0.167  -0.523   2.011  0.00  0.00    -0.520 NA
ATOM     20  C   LIG    1        0.346  -1.438   2.945  0.00  0.00    +0.330 A 
ATOM     21  C   LIG    1       -0.160  -1.269   4.221  0.00  0.00    -0.050 A 
ATOM     22  C   LIG    1       -0.862  -0.116   4.529  0.00  0.00    +0.150 A 
ATOM     23  C   LIG    1       -1.036   0.844   3.526  0.00  0.00    -0.110 A 
BRANCH  23  24
ATOM     24  C   LIG    1       -1.754   2.054   3.792  0.00  0.00    +0.260 C 
ATOM     25  N   LIG    1       -2.323   3.014   4.003  0.00  0.00    -0.410 NA
ENDBRANCH  23  24
ENDBRANCH   6  18
TORSDOF 4
