REMARK  Name = ZINCqH00000000z1.0
REMARK                            x       y       z     vdW  Elec       q    Type
REMARK                         _______ _______ _______ _____ _____    ______ ____
ROOT
ATOM      1  C   LIG    1       -1.224   1.644   0.017  0.00  0.00    +0.280 A 
ATOM      2  N   LIG    1       -2.394   1.087   0.019  0.00  0.00    -0.500 NA
ATOM      3  C   LIG    1       -3.446   1.894   0.029  0.00  0.00    +0.130 A 
ATOM      4  C   LIG    1       -3.163   3.209   0.035  0.00  0.00    -0.110 A 
ATOM      5  S   LIG    1       -1.410   3.395   0.035  0.00  0.00    +0.210 S 
ENDROOT
BRANCH   3   6
ATOM      6  C   LIG    1       -4.838   1.383   0.034  0.00  0.00    -0.050 A 
ATOM      7  C   LIG    1       -5.910   2.273   0.050  0.00  0.00    +0.070 A 
ATOM      8  C   LIG    1       -7.206   1.800   0.049  0.00  0.00    -0.020 A 
ATOM      9  C   LIG    1       -7.446   0.432   0.043  0.00  0.00    +0.180 A 
ATOM     10  N   LIG    1       -8.752  -0.060   0.048  0.00  0.00    -0.660 N 
ATOM     11  H   LIG    1       -9.485   0.575   0.056  0.00  0.00    +0.420 HD
ATOM     12  C   LIG    1       -9.038  -1.368   0.043  0.00  0.00    +0.710 C 
ATOM     13  N   LIG    1       -8.095  -2.327   0.032  0.00  0.00    -0.620 N 
ATOM     14  C   LIG    1       -6.675  -1.936   0.025  0.00  0.00    +0.310 C 
ATOM     15  C   LIG    1       -8.475  -3.741   0.028  0.00  0.00    +0.310 C 
ATOM     16  O   LIG    1      -10.207  -1.705   0.048  0.00  0.00    -0.580 OA
ATOM     17  C   LIG    1       -6.372  -0.455   0.031  0.00  0.00    -0.140 A 
ATOM     18  C   LIG    1       -5.079   0.007   0.027  0.00  0.00    +0.100 A 
ENDBRANCH   3   6
BRANCH   1  20
ATOM     19  C   LIG    1        1.147   1.655   0.000  0.00  0.00    +0.530 C 
ATOM     20  N   LIG    1       -0.011   0.966   0.007  0.00  0.00    -0.620 N 
ATOM     21  H   LIG    1        0.002  -0.004   0.002  0.00  0.00    +0.430 HD
ATOM     22  O   LIG    1        1.130   2.868   0.007  0.00  0.00    -0.500 OA
BRANCH  19  23
ATOM     23  C   LIG    1        2.462   0.920  -0.017  0.00  0.00    -0.070 C 
ATOM     24  C   LIG    1        2.543   0.048  -1.271  0.00  0.00    +0.060 C 
ATOM     25  C   LIG    1        2.567   0.035   1.227  0.00  0.00    +0.060 C 
BRANCH  23  26
ATOM     26  C   LIG    1        3.611   1.930  -0.022  0.00  0.00    +0.210 C 
BRANCH  26  28
ATOM     27  C   LIG    1        5.920   0.638  -0.051  0.00  0.00    +0.020 C 
ATOM     28  C   LIG    1        4.896   1.211  -0.038  0.00  0.00    -0.190 C 
ENDBRANCH  26  28
ENDBRANCH  23  26
ENDBRANCH  19  23
ENDBRANCH   1  20
TORSDOF 5
