REMARK  Name = ZINCrH00000tj1g5.0
REMARK                            x       y       z     vdW  Elec       q    Type
REMARK                         _______ _______ _______ _____ _____    ______ ____
ROOT
ATOM      1  O   LIG    1       -1.988   2.128  -2.120  0.00  0.00    -0.520 OA
ATOM      2  C   LIG    1       -3.069   2.672  -2.199  0.00  0.00    +0.540 C 
ATOM      3  N   LIG    1       -3.875   2.422  -3.250  0.00  0.00    -0.720 N 
ATOM      4  H   LIG    1       -4.739   2.857  -3.313  0.00  0.00    +0.410 HD
ENDROOT
BRANCH   2   5
ATOM      5  C   LIG    1       -3.512   3.627  -1.120  0.00  0.00    -0.050 C 
ATOM      6  C   LIG    1       -3.822   3.041   0.259  0.00  0.00    +0.080 C 
ATOM      7  C   LIG    1       -2.553   3.869   0.047  0.00  0.00    +0.040 C 
BRANCH   7   8
ATOM      8  C   LIG    1       -1.238   3.133   0.030  0.00  0.00    -0.020 A 
ATOM      9  C   LIG    1       -1.219   1.751   0.017  0.00  0.00    +0.060 A 
ATOM     10  C   LIG    1       -0.013   1.076   0.008  0.00  0.00    +0.050 A 
ATOM     11  C   LIG    1        1.175   1.783   0.000  0.00  0.00    -0.180 A 
ATOM     12  C   LIG    1        1.156   3.165   0.008  0.00  0.00    +0.050 A 
ATOM     13  C   LIG    1       -0.050   3.840   0.022  0.00  0.00    +0.020 A 
BRANCH  11  14
ATOM     14  C   LIG    1        2.490   1.048  -0.016  0.00  0.00    +0.510 C 
ATOM     15  F   LIG    1        2.346  -0.181   0.638  0.00  0.00    -0.180 F 
ATOM     16  F   LIG    1        3.461   1.813   0.638  0.00  0.00    -0.180 F 
ATOM     17  F   LIG    1        2.885   0.827  -1.340  0.00  0.00    -0.180 F 
ENDBRANCH  11  14
ENDBRANCH   7   8
ENDBRANCH   2   5
BRANCH   3  18
ATOM     18  C   LIG    1       -3.445   1.494  -4.298  0.00  0.00    +0.300 C 
BRANCH  18  19
ATOM     19  C   LIG    1       -4.535   1.390  -5.367  0.00  0.00    +0.130 C 
ATOM     20  C   LIG    1       -4.138   0.336  -6.410  0.00  0.00    +0.240 C 
ATOM     21  O   LIG    1       -5.171   0.275  -7.399  0.00  0.00    -0.300 OA
ATOM     22  C   LIG    1       -5.631   1.463  -7.879  0.00  0.00    +0.050 A 
ATOM     23  C   LIG    1       -6.350   1.486  -9.064  0.00  0.00    +0.030 A 
ATOM     24  C   LIG    1       -6.826   2.684  -9.563  0.00  0.00    +0.020 A 
ATOM     25  C   LIG    1       -6.586   3.862  -8.881  0.00  0.00    +0.020 A 
ATOM     26  C   LIG    1       -5.868   3.847  -7.700  0.00  0.00    +0.020 A 
ATOM     27  C   LIG    1       -5.387   2.648  -7.195  0.00  0.00    +0.050 A 
ATOM     28  O   LIG    1       -4.680   2.649  -6.032  0.00  0.00    -0.300 OA
ENDBRANCH  18  19
ENDBRANCH   3  18
TORSDOF 5
