REMARK  Name = ZINCtj00000nxB3w.0
REMARK                            x       y       z     vdW  Elec       q    Type
REMARK                         _______ _______ _______ _____ _____    ______ ____
ROOT
ATOM      1  C   LIG    1        4.002   2.957  -0.400  0.00  0.00    +0.190 C 
ATOM      2  C   LIG    1        3.684   1.499  -0.188  0.00  0.00    +0.150 A 
ATOM      3  C   LIG    1        2.457   0.965   0.087  0.00  0.00    -0.120 A 
ATOM      4  N   LIG    1        2.588  -0.368   0.200  0.00  0.00    -0.200 NA
ATOM      5  N   LIG    1        3.820  -0.697   0.017  0.00  0.00    -0.040 NA
ATOM      6  N   LIG    1        4.557   0.469  -0.230  0.00  0.00    -0.300 N 
ENDROOT
BRANCH   6   7
ATOM      7  C   LIG    1        5.932   0.550  -0.480  0.00  0.00    +0.110 A 
ATOM      8  C   LIG    1        6.711   1.464   0.198  0.00  0.00    +0.070 A 
ATOM      9  C   LIG    1        8.079   1.551  -0.043  0.00  0.00    +0.030 A 
ATOM     10  C   LIG    1        8.689   0.741  -0.952  0.00  0.00    +0.100 A 
ATOM     11  C   LIG    1        7.931  -0.202  -1.664  0.00  0.00    -0.110 A 
ATOM     12  C   LIG    1        8.511  -1.061  -2.612  0.00  0.00    +0.340 A 
ATOM     13  N   LIG    1        7.766  -1.940  -3.241  0.00  0.00    -0.480 NA
ATOM     14  C   LIG    1        6.461  -2.051  -3.038  0.00  0.00    +0.260 A 
ATOM     15  C   LIG    1        5.803  -1.261  -2.143  0.00  0.00    -0.020 A 
ATOM     16  C   LIG    1        6.537  -0.304  -1.422  0.00  0.00    -0.000 A 
ENDBRANCH   6   7
BRANCH   3  17
ATOM     17  C   LIG    1        1.199   1.722   0.231  0.00  0.00    +0.620 C 
ATOM     18  N   LIG    1        0.049   1.074   0.499  0.00  0.00    -0.730 N 
ATOM     19  H   LIG    1        0.048   0.109   0.597  0.00  0.00    +0.400 HD
ATOM     20  O   LIG    1        1.201   2.932   0.108  0.00  0.00    -0.520 OA
BRANCH  18  21
ATOM     21  C   LIG    1       -1.201   1.825   0.635  0.00  0.00    +0.280 C 
BRANCH  21  22
ATOM     22  C   LIG    1       -2.349   0.857   0.930  0.00  0.00    +0.120 C 
ATOM     23  C   LIG    1       -2.064   0.104   2.231  0.00  0.00    +0.230 C 
ATOM     24  N   LIG    1       -3.122   0.370   3.207  0.00  0.00    -0.370 N 
ATOM     25  C   LIG    1       -3.178   1.798   3.530  0.00  0.00    +0.260 C 
ATOM     26  C   LIG    1       -3.500   2.608   2.273  0.00  0.00    +0.080 C 
ATOM     27  C   LIG    1       -4.417  -0.096   2.705  0.00  0.00    +0.250 C 
ATOM     28  C   LIG    1       -4.780   0.652   1.420  0.00  0.00    +0.080 C 
ATOM     29  H   LIG    1       -2.909  -0.133   4.055  0.00  0.00    +0.430 HD
ATOM     30  C   LIG    1       -3.657   1.643   1.090  0.00  0.00    +0.050 C 
BRANCH  22  31
ATOM     31  O   LIG    1       -2.476  -0.075  -0.146  0.00  0.00    -0.530 OA
ATOM     32  H   LIG    1       -1.685  -0.610  -0.298  0.00  0.00    +0.390 HD
ENDBRANCH  22  31
ENDBRANCH  21  22
ENDBRANCH  18  21
ENDBRANCH   3  17
TORSDOF 5
