REMARK  Name = ZINCkj00000xsrrH.0
REMARK                            x       y       z     vdW  Elec       q    Type
REMARK                         _______ _______ _______ _____ _____    ______ ____
ROOT
ATOM      1  N   LIG    1       -0.014   0.970   0.025  0.00  0.00    -0.690 NA
ATOM      2  H   LIG    1        0.000   0.001   0.028  0.00  0.00    +0.430 HD
ENDROOT
BRANCH   1   3
ATOM      3  C   LIG    1       -1.293   1.685   0.018  0.00  0.00    +0.330 C 
BRANCH   3   7
ATOM      4  C   LIG    1       -4.501  -1.139   0.017  0.00  0.00    +0.240 A 
ATOM      5  C   LIG    1       -3.982  -0.675   1.220  0.00  0.00    -0.070 A 
ATOM      6  C   LIG    1       -2.946   0.237   1.216  0.00  0.00    +0.080 A 
ATOM      7  C   LIG    1       -2.424   0.689   0.018  0.00  0.00    -0.210 A 
ATOM      8  C   LIG    1       -2.942   0.233  -1.181  0.00  0.00    +0.080 A 
ATOM      9  C   LIG    1       -3.974  -0.684  -1.185  0.00  0.00    -0.070 A 
BRANCH   4  11
ATOM     10  C   LIG    1       -6.019  -2.637   1.280  0.00  0.00    +0.290 C 
ATOM     11  N   LIG    1       -5.549  -2.063   0.017  0.00  0.00    -0.630 N 
ATOM     12  C   LIG    1       -6.178  -2.456  -1.246  0.00  0.00    +0.280 C 
ENDBRANCH   4  11
ENDBRANCH   3   7
ENDBRANCH   1   3
BRANCH   1  13
ATOM     13  C   LIG    1        1.167   1.675   0.020  0.00  0.00    +0.730 C 
BRANCH  13  14
ATOM     14  N   LIG    1        1.148   2.978   0.015  0.00  0.00    -0.780 NA
ATOM     15  H   LIG    1        0.301   3.451   0.015  0.00  0.00    +0.440 HD
ATOM     16  H   LIG    1        1.981   3.475   0.012  0.00  0.00    +0.440 HD
ENDBRANCH  13  14
BRANCH  13  17
ATOM     17  N   LIG    1        2.368   1.005   0.021  0.00  0.00    -0.690 NA
ATOM     18  H   LIG    1        2.381   0.035   0.024  0.00  0.00    +0.440 HD
BRANCH  17  19
ATOM     19  C   LIG    1        3.626   1.755   0.016  0.00  0.00    +0.270 C 
BRANCH  19  20
ATOM     20  C   LIG    1        4.803   0.778   0.018  0.00  0.00    +0.170 C 
ATOM     21  C   LIG    1        6.130   1.558   0.129  0.00  0.00    +0.030 C 
ATOM     22  C   LIG    1        7.059   0.766  -0.832  0.00  0.00    +0.020 C 
ATOM     23  C   LIG    1        6.050   0.328  -1.922  0.00  0.00    +0.220 C 
ATOM     24  O   LIG    1        4.831   0.049  -1.215  0.00  0.00    -0.380 OA
ENDBRANCH  19  20
ENDBRANCH  17  19
ENDBRANCH  13  17
ENDBRANCH   1  13
TORSDOF 8
