REMARK  Name = ZINCtV000002LCPz.0
REMARK                            x       y       z     vdW  Elec       q    Type
REMARK                         _______ _______ _______ _____ _____    ______ ____
ROOT
ATOM      1  C   LIG    1       -0.231  -0.092  -3.065  0.00  0.00    +0.220 A 
ATOM      2  N   LIG    1        0.597  -0.114  -4.084  0.00  0.00    -0.250 NA
ATOM      3  N   LIG    1        1.236   0.999  -4.153  0.00  0.00    -0.290 NA
ATOM      4  C   LIG    1        0.851   1.802  -3.186  0.00  0.00    +0.160 A 
ATOM      5  N   LIG    1       -0.092   1.133  -2.457  0.00  0.00    -0.450 N 
ENDROOT
BRANCH   1  12
ATOM      6  F   LIG    1        0.632  -2.764  -2.796  0.00  0.00    -0.120 F 
ATOM      7  C   LIG    1       -0.664  -2.489  -2.533  0.00  0.00    +0.140 A 
ATOM      8  C   LIG    1       -1.521  -3.501  -2.144  0.00  0.00    +0.000 A 
ATOM      9  C   LIG    1       -2.849  -3.220  -1.874  0.00  0.00    +0.070 A 
ATOM     10  C   LIG    1       -3.327  -1.927  -1.989  0.00  0.00    +0.010 A 
ATOM     11  C   LIG    1       -2.481  -0.906  -2.370  0.00  0.00    +0.060 A 
ATOM     12  C   LIG    1       -1.142  -1.181  -2.651  0.00  0.00    -0.060 A 
ENDBRANCH   1  12
BRANCH   4  13
ATOM     13  S   LIG    1        1.443   3.433  -2.883  0.00  0.00    +0.020 S 
BRANCH  13  14
ATOM     14  C   LIG    1        2.635   3.591  -4.236  0.00  0.00    +0.160 C 
BRANCH  14  15
ATOM     15  C   LIG    1        3.285   4.949  -4.176  0.00  0.00    -0.070 A 
ATOM     16  C   LIG    1        2.727   6.013  -4.859  0.00  0.00    +0.050 A 
ATOM     17  C   LIG    1        3.320   7.260  -4.801  0.00  0.00    +0.050 A 
ATOM     18  C   LIG    1        4.479   7.441  -4.067  0.00  0.00    -0.080 A 
ATOM     19  C   LIG    1        5.040   6.374  -3.389  0.00  0.00    +0.050 A 
ATOM     20 BR   LIG    1        5.296   9.145  -3.993  0.00  0.00    -0.040 Br
ATOM     21  C   LIG    1        4.443   5.129  -3.443  0.00  0.00    +0.050 A 
ENDBRANCH  14  15
ENDBRANCH  13  14
ENDBRANCH   4  13
BRANCH   5  22
ATOM     22  C   LIG    1       -0.809   1.623  -1.277  0.00  0.00    +0.310 C 
BRANCH  22  23
ATOM     23  C   LIG    1       -0.093   1.146  -0.011  0.00  0.00    +0.070 C 
BRANCH  23  24
ATOM     24  C   LIG    1       -0.831   1.649   1.203  0.00  0.00    -0.090 A 
ATOM     25  C   LIG    1       -0.496   2.870   1.758  0.00  0.00    +0.010 A 
ATOM     26  C   LIG    1       -1.176   3.333   2.869  0.00  0.00    +0.000 A 
ATOM     27  C   LIG    1       -2.184   2.572   3.430  0.00  0.00    +0.000 A 
ATOM     28  C   LIG    1       -2.515   1.349   2.878  0.00  0.00    +0.000 A 
ATOM     29  C   LIG    1       -1.839   0.887   1.764  0.00  0.00    +0.010 A 
ENDBRANCH  23  24
ENDBRANCH  22  23
ENDBRANCH   5  22
TORSDOF 7
