REMARK  Name = ZINCpk00000xS9T4.0
REMARK                            x       y       z     vdW  Elec       q    Type
REMARK                         _______ _______ _______ _____ _____    ______ ____
ROOT
ATOM      1  C   LIG    1        1.224   4.003  -2.364  0.00  0.00    +0.020 C 
ATOM      2  C   LIG    1        1.904   4.281  -1.022  0.00  0.00    +0.100 C 
ATOM      3  C   LIG    1        1.065   3.680   0.112  0.00  0.00    +0.280 C 
ATOM      4  N   LIG    1        1.112   2.214  -0.003  0.00  0.00    -0.600 N 
ATOM      5  C   LIG    1        2.431   1.572  -0.126  0.00  0.00    +0.260 C 
ATOM      6  C   LIG    1        3.203   2.276  -1.254  0.00  0.00    +0.160 C 
ATOM      7  C   LIG    1       -0.018   1.480   0.010  0.00  0.00    +0.570 C 
ATOM      8  O   LIG    1       -1.100   2.032   0.019  0.00  0.00    -0.500 OA
ATOM      9  C   LIG    1        2.032   5.792  -0.817  0.00  0.00    +0.080 C 
ATOM     10  O   LIG    1        3.204   3.685  -1.012  0.00  0.00    -0.350 OA
ENDROOT
BRANCH   7  11
ATOM     11  C   LIG    1        0.059  -0.002   0.007  0.00  0.00    -0.070 A 
ATOM     12  C   LIG    1        0.407  -0.701   1.152  0.00  0.00    +0.030 A 
ATOM     13  C   LIG    1        0.453  -2.114   1.068  0.00  0.00    +0.480 A 
ATOM     14  N   LIG    1        0.172  -2.714  -0.104  0.00  0.00    -0.440 N 
ATOM     15  H   LIG    1        0.208  -3.681  -0.157  0.00  0.00    +0.440 HD
ATOM     16  N   LIG    1       -0.143  -2.045  -1.153  0.00  0.00    -0.200 NA
ATOM     17  O   LIG    1        0.749  -2.780   2.046  0.00  0.00    -0.520 OA
ATOM     18  C   LIG    1       -0.214  -0.744  -1.165  0.00  0.00    +0.250 A 
ENDBRANCH   7  11
BRANCH   6  19
ATOM     19  C   LIG    1        4.644   1.762  -1.284  0.00  0.00    +0.230 C 
BRANCH  19  20
ATOM     20  O   LIG    1        5.331   2.336  -2.398  0.00  0.00    -0.300 OA
BRANCH  20  21
ATOM     21  C   LIG    1        6.631   1.980  -2.570  0.00  0.00    +0.130 A 
ATOM     22  C   LIG    1        7.235   1.101  -1.683  0.00  0.00    -0.080 A 
ATOM     23  C   LIG    1        8.555   0.737  -1.863  0.00  0.00    +0.050 A 
ATOM     24  C   LIG    1        9.278   1.256  -2.922  0.00  0.00    -0.040 A 
ATOM     25  C   LIG    1        8.680   2.136  -3.805  0.00  0.00    +0.050 A 
ATOM     26  C   LIG    1        7.358   2.499  -3.631  0.00  0.00    -0.020 A 
ENDBRANCH  20  21
ENDBRANCH  19  20
ENDBRANCH   6  19
TORSDOF 4
