REMARK  Name = ZINCvU00000008WQ.0
REMARK                            x       y       z     vdW  Elec       q    Type
REMARK                         _______ _______ _______ _____ _____    ______ ____
ROOT
ATOM      1  N   LIG    1        1.447  -0.087  -2.224  0.00  0.00    -0.730 N 
ATOM      2  H   LIG    1        2.053   0.424  -1.665  0.00  0.00    +0.400 HD
ATOM      3  C   LIG    1        0.129   0.194  -2.220  0.00  0.00    +0.520 C 
ATOM      4  O   LIG    1       -0.629  -0.445  -2.919  0.00  0.00    -0.520 OA
ENDROOT
BRANCH   3   5
ATOM      5  C   LIG    1       -0.404   1.302  -1.349  0.00  0.00    -0.010 C 
ATOM      6  C   LIG    1       -1.920   1.410  -1.528  0.00  0.00    +0.060 C 
ATOM      7  C   LIG    1       -2.457   2.556  -0.668  0.00  0.00    +0.020 C 
ATOM      8  C   LIG    1       -2.163   2.263   0.807  0.00  0.00    +0.290 C 
ATOM      9  N   LIG    1       -0.721   2.015   0.965  0.00  0.00    -0.620 N 
ATOM     10  C   LIG    1        0.004   2.708   1.865  0.00  0.00    +0.710 C 
ATOM     11  N   LIG    1        1.298   2.394   2.073  0.00  0.00    -0.690 N 
ATOM     12  H   LIG    1        1.738   1.747   1.500  0.00  0.00    +0.400 HD
ATOM     13  O   LIG    1       -0.509   3.617   2.489  0.00  0.00    -0.560 OA
ATOM     14  C   LIG    1       -0.087   0.995   0.119  0.00  0.00    +0.280 C 
BRANCH  11  15
ATOM     15  C   LIG    1        2.007   3.003   3.114  0.00  0.00    +0.160 A 
ATOM     16  C   LIG    1        1.354   3.358   4.287  0.00  0.00    +0.010 A 
ATOM     17  C   LIG    1        2.057   3.955   5.315  0.00  0.00    +0.030 A 
ATOM     18  C   LIG    1        3.409   4.208   5.173  0.00  0.00    -0.020 A 
ATOM     19  C   LIG    1        4.062   3.861   4.005  0.00  0.00    +0.030 A 
ATOM     20  C   LIG    1        3.365   3.260   2.975  0.00  0.00    -0.030 A 
ENDBRANCH  11  15
ENDBRANCH   3   5
BRANCH   1  21
ATOM     21  C   LIG    1        1.964  -1.164  -3.071  0.00  0.00    +0.370 C 
BRANCH  21  26
ATOM     22  C   LIG    1        6.899  -3.174  -0.835  0.00  0.00    +0.090 C 
ATOM     23  C   LIG    1        5.612  -2.650  -1.418  0.00  0.00    -0.080 A 
ATOM     24  C   LIG    1        4.692  -3.526  -1.961  0.00  0.00    +0.010 A 
ATOM     25  C   LIG    1        3.511  -3.046  -2.496  0.00  0.00    +0.030 A 
ATOM     26  C   LIG    1        3.251  -1.688  -2.488  0.00  0.00    -0.100 A 
ATOM     27  C   LIG    1        4.174  -0.811  -1.949  0.00  0.00    +0.010 A 
ATOM     28  C   LIG    1        5.352  -1.292  -1.411  0.00  0.00    +0.020 A 
ENDBRANCH  21  26
BRANCH  21  29
ATOM     29  C   LIG    1        2.221  -0.633  -4.458  0.00  0.00    -0.190 A 
ATOM     30  C   LIG    1        1.960  -1.285  -5.592  0.00  0.00    +0.020 A 
ATOM     31  C   LIG    1        2.281  -0.596  -6.748  0.00  0.00    +0.010 A 
ATOM     32  C   LIG    1        2.802   0.617  -6.554  0.00  0.00    -0.050 A 
ATOM     33  S   LIG    1        2.903   0.945  -4.829  0.00  0.00    +0.100 S 
ENDBRANCH  21  29
ENDBRANCH   1  21
TORSDOF 5
