REMARK  Name = ZINCb800000047zn.0
REMARK                            x       y       z     vdW  Elec       q    Type
REMARK                         _______ _______ _______ _____ _____    ______ ____
ROOT
ATOM      1  C   LIG    1        1.823  -1.843  -0.025  0.00  0.00    +0.080 C 
ATOM      2  C   LIG    1        0.860  -2.702  -0.847  0.00  0.00    +0.070 C 
ENDROOT
BRANCH   1   3
ATOM      3  C   LIG    1        1.339  -0.416  -0.013  0.00  0.00    +0.100 A 
ATOM      4  N   LIG    1        2.095   0.651  -0.015  0.00  0.00    -0.290 NA
ATOM      5  N   LIG    1        1.263   1.778  -0.001  0.00  0.00    -0.470 N 
ATOM      6  H   LIG    1        1.555   2.703   0.002  0.00  0.00    +0.440 HD
ATOM      7  C   LIG    1       -0.016   1.349   0.009  0.00  0.00    +0.240 A 
ATOM      8  C   LIG    1        0.002  -0.004   0.002  0.00  0.00    -0.110 A 
ENDBRANCH   1   3
BRANCH   1  12
ATOM      9  C   LIG    1        2.346  -4.136   2.996  0.00  0.00    +0.290 C 
ATOM     10  N   LIG    1        2.289  -3.628   1.623  0.00  0.00    -0.740 N 
ATOM     11  H   LIG    1        2.546  -4.201   0.883  0.00  0.00    +0.400 HD
ATOM     12  C   LIG    1        1.881  -2.365   1.388  0.00  0.00    +0.520 C 
ATOM     13  O   LIG    1        1.561  -1.649   2.313  0.00  0.00    -0.530 OA
ENDBRANCH   1  12
TORSDOF 2
