REMARK  Name = ZINCpe000027pHdL.0
REMARK                            x       y       z     vdW  Elec       q    Type
REMARK                         _______ _______ _______ _____ _____    ______ ____
ROOT
ATOM      1  C   LIG    1        4.035   2.010  -0.853  0.00  0.00    -0.010 C 
ATOM      2  C   LIG    1        3.675   1.633   0.585  0.00  0.00    +0.070 C 
ATOM      3  C   LIG    1        2.361   0.850   0.594  0.00  0.00    +0.020 C 
ATOM      4  C   LIG    1        1.248   1.716  -0.001  0.00  0.00    +0.230 C 
ATOM      5  C   LIG    1        1.608   2.092  -1.439  0.00  0.00    +0.020 C 
ATOM      6  C   LIG    1        2.922   2.875  -1.448  0.00  0.00    +0.030 C 
ENDROOT
BRANCH   1   9
ATOM      7  N   LIG    1        5.846   3.219  -2.027  0.00  0.00    -0.720 N 
ATOM      8  H   LIG    1        5.383   3.039  -2.860  0.00  0.00    +0.410 HD
ATOM      9  C   LIG    1        5.330   2.781  -0.861  0.00  0.00    +0.520 C 
ATOM     10  O   LIG    1        5.907   3.007   0.181  0.00  0.00    -0.530 OA
BRANCH   7  12
ATOM     11  C   LIG    1        6.818   5.449  -1.774  0.00  0.00    +0.060 C 
ATOM     12  C   LIG    1        7.104   3.969  -2.035  0.00  0.00    +0.340 C 
BRANCH  12  13
ATOM     13  C   LIG    1        7.772   3.816  -3.377  0.00  0.00    +0.260 A 
ATOM     14  N   LIG    1        7.183   3.905  -4.542  0.00  0.00    -0.530 NA
ATOM     15  C   LIG    1        8.075   3.719  -5.514  0.00  0.00    +0.420 A 
ATOM     16  N   LIG    1        9.247   3.500  -4.979  0.00  0.00    -0.310 NA
ATOM     17  N   LIG    1        9.074   3.558  -3.586  0.00  0.00    -0.370 N 
ATOM     18  C   LIG    1       10.108   3.376  -2.564  0.00  0.00    +0.370 C 
ENDBRANCH  12  13
ENDBRANCH   7  12
ENDBRANCH   1   9
BRANCH   4  19
ATOM     19  N   LIG    1       -0.011   0.966   0.007  0.00  0.00    -0.710 N 
ATOM     20  H   LIG    1        0.002  -0.004   0.002  0.00  0.00    +0.410 HD
ATOM     21  C   LIG    1       -1.187   1.624   0.017  0.00  0.00    +0.610 C 
ATOM     22  O   LIG    1       -1.204   2.840   0.023  0.00  0.00    -0.520 OA
BRANCH  21  23
ATOM     23  C   LIG    1       -2.454   0.869   0.018  0.00  0.00    -0.030 A 
ATOM     24  C   LIG    1       -3.704   1.454   0.033  0.00  0.00    -0.030 A 
ATOM     25  S   LIG    1       -4.789   0.118   0.025  0.00  0.00    +0.480 S 
ATOM     26  N   LIG    1       -3.688  -0.993   0.015  0.00  0.00    -0.290 NA
ATOM     27  N   LIG    1       -2.532  -0.457   0.012  0.00  0.00    -0.210 NA
ENDBRANCH  21  23
ENDBRANCH   4  19
TORSDOF 5
