REMARK  Name = ZINCpe000000XSJr.0
REMARK                            x       y       z     vdW  Elec       q    Type
REMARK                         _______ _______ _______ _____ _____    ______ ____
ROOT
ATOM      1  N   LIG    1        2.917   0.838  -1.332  0.00  0.00    -0.490 N 
ATOM      2  C   LIG    1        2.650   0.242  -0.016  0.00  0.00    +0.210 C 
ATOM      3  C   LIG    1        3.875  -0.554   0.439  0.00  0.00    +0.190 C 
ATOM      4  N   LIG    1        5.042   0.337   0.495  0.00  0.00    -0.520 NA
ATOM      5  C   LIG    1        5.310   0.933  -0.822  0.00  0.00    +0.190 C 
ATOM      6  C   LIG    1        4.084   1.730  -1.276  0.00  0.00    +0.210 C 
ENDROOT
BRANCH   1  12
ATOM      7  C   LIG    1       -1.839   0.792  -2.571  0.00  0.00    +0.090 C 
ATOM      8  C   LIG    1       -0.526   1.517  -2.424  0.00  0.00    -0.060 A 
ATOM      9  C   LIG    1       -0.432   2.853  -2.766  0.00  0.00    -0.030 A 
ATOM     10  C   LIG    1        0.772   3.521  -2.638  0.00  0.00    +0.030 A 
ATOM     11  C   LIG    1        1.885   2.856  -2.163  0.00  0.00    -0.050 A 
ATOM     12  C   LIG    1        1.793   1.514  -1.813  0.00  0.00    +0.110 A 
ATOM     13  C   LIG    1        0.582   0.847  -1.943  0.00  0.00    -0.020 A 
ENDBRANCH   1  12
BRANCH   4  14
ATOM     14  C   LIG    1        6.224  -0.373   1.000  0.00  0.00    +0.130 C 
ATOM     15  C   LIG    1        5.882  -1.052   2.329  0.00  0.00    +0.060 C 
BRANCH  14  16
ATOM     16  C   LIG    1        7.348   0.608   1.212  0.00  0.00    +0.520 C 
ATOM     17  N   LIG    1        8.628   0.193   1.135  0.00  0.00    -0.720 N 
ATOM     18  H   LIG    1        8.826  -0.737   0.944  0.00  0.00    +0.400 HD
ATOM     19  O   LIG    1        7.101   1.770   1.452  0.00  0.00    -0.510 OA
BRANCH  17  20
ATOM     20  C   LIG    1        9.721   1.147   1.341  0.00  0.00    +0.270 C 
ATOM     21  C   LIG    1       10.984   0.651   0.616  0.00  0.00    +0.070 C 
ATOM     22  C   LIG    1       12.163   1.510   1.140  0.00  0.00    -0.310 C 
ATOM     23  S   LIG    1       11.827   1.592   2.940  0.00  0.00    +2.400 S 
ATOM     24  O   LIG    1       12.040   2.919   3.400  0.00  0.00    -0.930 OA
ATOM     25  O   LIG    1       12.471   0.504   3.589  0.00  0.00    -0.930 OA
ATOM     26  C   LIG    1       10.032   1.261   2.847  0.00  0.00    -0.330 C 
ENDBRANCH  17  20
ENDBRANCH  14  16
ENDBRANCH   4  14
TORSDOF 4
