REMARK  Name = ZINCfA000000bmSQ.0
REMARK                            x       y       z     vdW  Elec       q    Type
REMARK                         _______ _______ _______ _____ _____    ______ ____
ROOT
ATOM      1  N   LIG    1       -1.584  -1.208   1.395  0.00  0.00    -0.510 N 
ATOM      2  H   LIG    1       -1.804  -0.350   1.877  0.00  0.00    +0.420 HD
ATOM      3  H   LIG    1       -0.816  -1.669   1.861  0.00  0.00    +0.430 HD
ENDROOT
BRANCH   1  11
ATOM      4  C   LIG    1       -3.599  -0.953   3.462  0.00  0.00    +0.040 C 
ATOM      5  C   LIG    1       -3.230  -2.302   2.841  0.00  0.00    -0.010 C 
ATOM      6  C   LIG    1       -4.455  -3.219   2.847  0.00  0.00    +0.060 C 
ATOM      7  C   LIG    1       -4.085  -4.568   2.226  0.00  0.00    -0.010 C 
ATOM      8  C   LIG    1       -3.615  -4.354   0.786  0.00  0.00    +0.060 C 
ATOM      9  C   LIG    1       -2.390  -3.438   0.780  0.00  0.00    +0.040 C 
ATOM     10  C   LIG    1       -2.962  -5.213   3.039  0.00  0.00    +0.010 C 
ATOM     11  C   LIG    1       -2.760  -2.089   1.401  0.00  0.00    +0.170 C 
ENDBRANCH   1  11
BRANCH   1  12
ATOM     12  C   LIG    1       -1.204  -0.907   0.008  0.00  0.00    +0.380 C 
BRANCH  12  13
ATOM     13  C   LIG    1        0.002  -0.004   0.002  0.00  0.00    -0.340 A 
ATOM     14  C   LIG    1        1.279  -0.398  -0.012  0.00  0.00    +0.300 A 
ATOM     15  N   LIG    1        2.155   0.587  -0.015  0.00  0.00    -0.470 NA
ATOM     16  C   LIG    1        1.688   1.789  -0.004  0.00  0.00    +0.280 A 
ATOM     17  S   LIG    1       -0.022   1.758   0.012  0.00  0.00    +0.180 S 
ENDBRANCH  12  13
ENDBRANCH   1  12
TORSDOF 3
