REMARK  Name = ZINCrg000000rVhl.0
REMARK                            x       y       z     vdW  Elec       q    Type
REMARK                         _______ _______ _______ _____ _____    ______ ____
ROOT
ATOM      1  C   LIG    1        4.885   2.407  -0.248  0.00  0.00    +0.600 C 
ATOM      2  N   LIG    1        5.738   3.450  -0.262  0.00  0.00    -0.720 N 
ATOM      3  H   LIG    1        5.399   4.352  -0.370  0.00  0.00    +0.400 HD
ATOM      4  O   LIG    1        5.310   1.274  -0.112  0.00  0.00    -0.510 OA
ENDROOT
BRANCH   1   7
ATOM      5  C   LIG    1        2.840   0.211  -0.242  0.00  0.00    +0.140 C 
ATOM      6  C   LIG    1        2.509   1.673  -0.397  0.00  0.00    +0.070 A 
ATOM      7  C   LIG    1        3.444   2.636  -0.396  0.00  0.00    -0.300 A 
ATOM      8  S   LIG    1        2.693   4.209  -0.598  0.00  0.00    +0.250 S 
ATOM      9  C   LIG    1        1.132   3.523  -0.678  0.00  0.00    +0.050 A 
ATOM     10  N   LIG    1       -0.103   4.112  -0.839  0.00  0.00    -0.590 N 
ATOM     11  H   LIG    1       -0.163   5.076  -0.927  0.00  0.00    +0.430 HD
ATOM     12  C   LIG    1       -1.225   3.375  -0.876  0.00  0.00    +0.650 A 
ATOM     13  N   LIG    1       -1.219   2.076  -0.768  0.00  0.00    -0.580 NA
ATOM     14  C   LIG    1       -0.075   1.392  -0.602  0.00  0.00    +0.550 A 
ATOM     15  O   LIG    1       -0.087   0.177  -0.499  0.00  0.00    -0.470 OA
ATOM     16  C   LIG    1        1.202   2.141  -0.553  0.00  0.00    -0.240 A 
ENDBRANCH   1   7
BRANCH   2  17
ATOM     17  C   LIG    1        7.178   3.221  -0.114  0.00  0.00    +0.250 C 
ATOM     18  C   LIG    1        7.851   3.047  -1.500  0.00  0.00    +0.040 C 
ATOM     19  C   LIG    1        9.302   3.501  -1.200  0.00  0.00    +0.280 C 
ATOM     20  N   LIG    1        9.159   4.616  -0.247  0.00  0.00    -0.590 N 
ATOM     21  C   LIG    1        7.875   4.475   0.455  0.00  0.00    +0.260 C 
BRANCH  20  22
ATOM     22  C   LIG    1       10.081   5.629  -0.045  0.00  0.00    +0.270 A 
ATOM     23  C   LIG    1        9.859   6.593   0.922  0.00  0.00    -0.240 A 
ATOM     24  C   LIG    1       10.812   7.606   1.104  0.00  0.00    +0.530 A 
ATOM     25  N   LIG    1       11.920   7.623   0.338  0.00  0.00    -0.520 N 
ATOM     26  H   LIG    1       12.580   8.323   0.462  0.00  0.00    +0.440 HD
ATOM     27  N   LIG    1       12.126   6.640  -0.636  0.00  0.00    -0.180 NA
ATOM     28  O   LIG    1       10.638   8.468   1.953  0.00  0.00    -0.530 OA
ATOM     29 CL   LIG    1        8.423   6.548   1.896  0.00  0.00    -0.030 Cl
ATOM     30  C   LIG    1       11.259   5.684  -0.820  0.00  0.00    +0.270 A 
ENDBRANCH  20  22
ENDBRANCH   2  17
TORSDOF 3
