REMARK  Name = ZINCqH0000000uoB.0
REMARK                            x       y       z     vdW  Elec       q    Type
REMARK                         _______ _______ _______ _____ _____    ______ ____
ROOT
ATOM      1  N   LIG    1        3.338   1.863  -1.269  0.00  0.00    -0.740 N 
ATOM      2  H   LIG    1        3.221   2.824  -1.320  0.00  0.00    +0.400 HD
ATOM      3  C   LIG    1        4.298   1.260  -1.998  0.00  0.00    +0.710 C 
ATOM      4  N   LIG    1        5.095   1.994  -2.800  0.00  0.00    -0.740 N 
ATOM      5  H   LIG    1        4.979   2.956  -2.851  0.00  0.00    +0.400 HD
ATOM      6  O   LIG    1        4.444   0.055  -1.934  0.00  0.00    -0.590 OA
ENDROOT
BRANCH   1   7
ATOM      7  C   LIG    1        2.471   1.065  -0.398  0.00  0.00    +0.300 C 
ATOM      8  C   LIG    1        3.159   0.854   0.952  0.00  0.00    +0.040 C 
BRANCH   7  13
ATOM      9  C   LIG    1       -1.223   1.752   0.012  0.00  0.00    +0.150 A 
ATOM     10  C   LIG    1       -1.227   3.129   0.197  0.00  0.00    -0.010 A 
ATOM     11  C   LIG    1       -0.036   3.829   0.184  0.00  0.00    +0.040 A 
ATOM     12  C   LIG    1        1.159   3.161  -0.008  0.00  0.00    -0.010 A 
ATOM     13  C   LIG    1        1.166   1.789  -0.188  0.00  0.00    -0.070 A 
ATOM     14  C   LIG    1       -0.021   1.083  -0.176  0.00  0.00    +0.030 A 
BRANCH   9  17
ATOM     15  C   LIG    1       -3.733  -1.025   0.405  0.00  0.00    +0.110 C 
ATOM     16  C   LIG    1       -2.465  -0.215   0.506  0.00  0.00    +0.510 C 
ATOM     17  N   LIG    1       -2.428   1.041   0.019  0.00  0.00    -0.680 N 
ATOM     18  H   LIG    1       -3.236   1.452  -0.326  0.00  0.00    +0.410 HD
ATOM     19  O   LIG    1       -1.479  -0.695   1.025  0.00  0.00    -0.520 OA
ENDBRANCH   9  17
ENDBRANCH   7  13
ENDBRANCH   1   7
BRANCH   4  20
ATOM     20  C   LIG    1        6.138   1.339  -3.593  0.00  0.00    +0.310 C 
BRANCH  20  21
ATOM     21  C   LIG    1        6.894   2.390  -4.408  0.00  0.00    +0.190 C 
BRANCH  21  22
ATOM     22  O   LIG    1        7.589   3.271  -3.523  0.00  0.00    -0.310 OA
BRANCH  22  23
ATOM     23  C   LIG    1        8.316   4.270  -4.090  0.00  0.00    +0.130 A 
ATOM     24  C   LIG    1        8.363   4.396  -5.471  0.00  0.00    -0.060 A 
ATOM     25  C   LIG    1        9.098   5.415  -6.045  0.00  0.00    +0.070 A 
ATOM     26  C   LIG    1        9.795   6.303  -5.245  0.00  0.00    -0.070 A 
ATOM     27  C   LIG    1        9.753   6.175  -3.868  0.00  0.00    +0.070 A 
ATOM     28 CL   LIG    1       10.723   7.578  -5.970  0.00  0.00    -0.070 Cl
ATOM     29  C   LIG    1        9.015   5.161  -3.290  0.00  0.00    +0.000 A 
ENDBRANCH  22  23
ENDBRANCH  21  22
ENDBRANCH  20  21
ENDBRANCH   4  20
TORSDOF 7
