REMARK  Name = ZINCpk00000eblrq.0
REMARK                            x       y       z     vdW  Elec       q    Type
REMARK                         _______ _______ _______ _____ _____    ______ ____
ROOT
ATOM      1  C   LIG    1        4.065  -0.332   1.101  0.00  0.00    -0.190 A 
ATOM      2  C   LIG    1        4.532  -0.725  -0.136  0.00  0.00    +0.430 A 
ATOM      3  N   LIG    1        3.939  -0.235  -1.258  0.00  0.00    -0.490 N 
ATOM      4  C   LIG    1        2.909   0.623  -1.189  0.00  0.00    +0.710 A 
ATOM      5  N   LIG    1        2.407   1.043  -0.015  0.00  0.00    -0.530 N 
ATOM      6  O   LIG    1        2.413   1.032  -2.221  0.00  0.00    -0.520 OA
ATOM      7  C   LIG    1        2.937   0.613   1.149  0.00  0.00    +0.570 A 
ATOM      8  O   LIG    1        2.489   0.994   2.214  0.00  0.00    -0.490 OA
ENDROOT
BRANCH   3   9
ATOM      9  C   LIG    1        4.436  -0.653  -2.572  0.00  0.00    +0.220 C 
ATOM     10  C   LIG    1        5.471  -1.778  -2.610  0.00  0.00    +0.050 C 
ATOM     11  C   LIG    1        5.895  -0.339  -2.907  0.00  0.00    +0.060 C 
ENDBRANCH   3   9
BRANCH   1  13
ATOM     12  N   LIG    1        5.137  -1.217   3.260  0.00  0.00    -0.400 NA
ATOM     13  C   LIG    1        4.663  -0.826   2.305  0.00  0.00    +0.280 C 
ENDBRANCH   1  13
BRANCH   5  14
ATOM     14  C   LIG    1        1.280   1.980   0.001  0.00  0.00    +0.350 C 
BRANCH  14  15
ATOM     15  C   LIG    1       -0.014   1.209   0.009  0.00  0.00    +0.510 C 
ATOM     16  N   LIG    1       -1.191   1.867   0.018  0.00  0.00    -0.720 N 
ATOM     17  H   LIG    1       -1.204   2.837   0.023  0.00  0.00    +0.400 HD
ATOM     18  O   LIG    1        0.002  -0.004   0.002  0.00  0.00    -0.530 OA
BRANCH  16  19
ATOM     19  C   LIG    1       -2.449   1.117   0.020  0.00  0.00    +0.240 C 
ATOM     20  C   LIG    1       -2.830   0.756  -1.418  0.00  0.00    +0.000 C 
ATOM     21  C   LIG    1       -3.896  -0.341  -1.402  0.00  0.00    +0.010 C 
ATOM     22  C   LIG    1       -3.516  -1.409  -0.375  0.00  0.00    +0.010 C 
ATOM     23  C   LIG    1       -4.523  -1.390   0.777  0.00  0.00    +0.000 C 
ATOM     24  C   LIG    1       -4.240  -0.189   1.681  0.00  0.00    +0.000 C 
ATOM     25  C   LIG    1       -4.744   1.088   1.007  0.00  0.00    +0.030 C 
ATOM     26  C   LIG    1       -3.554   1.976   0.639  0.00  0.00    +0.010 C 
ENDBRANCH  16  19
ENDBRANCH  14  15
ENDBRANCH   5  14
TORSDOF 5
