REMARK  Name = ZINCpk00000KfKX5.0
REMARK                            x       y       z     vdW  Elec       q    Type
REMARK                         _______ _______ _______ _____ _____    ______ ____
ROOT
ATOM      1  O   LIG    1       -1.909   5.104   5.319  0.00  0.00    -0.560 OA
ATOM      2  C   LIG    1       -0.970   4.380   5.590  0.00  0.00    +0.710 C 
ATOM      3  N   LIG    1       -0.754   4.006   6.866  0.00  0.00    -0.530 N 
ATOM      4  H   LIG    1       -1.347   4.314   7.569  0.00  0.00    +0.450 HD
ATOM      5  N   LIG    1       -0.146   3.952   4.613  0.00  0.00    -0.740 N 
ATOM      6  H   LIG    1        0.602   3.374   4.829  0.00  0.00    +0.390 HD
ENDROOT
BRANCH   3   7
ATOM      7  N   LIG    1        0.327   3.171   7.178  0.00  0.00    -0.530 N 
ATOM      8  H   LIG    1        0.920   2.863   6.475  0.00  0.00    +0.420 HD
ATOM      9  C   LIG    1        0.543   2.797   8.454  0.00  0.00    +0.570 C 
ATOM     10  O   LIG    1       -0.200   3.183   9.335  0.00  0.00    -0.520 OA
BRANCH   9  11
ATOM     11  C   LIG    1        1.685   1.917   8.784  0.00  0.00    -0.180 A 
ATOM     12  C   LIG    1        1.923   1.526  10.106  0.00  0.00    +0.140 A 
ATOM     13  C   LIG    1        3.002   0.697  10.360  0.00  0.00    -0.020 A 
ATOM     14  C   LIG    1        3.809   0.294   9.311  0.00  0.00    +0.300 A 
ATOM     15  N   LIG    1        3.562   0.683   8.075  0.00  0.00    -0.480 NA
ATOM     16  C   LIG    1        2.545   1.466   7.782  0.00  0.00    +0.290 A 
ENDBRANCH   9  11
ENDBRANCH   3   7
BRANCH   5  17
ATOM     17  C   LIG    1       -0.381   4.359   3.225  0.00  0.00    +0.290 C 
BRANCH  17  18
ATOM     18  C   LIG    1        0.689   3.739   2.324  0.00  0.00    +0.020 C 
BRANCH  18  19
ATOM     19  C   LIG    1        0.444   4.164   0.875  0.00  0.00    +0.190 C 
BRANCH  19  20
ATOM     20  N   LIG    1        1.541   3.676   0.029  0.00  0.00    -0.470 N 
ATOM     21  C   LIG    1        1.713   2.214   0.176  0.00  0.00    +0.200 C 
ATOM     22  C   LIG    1        2.232   1.793  -1.218  0.00  0.00    +0.080 C 
ATOM     23  C   LIG    1        1.689   2.881  -2.123  0.00  0.00    -0.140 A 
ATOM     24  C   LIG    1        1.545   2.944  -3.493  0.00  0.00    +0.040 A 
ATOM     25  C   LIG    1        0.997   4.069  -4.081  0.00  0.00    -0.010 A 
ATOM     26  C   LIG    1        0.593   5.131  -3.293  0.00  0.00    +0.040 A 
ATOM     27  C   LIG    1        0.736   5.074  -1.923  0.00  0.00    -0.020 A 
ATOM     28  C   LIG    1        1.290   3.945  -1.323  0.00  0.00    +0.090 A 
ENDBRANCH  19  20
ENDBRANCH  18  19
ENDBRANCH  17  18
ENDBRANCH   5  17
TORSDOF 6
