REMARK  Name = ZINCkj00000xLzGk.0
REMARK                            x       y       z     vdW  Elec       q    Type
REMARK                         _______ _______ _______ _____ _____    ______ ____
ROOT
ATOM      1  C   LIG    1       -3.172   1.505  -0.623  0.00  0.00    +0.520 C 
ATOM      2  N   LIG    1       -4.305   2.017  -0.104  0.00  0.00    -0.720 N 
ATOM      3  H   LIG    1       -4.335   2.946   0.173  0.00  0.00    +0.400 HD
ATOM      4  O   LIG    1       -3.160   0.372  -1.054  0.00  0.00    -0.520 OA
ENDROOT
BRANCH   1   5
ATOM      5  C   LIG    1       -1.919   2.341  -0.668  0.00  0.00    -0.100 C 
ATOM      6  C   LIG    1       -0.761   1.559  -1.341  0.00  0.00    +0.120 C 
ATOM      7  C   LIG    1       -1.058   1.794  -2.841  0.00  0.00    +0.270 C 
ATOM      8  N   LIG    1       -1.552   3.186  -2.916  0.00  0.00    -0.510 N 
ATOM      9  H   LIG    1       -0.791   3.805  -3.150  0.00  0.00    +0.430 HD
ATOM     10  H   LIG    1       -2.273   3.252  -3.619  0.00  0.00    +0.430 HD
ATOM     11  C   LIG    1       -2.106   3.556  -1.601  0.00  0.00    +0.280 C 
BRANCH   5  13
ATOM     12  C   LIG    1       -1.226   1.571   1.606  0.00  0.00    +0.030 C 
ATOM     13  C   LIG    1       -1.523   2.796   0.739  0.00  0.00    +0.060 C 
ENDBRANCH   5  13
ENDBRANCH   1   5
BRANCH   2  14
ATOM     14  C   LIG    1       -5.491   1.170   0.043  0.00  0.00    +0.340 C 
BRANCH  14  15
ATOM     15  C   LIG    1       -6.614   1.977   0.643  0.00  0.00    -0.100 A 
ATOM     16  C   LIG    1       -7.489   2.662  -0.179  0.00  0.00    +0.020 A 
ATOM     17  C   LIG    1       -8.519   3.402   0.371  0.00  0.00    +0.080 A 
ATOM     18  C   LIG    1       -8.675   3.458   1.742  0.00  0.00    -0.110 A 
ATOM     19  C   LIG    1       -7.799   2.772   2.567  0.00  0.00    +0.100 A 
ATOM     20  F   LIG    1       -7.951   2.826   3.908  0.00  0.00    -0.130 F 
ATOM     21  C   LIG    1       -6.771   2.027   2.015  0.00  0.00    +0.010 A 
BRANCH  18  22
ATOM     22  C   LIG    1       -9.799   4.264   2.341  0.00  0.00    +0.250 C 
BRANCH  22  23
ATOM     23  O   LIG    1      -10.559   4.872   1.294  0.00  0.00    -0.570 OA
ATOM     24  H   LIG    1      -11.301   5.408   1.607  0.00  0.00    +0.390 HD
ENDBRANCH  22  23
ENDBRANCH  18  22
ENDBRANCH  14  15
ENDBRANCH   2  14
TORSDOF 6
