REMARK  Name = ZINC650000002J93.0
REMARK                            x       y       z     vdW  Elec       q    Type
REMARK                         _______ _______ _______ _____ _____    ______ ____
ROOT
ATOM      1  C   LIG    1        1.145   3.085   0.008  0.00  0.00    +0.160 C 
ENDROOT
BRANCH   1   2
ATOM      2  N   LIG    1        0.529   3.512   1.271  0.00  0.00    -0.450 NA
ATOM      3  C   LIG    1       -0.707   4.267   1.026  0.00  0.00    +0.160 C 
ATOM      4  C   LIG    1        0.592   4.972   1.421  0.00  0.00    +0.140 C 
ENDBRANCH   1   2
BRANCH   1   5
ATOM      5  C   LIG    1        1.286   1.562  -0.002  0.00  0.00    +0.190 C 
BRANCH   5   6
ATOM      6  O   LIG    1       -0.011   0.963   0.007  0.00  0.00    -0.570 OA
ATOM      7  H   LIG    1        0.002  -0.004   0.002  0.00  0.00    +0.380 HD
ENDBRANCH   5   6
ENDBRANCH   1   5
TORSDOF 3
