REMARK  Name = ZINCb70000002JAQ.0
REMARK                            x       y       z     vdW  Elec       q    Type
REMARK                         _______ _______ _______ _____ _____    ______ ____
ROOT
ATOM      1  C   LIG    1       -0.733   1.581   1.266  0.00  0.00    +0.190 C 
ATOM      2  C   LIG    1       -2.196   1.126   1.192  0.00  0.00    +0.280 C 
ATOM      3  N   LIG    1       -2.789   1.607  -0.054  0.00  0.00    -0.650 NA
ATOM      4  C   LIG    1       -2.077   1.802  -1.140  0.00  0.00    +0.490 C 
ATOM      5  C   LIG    1       -2.735   2.268  -2.308  0.00  0.00    -0.030 C 
ATOM      6  C   LIG    1       -2.018   2.483  -3.440  0.00  0.00    +0.200 C 
ATOM      7  C   LIG    1       -0.633   2.242  -3.441  0.00  0.00    +0.000 C 
ATOM      8  C   LIG    1       -0.020   1.797  -2.326  0.00  0.00    +0.340 C 
ATOM      9  N   LIG    1       -0.725   1.573  -1.178  0.00  0.00    -0.440 N 
ATOM     10  H   LIG    1       -3.742   1.787  -0.081  0.00  0.00    +0.440 HD
ATOM     11  C   LIG    1       -0.013   1.086   0.008  0.00  0.00    +0.350 C 
ENDROOT
BRANCH   1  12
ATOM     12  O   LIG    1       -0.675   3.008   1.324  0.00  0.00    -0.560 OA
ATOM     13  H   LIG    1       -1.113   3.389   2.097  0.00  0.00    +0.400 HD
ENDBRANCH   1  12
TORSDOF 1
