REMARK  Name = ZINCc70000002mkG.0
REMARK                            x       y       z     vdW  Elec       q    Type
REMARK                         _______ _______ _______ _____ _____    ______ ____
ROOT
ATOM      1  C   UNK    1        1.506   1.045   0.089  0.00  0.00    +0.240 C 
ENDROOT
BRANCH   1   2
ATOM      2  O   UNK    1        0.187   0.497   0.142  0.00  0.00    -0.520 OA
ATOM      3  H   UNK    1        0.161  -0.443   0.367  0.00  0.00    +0.360 HD
ENDBRANCH   1   2
BRANCH   1   4
ATOM      4  C   UNK    1        2.178   0.889   1.455  0.00  0.00    -0.020 C 
BRANCH   4   6
ATOM      5  C   UNK    1        0.029   1.227   2.684  0.00  0.00    +0.040 C 
ATOM      6  C   UNK    1        1.451   1.756   2.484  0.00  0.00    -0.060 C 
ATOM      7  C   UNK    1        1.391   3.201   1.982  0.00  0.00    +0.030 C 
ATOM      8  C   UNK    1        2.204   1.710   3.814  0.00  0.00    +0.020 C 
ENDBRANCH   4   6
ENDBRANCH   1   4
BRANCH   1   9
ATOM      9  C   UNK    1        2.324   0.304  -0.970  0.00  0.00    +0.050 C 
BRANCH   9  10
ATOM     10  N   UNK    1        2.400  -1.121  -0.622  0.00  0.00    -0.620 N 
ATOM     11  H   UNK    1        1.468  -1.508  -0.585  0.00  0.00    +0.430 HD
ATOM     12  H   UNK    1        2.843  -1.224   0.279  0.00  0.00    +0.410 HD
ATOM     13  H   UNK    1        2.939  -1.610  -1.321  0.00  0.00    +0.430 HD
ENDBRANCH   9  10
BRANCH   9  14
ATOM     14  C   UNK    1        1.661   0.458  -2.315  0.00  0.00    +0.500 C 
ATOM     15  O   UNK    1        0.830  -0.355  -2.682  0.00  0.00    -0.660 OA
ATOM     16  O   UNK    1        1.957   1.396  -3.036  0.00  0.00    -0.640 OA
ENDBRANCH   9  14
ENDBRANCH   1   9
TORSDOF 6
