REMARK  Name = ZINCfA000000bkL0.0
REMARK                            x       y       z     vdW  Elec       q    Type
REMARK                         _______ _______ _______ _____ _____    ______ ____
ROOT
ATOM      1  C   LIG    1       -0.960   2.074  -1.230  0.00  0.00    +0.110 C 
ATOM      2  C   LIG    1       -0.138   1.502  -0.073  0.00  0.00    +0.250 C 
ENDROOT
BRANCH   2   3
ATOM      3  C   LIG    1       -0.159  -0.003  -0.138  0.00  0.00    +0.080 A 
ATOM      4  C   LIG    1        0.747  -0.665  -0.945  0.00  0.00    +0.030 A 
ATOM      5  C   LIG    1        0.724  -2.050  -0.993  0.00  0.00    +0.130 A 
ATOM      6  C   LIG    1       -0.222  -2.721  -0.232  0.00  0.00    -0.130 A 
ATOM      7  C   LIG    1       -1.100  -1.991   0.548  0.00  0.00    +0.330 A 
ATOM      8 BR   LIG    1       -0.310  -4.610  -0.261  0.00  0.00    +0.010 Br
ATOM      9  N   LIG    1       -1.045  -0.674   0.573  0.00  0.00    -0.490 NA
ENDBRANCH   2   3
BRANCH   2  10
ATOM     10  N   LIG    1       -0.714   1.946   1.203  0.00  0.00    -0.500 N 
ATOM     11  H   LIG    1       -0.228   1.497   1.965  0.00  0.00    +0.430 HD
ATOM     12  H   LIG    1       -1.692   1.698   1.235  0.00  0.00    +0.440 HD
BRANCH  10  13
ATOM     13  C   LIG    1       -0.573   3.403   1.324  0.00  0.00    +0.170 C 
ATOM     14  C   LIG    1        0.914   3.757   1.348  0.00  0.00    +0.070 C 
ATOM     15  C   LIG    1        1.110   5.057   2.172  0.00  0.00    +0.160 C 
ATOM     16  S   LIG    1       -0.042   4.757   3.575  0.00  0.00    -0.220 S 
ATOM     17  C   LIG    1       -1.310   3.871   2.589  0.00  0.00    +0.130 C 
ENDBRANCH  10  13
ENDBRANCH   2  10
TORSDOF 3
