REMARK  Name = ZINCqH00000098Mr.0
REMARK                            x       y       z     vdW  Elec       q    Type
REMARK                         _______ _______ _______ _____ _____    ______ ____
ROOT
ATOM      1  N   LIG    1        3.425   1.724  -0.909  0.00  0.00    -0.720 N 
ATOM      2  H   LIG    1        3.318   2.672  -1.088  0.00  0.00    +0.400 HD
ATOM      3  C   LIG    1        4.435   1.040  -1.482  0.00  0.00    +0.520 C 
ATOM      4  O   LIG    1        4.569  -0.144  -1.259  0.00  0.00    -0.510 OA
ENDROOT
BRANCH   1   6
ATOM      5  C   LIG    1        3.070   0.998   1.399  0.00  0.00    +0.040 C 
ATOM      6  C   LIG    1        2.489   1.037  -0.016  0.00  0.00    +0.290 C 
BRANCH   6   7
ATOM      7  C   LIG    1        1.176   1.776   0.000  0.00  0.00    -0.100 A 
ATOM      8  C   LIG    1        1.158   3.158   0.008  0.00  0.00    +0.000 A 
ATOM      9  C   LIG    1       -0.048   3.828   0.025  0.00  0.00    +0.010 A 
ATOM     10  C   LIG    1       -1.245   3.125   0.037  0.00  0.00    -0.070 A 
ATOM     11  C   LIG    1       -2.525   3.919   0.072  0.00  0.00    +0.070 C 
ATOM     12  C   LIG    1       -3.706   3.051  -0.372  0.00  0.00    +0.020 C 
ATOM     13  C   LIG    1       -3.683   1.759   0.454  0.00  0.00    +0.020 C 
ATOM     14  C   LIG    1       -2.487   0.921   0.005  0.00  0.00    +0.080 C 
ATOM     15  C   LIG    1       -1.228   1.748   0.017  0.00  0.00    -0.070 A 
ATOM     16  C   LIG    1       -0.013   1.076   0.008  0.00  0.00    +0.010 A 
ENDBRANCH   6   7
ENDBRANCH   1   6
BRANCH   3  17
ATOM     17  C   LIG    1        5.398   1.747  -2.401  0.00  0.00    +0.230 C 
BRANCH  17  18
ATOM     18  O   LIG    1        6.372   0.817  -2.879  0.00  0.00    -0.270 OA
BRANCH  18  19
ATOM     19  C   LIG    1        7.321   1.296  -3.725  0.00  0.00    +0.180 A 
ATOM     20  C   LIG    1        7.312   2.634  -4.092  0.00  0.00    -0.060 A 
ATOM     21  C   LIG    1        8.281   3.120  -4.949  0.00  0.00    +0.150 A 
ATOM     22  C   LIG    1        9.253   2.272  -5.448  0.00  0.00    -0.080 A 
ATOM     23  C   LIG    1        9.260   0.937  -5.087  0.00  0.00    +0.150 A 
ATOM     24  C   LIG    1        8.297   0.447  -4.227  0.00  0.00    +0.010 A 
BRANCH  22  25
ATOM     25  N   LIG    1       10.286   2.794  -6.369  0.00  0.00    +0.030 N 
ATOM     26  O   LIG    1       10.281   3.970  -6.688  0.00  0.00    -0.160 OA
ATOM     27  O   LIG    1       11.143   2.048  -6.810  0.00  0.00    -0.160 OA
ENDBRANCH  22  25
ENDBRANCH  18  19
ENDBRANCH  17  18
ENDBRANCH   3  17
TORSDOF 6
