REMARK  Name = ZINCvU0000000Ck1.0
REMARK                            x       y       z     vdW  Elec       q    Type
REMARK                         _______ _______ _______ _____ _____    ______ ____
ROOT
ATOM      1  N   LIG    1       -2.461   3.823   0.044  0.00  0.00    -0.430 N 
ATOM      2  C   LIG    1       -3.402   3.804   1.061  0.00  0.00    +0.060 A 
ATOM      3  C   LIG    1       -3.467   3.184   2.299  0.00  0.00    +0.010 A 
ATOM      4  C   LIG    1       -4.571   3.374   3.106  0.00  0.00    +0.030 A 
ATOM      5  C   LIG    1       -5.613   4.188   2.689  0.00  0.00    +0.010 A 
ATOM      6  C   LIG    1       -5.564   4.816   1.465  0.00  0.00    +0.060 A 
ATOM      7  C   LIG    1       -4.454   4.633   0.636  0.00  0.00    +0.060 A 
ATOM      8  N   LIG    1       -4.121   5.104  -0.595  0.00  0.00    -0.490 NA
ATOM      9  C   LIG    1       -2.951   4.631  -0.946  0.00  0.00    +0.260 A 
ENDROOT
BRANCH   1  13
ATOM     10  C   LIG    1        1.179   1.786   0.000  0.00  0.00    +0.140 A 
ATOM     11  C   LIG    1       -0.013   1.076   0.008  0.00  0.00    +0.000 A 
ATOM     12  C   LIG    1       -1.218   1.750   0.017  0.00  0.00    +0.080 A 
ATOM     13  C   LIG    1       -1.236   3.138   0.029  0.00  0.00    +0.070 A 
ATOM     14  C   LIG    1       -0.043   3.848   0.022  0.00  0.00    +0.070 A 
ATOM     15  C   LIG    1        1.161   3.173   0.008  0.00  0.00    -0.050 A 
BRANCH  10  17
ATOM     16  C   LIG    1        3.554   1.916  -0.021  0.00  0.00    +0.240 C 
ATOM     17  O   LIG    1        2.366   1.121  -0.014  0.00  0.00    -0.310 OA
ENDBRANCH  10  17
ENDBRANCH   1  13
BRANCH   9  18
ATOM     18  S   LIG    1       -2.132   4.981  -2.466  0.00  0.00    +0.040 S 
BRANCH  18  19
ATOM     19  C   LIG    1       -3.349   6.080  -3.233  0.00  0.00    +0.190 C 
BRANCH  19  20
ATOM     20  C   LIG    1       -2.847   6.519  -4.585  0.00  0.00    +0.220 A 
ATOM     21  C   LIG    1       -3.391   5.976  -5.732  0.00  0.00    -0.130 A 
ATOM     22  C   LIG    1       -2.909   6.401  -6.976  0.00  0.00    +0.510 A 
ATOM     23  N   LIG    1       -1.928   7.327  -7.015  0.00  0.00    -0.430 N 
ATOM     24  C   LIG    1       -1.448   7.750  -8.218  0.00  0.00    +0.330 A 
ATOM     25  C   LIG    1       -0.464   8.676  -8.283  0.00  0.00    -0.150 A 
ATOM     26  C   LIG    1        0.074   9.216  -7.105  0.00  0.00    +0.140 A 
ATOM     27  C   LIG    1       -0.400   8.799  -5.898  0.00  0.00    +0.060 A 
ATOM     28 BR   LIG    1        0.186   9.246  -9.965  0.00  0.00    +0.010 Br
ATOM     29  C   LIG    1       -1.423   7.834  -5.851  0.00  0.00    +0.400 A 
ATOM     30  O   LIG    1       -3.369   5.940  -8.009  0.00  0.00    -0.520 OA
ATOM     31  N   LIG    1       -1.890   7.429  -4.671  0.00  0.00    -0.530 NA
ENDBRANCH  19  20
ENDBRANCH  18  19
ENDBRANCH   9  18
TORSDOF 5
