REMARK  Name = ZINCnE000004TfIP.0
REMARK                            x       y       z     vdW  Elec       q    Type
REMARK                         _______ _______ _______ _____ _____    ______ ____
ROOT
ATOM      1  C   LIG    1       -1.200   1.900  -0.111  0.00  0.00    +0.130 C 
ATOM      2  C   LIG    1       -1.409   2.532   1.267  0.00  0.00    +0.050 C 
ENDROOT
BRANCH   1   3
ATOM      3  C   LIG    1       -2.371   1.008  -0.436  0.00  0.00    -0.010 A 
ATOM      4  C   LIG    1       -2.177  -0.146  -1.172  0.00  0.00    +0.000 A 
ATOM      5  C   LIG    1       -3.250  -0.966  -1.467  0.00  0.00    +0.060 A 
ATOM      6  C   LIG    1       -4.519  -0.627  -1.035  0.00  0.00    -0.200 A 
ATOM      7  C   LIG    1       -4.713   0.530  -0.303  0.00  0.00    +0.060 A 
ATOM      8  C   LIG    1       -3.640   1.348  -0.004  0.00  0.00    +0.040 A 
BRANCH   6   9
ATOM      9  C   LIG    1       -5.689  -1.518  -1.361  0.00  0.00    +0.510 C 
ATOM     10  F   LIG    1       -6.649  -1.417  -0.347  0.00  0.00    -0.180 F 
ATOM     11  F   LIG    1       -5.253  -2.844  -1.458  0.00  0.00    -0.180 F 
ATOM     12  F   LIG    1       -6.253  -1.122  -2.578  0.00  0.00    -0.180 F 
ENDBRANCH   6   9
ENDBRANCH   1   3
BRANCH   1  14
ATOM     13  C   LIG    1        1.208   1.691   0.193  0.00  0.00    +0.570 C 
ATOM     14  N   LIG    1        0.031   1.106  -0.103  0.00  0.00    -0.700 N 
ATOM     15  H   LIG    1       -0.001   0.160  -0.315  0.00  0.00    +0.390 HD
ATOM     16  O   LIG    1        1.248   2.877   0.459  0.00  0.00    -0.520 OA
BRANCH  13  19
ATOM     17  C   LIG    1        1.812   0.076   2.425  0.00  0.00    +0.090 C 
ATOM     18  C   LIG    1        2.724   0.102   1.226  0.00  0.00    -0.110 C 
ATOM     19  C   LIG    1        2.445   0.895   0.195  0.00  0.00    -0.150 C 
ATOM     20  C   LIG    1        3.396   0.978  -0.971  0.00  0.00    +0.110 C 
ATOM     21  C   LIG    1        3.953  -0.770   1.195  0.00  0.00    +0.090 C 
ENDBRANCH  13  19
ENDBRANCH   1  14
BRANCH   1  22
ATOM     22  C   LIG    1       -1.091   2.985  -1.150  0.00  0.00    +0.510 C 
ATOM     23  O   LIG    1       -2.015   3.763  -1.319  0.00  0.00    -0.690 OA
ATOM     24  O   LIG    1       -0.079   3.087  -1.822  0.00  0.00    -0.660 OA
ENDBRANCH   1  22
TORSDOF 5
