REMARK  Name = ZINCvU0000000AwM.0
REMARK                            x       y       z     vdW  Elec       q    Type
REMARK                         _______ _______ _______ _____ _____    ______ ____
ROOT
ATOM      1  N   LIG    1       -1.760  -2.591  -1.087  0.00  0.00    -0.710 N 
ATOM      2  H   LIG    1       -2.058  -2.502  -0.168  0.00  0.00    +0.410 HD
ATOM      3  C   LIG    1       -2.621  -3.002  -2.038  0.00  0.00    +0.540 C 
ATOM      4  O   LIG    1       -2.248  -3.113  -3.187  0.00  0.00    -0.520 OA
ENDROOT
BRANCH   1   5
ATOM      5  C   LIG    1       -0.373  -2.279  -1.440  0.00  0.00    +0.300 C 
BRANCH   5   6
ATOM      6  C   LIG    1       -0.296  -0.873  -1.977  0.00  0.00    +0.450 C 
ATOM      7  O   LIG    1       -1.297  -0.201  -2.057  0.00  0.00    -0.490 OA
BRANCH   6   8
ATOM      8  O   LIG    1        0.885  -0.367  -2.367  0.00  0.00    -0.350 OA
BRANCH   8  10
ATOM      9  C   LIG    1        2.308   1.392  -3.266  0.00  0.00    +0.070 C 
ATOM     10  C   LIG    1        0.884   0.993  -2.874  0.00  0.00    +0.200 C 
ENDBRANCH   8  10
ENDBRANCH   6   8
ENDBRANCH   5   6
BRANCH   5  11
ATOM     11  C   LIG    1        0.509  -2.398  -0.195  0.00  0.00    +0.140 C 
BRANCH  11  12
ATOM     12  C   LIG    1        0.488  -3.821   0.301  0.00  0.00    -0.080 A 
ATOM     13  C   LIG    1        1.222  -4.787  -0.256  0.00  0.00    -0.140 A 
ATOM     14  S   LIG    1        0.938  -6.304   0.586  0.00  0.00    +0.210 S 
ATOM     15  C   LIG    1       -0.194  -5.520   1.680  0.00  0.00    -0.140 A 
ATOM     16 CL   LIG    1       -1.052  -6.309   2.967  0.00  0.00    +0.000 Cl
ATOM     17 CL   LIG    1        2.292  -4.577  -1.607  0.00  0.00    +0.010 Cl
ATOM     18  C   LIG    1       -0.289  -4.225   1.373  0.00  0.00    +0.050 A 
ENDBRANCH  11  12
ENDBRANCH   5  11
ENDBRANCH   1   5
BRANCH   3  19
ATOM     19  C   LIG    1       -4.048  -3.323  -1.675  0.00  0.00    +0.090 C 
BRANCH  19  20
ATOM     20  C   LIG    1       -4.796  -3.755  -2.910  0.00  0.00    -0.070 A 
ATOM     21  C   LIG    1       -4.307  -4.788  -3.687  0.00  0.00    +0.040 A 
ATOM     22  C   LIG    1       -4.993  -5.185  -4.820  0.00  0.00    -0.010 A 
ATOM     23  C   LIG    1       -6.168  -4.548  -5.175  0.00  0.00    +0.010 A 
ATOM     24  C   LIG    1       -6.657  -3.516  -4.397  0.00  0.00    +0.000 A 
ATOM     25  C   LIG    1       -5.974  -3.122  -3.262  0.00  0.00    -0.070 A 
ATOM     26  C   LIG    1       -6.510  -2.000  -2.411  0.00  0.00    +0.090 C 
ENDBRANCH  19  20
BRANCH  19  27
ATOM     27  C   LIG    1       -4.069  -4.436  -0.659  0.00  0.00    -0.080 A 
ATOM     28  C   LIG    1       -3.393  -5.615  -0.912  0.00  0.00    +0.020 A 
ATOM     29  C   LIG    1       -3.409  -6.635   0.021  0.00  0.00    +0.010 A 
ATOM     30  C   LIG    1       -4.109  -6.479   1.203  0.00  0.00    +0.010 A 
ATOM     31  C   LIG    1       -4.789  -5.302   1.454  0.00  0.00    +0.010 A 
ATOM     32  C   LIG    1       -4.770  -4.281   0.522  0.00  0.00    +0.010 A 
ENDBRANCH  19  27
ENDBRANCH   3  19
TORSDOF 9
