REMARK  Name = ZINCrH00000No4Ot.0
REMARK                            x       y       z     vdW  Elec       q    Type
REMARK                         _______ _______ _______ _____ _____    ______ ____
ROOT
ATOM      1  C   LIG    1       -4.321   1.758  -2.129  0.00  0.00    +0.440 C 
ATOM      2  O   LIG    1       -4.034   0.934  -2.965  0.00  0.00    -0.490 OA
ENDROOT
BRANCH   1   3
ATOM      3  C   LIG    1       -5.657   2.453  -2.184  0.00  0.00    +0.170 C 
ATOM      4  C   LIG    1       -6.650   1.722  -1.278  0.00  0.00    +0.100 C 
BRANCH   3   5
ATOM      5  O   LIG    1       -5.510   3.803  -1.738  0.00  0.00    -0.520 OA
ATOM      6  H   LIG    1       -4.893   4.327  -2.268  0.00  0.00    +0.390 HD
ENDBRANCH   3   5
BRANCH   3   7
ATOM      7  C   LIG    1       -6.178   2.445  -3.622  0.00  0.00    +0.080 C 
BRANCH   7   8
ATOM      8  S   LIG    1       -7.849   3.150  -3.664  0.00  0.00    -0.050 S 
BRANCH   8   9
ATOM      9  C   LIG    1       -8.275   3.058  -5.372  0.00  0.00    -0.070 A 
ATOM     10  C   LIG    1       -7.371   2.534  -6.288  0.00  0.00    -0.020 A 
ATOM     11  C   LIG    1       -7.708   2.459  -7.625  0.00  0.00    +0.070 A 
ATOM     12  C   LIG    1       -8.941   2.914  -8.055  0.00  0.00    -0.020 A 
ATOM     13  C   LIG    1       -9.843   3.443  -7.146  0.00  0.00    +0.120 A 
ATOM     14  F   LIG    1      -11.047   3.887  -7.571  0.00  0.00    -0.130 F 
ATOM     15  C   LIG    1       -9.513   3.516  -5.806  0.00  0.00    +0.000 A 
ENDBRANCH   8   9
ENDBRANCH   7   8
ENDBRANCH   3   7
ENDBRANCH   1   3
BRANCH   1  16
ATOM     16  O   LIG    1       -3.450   2.054  -1.152  0.00  0.00    -0.340 OA
BRANCH  16  17
ATOM     17  C   LIG    1       -2.182   1.345  -1.162  0.00  0.00    +0.220 C 
BRANCH  17  18
ATOM     18  C   LIG    1       -1.328   1.812   0.018  0.00  0.00    +0.080 C 
BRANCH  18  20
ATOM     19  C   LIG    1        1.126   1.754   0.001  0.00  0.00    +0.020 C 
ATOM     20  C   LIG    1       -0.013   1.076   0.008  0.00  0.00    -0.020 C 
BRANCH  19  25
ATOM     21  C   LIG    1        4.808   1.011  -0.040  0.00  0.00    +0.080 A 
ATOM     22  C   LIG    1        4.752  -0.376  -0.046  0.00  0.00    +0.180 A 
ATOM     23  N   LIG    1        3.595  -1.009  -0.038  0.00  0.00    -0.450 NA
ATOM     24  C   LIG    1        2.448  -0.363  -0.023  0.00  0.00    +0.230 A 
ATOM     25  C   LIG    1        2.416   1.033  -0.015  0.00  0.00    -0.070 A 
ATOM     26  C   LIG    1        3.624   1.737  -0.029  0.00  0.00    +0.050 A 
BRANCH  21  28
ATOM     27  C   LIG    1        7.179   0.834  -0.064  0.00  0.00    +0.250 C 
ATOM     28  O   LIG    1        6.007   1.651  -0.048  0.00  0.00    -0.310 OA
ENDBRANCH  21  28
ENDBRANCH  19  25
ENDBRANCH  18  20
ENDBRANCH  17  18
ENDBRANCH  16  17
ENDBRANCH   1  16
TORSDOF 11
