REMARK  Name = ZINCrg000000rGZE.2
REMARK                            x       y       z     vdW  Elec       q    Type
REMARK                         _______ _______ _______ _____ _____    ______ ____
ROOT
ATOM      1  C   LIG    1       -0.027   0.015  -0.143  0.00  0.00    +0.680 A 
ATOM      2  N   LIG    1        1.033  -0.468   0.464  0.00  0.00    -0.560 NA
ATOM      3  C   LIG    1        2.208   0.173   0.424  0.00  0.00    +0.380 A 
ATOM      4  C   LIG    1        2.310   1.385  -0.280  0.00  0.00    -0.370 A 
ATOM      5  C   LIG    1        1.157   1.894  -0.929  0.00  0.00    +0.590 A 
ATOM      6  O   LIG    1        1.201   2.941  -1.550  0.00  0.00    -0.520 OA
ATOM      7  C   LIG    1        3.643   1.828  -0.153  0.00  0.00    +0.350 A 
ATOM      8  N   LIG    1        4.299   0.961   0.567  0.00  0.00    -0.270 NA
ATOM      9  N   LIG    1        3.442  -0.080   0.943  0.00  0.00    -0.310 N 
ATOM     10  N   LIG    1        0.009   1.186  -0.841  0.00  0.00    -0.660 N 
ATOM     11  H   LIG    1       -0.793   1.511  -1.280  0.00  0.00    +0.420 HD
ENDROOT
BRANCH   1  15
ATOM     12  N   LIG    1       -3.522  -1.974  -0.928  0.00  0.00    -0.530 NA
ATOM     13  C   LIG    1       -3.440  -0.512  -1.038  0.00  0.00    +0.160 C 
ATOM     14  C   LIG    1       -2.493   0.026   0.040  0.00  0.00    +0.290 C 
ATOM     15  N   LIG    1       -1.208  -0.679  -0.073  0.00  0.00    -0.600 N 
ATOM     16  C   LIG    1       -1.222  -2.150  -0.114  0.00  0.00    +0.260 C 
ATOM     17  C   LIG    1        0.174  -2.667  -0.465  0.00  0.00    +0.060 C 
ATOM     18  C   LIG    1       -2.218  -2.602  -1.180  0.00  0.00    +0.200 C 
BRANCH  12  19
ATOM     19  C   LIG    1       -4.549  -2.513  -1.830  0.00  0.00    +0.190 C 
BRANCH  19  21
ATOM     20  C   LIG    1       -5.250  -2.728  -4.218  0.00  0.00    +0.010 C 
ATOM     21  C   LIG    1       -4.126  -2.280  -3.281  0.00  0.00    +0.160 C 
BRANCH  21  22
ATOM     22  O   LIG    1       -2.945  -3.035  -3.560  0.00  0.00    -0.560 OA
ATOM     23  H   LIG    1       -3.051  -3.989  -3.443  0.00  0.00    +0.380 HD
ENDBRANCH  21  22
ENDBRANCH  19  21
ENDBRANCH  12  19
ENDBRANCH   1  15
BRANCH   9  24
ATOM     24  C   LIG    1        3.792  -1.192   1.720  0.00  0.00    +0.150 A 
ATOM     25  C   LIG    1        2.877  -1.734   2.613  0.00  0.00    +0.030 A 
ATOM     26  C   LIG    1        3.224  -2.833   3.373  0.00  0.00    +0.030 A 
ATOM     27  C   LIG    1        4.486  -3.388   3.254  0.00  0.00    +0.010 A 
ATOM     28  C   LIG    1        5.401  -2.847   2.370  0.00  0.00    +0.030 A 
ATOM     29  C   LIG    1        5.058  -1.751   1.603  0.00  0.00    +0.020 A 
ENDBRANCH   9  24
TORSDOF 5
