REMARK  Name = ZINCqH0000004aPJ.2
REMARK                            x       y       z     vdW  Elec       q    Type
REMARK                         _______ _______ _______ _____ _____    ______ ____
ROOT
ATOM      1  C   LIG    1        1.709  -4.038  -0.190  0.00  0.00    +0.510 C 
ATOM      2  N   LIG    1        2.304  -4.677  -1.216  0.00  0.00    -0.630 N 
ATOM      3  H   LIG    1        2.674  -4.168  -1.955  0.00  0.00    +0.420 HD
ATOM      4  O   LIG    1        1.246  -4.673   0.734  0.00  0.00    -0.490 OA
ENDROOT
BRANCH   2   5
ATOM      5  C   LIG    1        2.388  -6.062  -1.217  0.00  0.00    +0.050 A 
ATOM      6  C   LIG    1        2.967  -6.804  -2.204  0.00  0.00    -0.110 A 
ATOM      7  C   LIG    1        2.920  -8.236  -1.957  0.00  0.00    -0.040 A 
ATOM      8  C   LIG    1        2.308  -8.532  -0.806  0.00  0.00    -0.240 A 
ATOM      9  C   LIG    1        2.089  -9.932  -0.270  0.00  0.00    +0.120 C 
ATOM     10  C   LIG    1        3.387 -10.733  -0.355  0.00  0.00    +0.020 C 
ATOM     11  C   LIG    1        3.452 -11.445  -1.703  0.00  0.00    +0.000 C 
ATOM     12  C   LIG    1        2.779 -10.589  -2.774  0.00  0.00    +0.030 C 
ATOM     13  C   LIG    1        3.516  -9.261  -2.906  0.00  0.00    +0.090 C 
ATOM     14  S   LIG    1        1.787  -7.068   0.017  0.00  0.00    +0.320 S 
BRANCH   6  15
ATOM     15  C   LIG    1        3.565  -6.228  -3.371  0.00  0.00    +0.270 C 
ATOM     16  N   LIG    1        4.039  -5.771  -4.297  0.00  0.00    -0.420 NA
ENDBRANCH   6  15
ENDBRANCH   2   5
BRANCH   1  17
ATOM     17  C   LIG    1        1.618  -2.534  -0.189  0.00  0.00    +0.030 C 
BRANCH  17  18
ATOM     18  C   LIG    1        0.902  -2.066   1.080  0.00  0.00    +0.250 C 
BRANCH  18  25
ATOM     19  C   LIG    1        2.146   0.008   0.944  0.00  0.00    +0.090 C 
ATOM     20  C   LIG    1        2.014   1.532   1.010  0.00  0.00    +0.230 C 
ATOM     21  O   LIG    1        1.111   1.972  -0.009  0.00  0.00    -0.380 OA
ATOM     22  C   LIG    1       -0.196   1.399   0.093  0.00  0.00    +0.160 C 
ATOM     23  C   LIG    1       -0.086  -0.126   0.019  0.00  0.00    +0.160 C 
ATOM     24  C   LIG    1       -1.067   1.906  -1.058  0.00  0.00    +0.050 C 
ATOM     25  N   LIG    1        0.814  -0.600   1.080  0.00  0.00    -0.530 NA
BRANCH  19  27
ATOM     26  C   LIG    1        4.466   0.054   1.869  0.00  0.00    +0.010 C 
ATOM     27  C   LIG    1        3.047  -0.476   2.082  0.00  0.00    +0.030 C 
ENDBRANCH  19  27
ENDBRANCH  18  25
ENDBRANCH  17  18
ENDBRANCH   1  17
TORSDOF 6
