REMARK  Name = ZINCrH00000No50z.0
REMARK                            x       y       z     vdW  Elec       q    Type
REMARK                         _______ _______ _______ _____ _____    ______ ____
ROOT
ATOM      1  C   LIG    1        5.516   5.191  -0.026  0.00  0.00    +0.350 C 
ATOM      2  C   LIG    1        5.010   3.894   0.073  0.00  0.00    -0.160 C 
ATOM      3  N   LIG    1        3.724   3.501  -0.146  0.00  0.00    -0.450 NA
ATOM      4  C   LIG    1        3.638   2.212   0.047  0.00  0.00    +0.300 C 
ATOM      5  O   LIG    1        4.843   1.710   0.387  0.00  0.00    -0.290 OA
ATOM      6  C   LIG    1        5.733   2.723   0.416  0.00  0.00    +0.470 C 
ATOM      7  O   LIG    1        6.920   2.648   0.683  0.00  0.00    -0.430 OA
ENDROOT
BRANCH   4   8
ATOM      8  C   LIG    1        2.401   1.419  -0.092  0.00  0.00    -0.020 A 
ATOM      9  C   LIG    1        2.433   0.051   0.133  0.00  0.00    +0.080 A 
ATOM     10  C   LIG    1        1.253  -0.696  -0.002  0.00  0.00    -0.060 A 
ATOM     11  C   LIG    1        1.245  -2.086   0.217  0.00  0.00    +0.030 A 
ATOM     12  C   LIG    1        0.084  -2.782   0.077  0.00  0.00    +0.010 A 
ATOM     13  C   LIG    1       -1.099  -2.139  -0.281  0.00  0.00    +0.020 A 
ATOM     14  C   LIG    1       -1.129  -0.796  -0.502  0.00  0.00    +0.020 A 
ATOM     15  C   LIG    1        0.049  -0.042  -0.367  0.00  0.00    -0.040 A 
ATOM     16  C   LIG    1        0.050   1.347  -0.589  0.00  0.00    +0.030 A 
ATOM     17  C   LIG    1        1.200   2.056  -0.454  0.00  0.00    +0.070 A 
ENDBRANCH   4   8
BRANCH   1  19
ATOM     18  C   LIG    1        7.508   6.464   0.727  0.00  0.00    +0.410 A 
ATOM     19  C   LIG    1        6.890   5.412   0.066  0.00  0.00    -0.370 A 
ATOM     20  S   LIG    1        8.155   4.410  -0.642  0.00  0.00    +0.250 S 
ATOM     21  C   LIG    1        9.355   5.447  -0.008  0.00  0.00    +0.340 A 
ATOM     22  N   LIG    1        8.816   6.429   0.658  0.00  0.00    -0.600 NA
BRANCH  21  23
ATOM     23  N   LIG    1       10.708   5.270  -0.178  0.00  0.00    -0.560 N 
ATOM     24  C   LIG    1       11.206   4.128  -0.948  0.00  0.00    +0.320 C 
ATOM     25  C   LIG    1       11.651   6.223   0.412  0.00  0.00    +0.310 C 
ENDBRANCH  21  23
BRANCH  18  27
ATOM     26  C   LIG    1        7.596   8.454   2.018  0.00  0.00    +0.270 C 
ATOM     27  O   LIG    1        6.825   7.433   1.383  0.00  0.00    -0.280 OA
ENDBRANCH  18  27
ENDBRANCH   1  19
TORSDOF 4
