REMARK  Name = ZINCqH000000113x.0
REMARK                            x       y       z     vdW  Elec       q    Type
REMARK                         _______ _______ _______ _____ _____    ______ ____
ROOT
ATOM      1  N   LIG    1       -2.062   0.977   1.338  0.00  0.00    -0.740 N 
ATOM      2  H   LIG    1       -2.357   0.367   0.643  0.00  0.00    +0.410 HD
ENDROOT
BRANCH   1   7
ATOM      3  C   LIG    1       -5.008   1.009   3.534  0.00  0.00    -0.020 A 
ATOM      4  C   LIG    1       -4.587   1.878   4.524  0.00  0.00    -0.050 A 
ATOM      5  C   LIG    1       -3.328   2.447   4.458  0.00  0.00    +0.050 A 
ATOM      6  C   LIG    1       -2.486   2.147   3.406  0.00  0.00    -0.080 A 
ATOM      7  C   LIG    1       -2.909   1.279   2.407  0.00  0.00    +0.220 A 
ATOM      8  C   LIG    1       -4.174   0.708   2.476  0.00  0.00    -0.060 A 
BRANCH   3   9
ATOM      9  C   LIG    1       -6.380   0.391   3.610  0.00  0.00    -0.180 C 
BRANCH   9  10
ATOM     10  S   LIG    1       -6.288  -1.175   4.522  0.00  0.00    +1.250 S 
ATOM     11  O   LIG    1       -5.886  -0.920   5.861  0.00  0.00    -0.830 OA
BRANCH  10  13
ATOM     12  C   LIG    1       -8.469  -1.945   3.061  0.00  0.00    +0.070 C 
ATOM     13  C   LIG    1       -8.007  -1.757   4.507  0.00  0.00    -0.390 C 
ATOM     14  C   LIG    1       -8.900  -0.726   5.198  0.00  0.00    +0.040 C 
ATOM     15  C   LIG    1       -8.099  -3.092   5.250  0.00  0.00    +0.070 C 
ENDBRANCH  10  13
ENDBRANCH   9  10
ENDBRANCH   3   9
ENDBRANCH   1   7
BRANCH   1  16
ATOM     16  C   LIG    1       -0.729   1.579   1.267  0.00  0.00    +0.240 C 
BRANCH  16  17
ATOM     17  C   LIG    1       -0.013   1.086   0.008  0.00  0.00    +0.220 C 
BRANCH  17  18
ATOM     18  O   LIG    1       -0.704   1.559  -1.150  0.00  0.00    -0.540 OA
ATOM     19  H   LIG    1       -0.756   2.523  -1.210  0.00  0.00    +0.380 HD
ENDBRANCH  17  18
BRANCH  17  20
ATOM     20  C   LIG    1        1.423   1.615  -0.003  0.00  0.00    +0.180 C 
BRANCH  20  21
ATOM     21  O   LIG    1        2.126   1.061  -1.116  0.00  0.00    -0.300 OA
BRANCH  21  22
ATOM     22  C   LIG    1        3.425   1.433  -1.273  0.00  0.00    +0.100 A 
ATOM     23  C   LIG    1        4.009   2.312  -0.374  0.00  0.00    -0.040 A 
ATOM     24  C   LIG    1        5.329   2.688  -0.534  0.00  0.00    +0.040 A 
ATOM     25  C   LIG    1        6.068   2.189  -1.591  0.00  0.00    +0.010 A 
ATOM     26  C   LIG    1        5.489   1.312  -2.490  0.00  0.00    +0.020 A 
ATOM     27  C   LIG    1        4.171   0.928  -2.330  0.00  0.00    +0.070 A 
ATOM     28  F   LIG    1        3.607   0.066  -3.205  0.00  0.00    -0.130 F 
ENDBRANCH  21  22
ENDBRANCH  20  21
ENDBRANCH  17  20
ENDBRANCH  16  17
ENDBRANCH   1  16
TORSDOF 10
