REMARK  Name = ZINCrg000000tc1x.0
REMARK                            x       y       z     vdW  Elec       q    Type
REMARK                         _______ _______ _______ _____ _____    ______ ____
ROOT
ATOM      1  O   LIG    1       -4.747  -0.369   0.730  0.00  0.00    -0.520 OA
ATOM      2  C   LIG    1       -4.066   0.031   1.650  0.00  0.00    +0.500 C 
ATOM      3  N   LIG    1       -2.929   0.711   1.402  0.00  0.00    -0.730 N 
ATOM      4  H   LIG    1       -2.385   1.031   2.138  0.00  0.00    +0.400 HD
ENDROOT
BRANCH   3   5
ATOM      5  C   LIG    1       -2.517   0.969   0.020  0.00  0.00    +0.340 C 
BRANCH   5   6
ATOM      6  C   LIG    1       -1.223   1.741   0.017  0.00  0.00    -0.180 A 
ATOM      7  C   LIG    1       -1.235   3.129   0.030  0.00  0.00    +0.130 A 
ATOM      8  C   LIG    1       -0.024   3.800   0.022  0.00  0.00    -0.030 A 
ATOM      9  C   LIG    1        1.155   3.065   0.007  0.00  0.00    +0.360 A 
ATOM     10  N   LIG    1        1.125   1.742   0.001  0.00  0.00    -0.500 NA
ATOM     11  C   LIG    1       -0.013   1.076   0.008  0.00  0.00    +0.330 A 
BRANCH   9  12
ATOM     12  N   LIG    1        2.385   3.730  -0.002  0.00  0.00    -0.420 N 
ATOM     13  C   LIG    1        3.624   3.152  -0.107  0.00  0.00    +0.150 A 
ATOM     14  C   LIG    1        4.525   4.152  -0.076  0.00  0.00    +0.150 A 
ATOM     15  N   LIG    1        3.861   5.310   0.053  0.00  0.00    -0.470 NA
ATOM     16  C   LIG    1        2.579   5.072   0.099  0.00  0.00    +0.400 A 
ENDBRANCH   9  12
ENDBRANCH   5   6
ENDBRANCH   3   5
BRANCH   2  17
ATOM     17  C   LIG    1       -4.490  -0.234   3.072  0.00  0.00    +0.330 C 
BRANCH  17  18
ATOM     18  N   LIG    1       -5.748  -0.985   3.074  0.00  0.00    -0.580 N 
ATOM     19  C   LIG    1       -6.972  -0.392   3.089  0.00  0.00    +0.550 C 
ATOM     20  C   LIG    1       -7.954  -1.475   3.399  0.00  0.00    +0.000 C 
ATOM     21  C   LIG    1       -9.332  -1.433   2.776  0.00  0.00    +0.060 C 
ATOM     22  C   LIG    1      -10.065  -2.698   3.266  0.00  0.00    +0.020 C 
ATOM     23  C   LIG    1       -9.310  -3.971   2.897  0.00  0.00    +0.020 C 
ATOM     24  C   LIG    1       -7.843  -3.931   3.366  0.00  0.00    +0.050 C 
ATOM     25  C   LIG    1       -7.226  -2.694   2.757  0.00  0.00    +0.000 C 
ATOM     26  O   LIG    1       -7.218   0.779   2.890  0.00  0.00    -0.460 OA
ATOM     27  C   LIG    1       -5.806  -2.345   3.068  0.00  0.00    +0.550 C 
ATOM     28  O   LIG    1       -4.893  -3.115   3.272  0.00  0.00    -0.470 OA
ENDBRANCH  17  18
ENDBRANCH   2  17
TORSDOF 5
