REMARK  Name = ZINCrD00000F5Lls.0
REMARK                            x       y       z     vdW  Elec       q    Type
REMARK                         _______ _______ _______ _____ _____    ______ ____
ROOT
ATOM      1  C   LIG    1        1.335  -4.965  -0.038  0.00  0.00    -0.090 C 
ATOM      2  C   LIG    1        1.353  -6.316  -0.046  0.00  0.00    +0.120 C 
ENDROOT
BRANCH   2   3
ATOM      3  C   LIG    1        2.636  -7.034  -0.062  0.00  0.00    -0.050 A 
ATOM      4  C   LIG    1        2.657  -8.433  -0.070  0.00  0.00    +0.070 A 
ATOM      5  C   LIG    1        3.861  -9.102  -0.085  0.00  0.00    +0.060 A 
ATOM      6  C   LIG    1        5.055  -8.390  -0.092  0.00  0.00    +0.130 A 
ATOM      7  C   LIG    1        5.040  -6.997  -0.084  0.00  0.00    +0.090 A 
ATOM      8  F   LIG    1        6.203  -6.310  -0.091  0.00  0.00    -0.130 F 
ATOM      9  C   LIG    1        3.840  -6.319  -0.075  0.00  0.00    +0.040 A 
BRANCH   6  10
ATOM     10  N   LIG    1        6.275  -9.075  -0.107  0.00  0.00    -0.340 N 
ATOM     11  C   LIG    1        7.508  -8.529  -0.121  0.00  0.00    +0.490 A 
ATOM     12  N   LIG    1        8.381  -9.503  -0.128  0.00  0.00    -0.530 NA
ATOM     13  C   LIG    1        7.750 -10.677  -0.129  0.00  0.00    +0.440 A 
ATOM     14  N   LIG    1        6.460 -10.467  -0.117  0.00  0.00    -0.310 NA
ENDBRANCH   6  10
ENDBRANCH   2   3
BRANCH   1  15
ATOM     15  C   LIG    1        0.060  -4.251  -0.022  0.00  0.00    +0.430 C 
ATOM     16  O   LIG    1       -0.987  -4.875  -0.016  0.00  0.00    -0.460 OA
BRANCH  15  20
ATOM     17  C   LIG    1        0.002  -0.004   0.002  0.00  0.00    +0.170 A 
ATOM     18  C   LIG    1        1.216  -0.681  -0.019  0.00  0.00    -0.090 A 
ATOM     19  C   LIG    1        1.239  -2.058  -0.021  0.00  0.00    +0.100 A 
ATOM     20  C   LIG    1        0.040  -2.775  -0.013  0.00  0.00    -0.200 A 
ATOM     21  C   LIG    1       -1.179  -2.090   0.002  0.00  0.00    +0.120 A 
ATOM     22  C   LIG    1       -1.193  -0.714   0.010  0.00  0.00    -0.020 A 
BRANCH  17  23
ATOM     23  O   LIG    1       -0.016   1.353   0.009  0.00  0.00    -0.300 OA
BRANCH  23  24
ATOM     24  C   LIG    1        1.248   2.019   0.001  0.00  0.00    +0.220 C 
BRANCH  24  25
ATOM     25  C   LIG    1        1.027   3.533   0.011  0.00  0.00    +0.190 C 
BRANCH  25  27
ATOM     26  C   LIG    1        0.154   5.317   1.353  0.00  0.00    +0.200 C 
ATOM     27  O   LIG    1        0.406   3.915   1.240  0.00  0.00    -0.390 OA
ENDBRANCH  25  27
ENDBRANCH  24  25
ENDBRANCH  23  24
ENDBRANCH  17  23
ENDBRANCH  15  20
ENDBRANCH   1  15
TORSDOF 8
