REMARK  Name = ZINCvU0000000IQe.0
REMARK                            x       y       z     vdW  Elec       q    Type
REMARK                         _______ _______ _______ _____ _____    ______ ____
ROOT
ATOM      1  N   LIG    1        1.226   9.434  -3.860  0.00  0.00    -0.680 N 
ATOM      2  H   LIG    1        1.887   8.905  -3.386  0.00  0.00    +0.420 HD
ATOM      3  C   LIG    1       -0.054   9.448  -3.437  0.00  0.00    +0.710 C 
ATOM      4  N   LIG    1       -0.434   8.661  -2.411  0.00  0.00    -0.730 N 
ATOM      5  H   LIG    1        0.214   8.083  -1.978  0.00  0.00    +0.400 HD
ATOM      6  O   LIG    1       -0.866  10.173  -3.980  0.00  0.00    -0.570 OA
ENDROOT
BRANCH   1  14
ATOM      7  C   LIG    1        2.585   9.702  -5.845  0.00  0.00    +0.100 A 
ATOM      8  C   LIG    1        2.948  10.442  -6.959  0.00  0.00    -0.080 A 
ATOM      9  C   LIG    1        2.341  11.660  -7.208  0.00  0.00    +0.060 A 
ATOM     10  C   LIG    1        1.367  12.139  -6.351  0.00  0.00    -0.020 A 
ATOM     11  C   LIG    1        0.995  11.403  -5.240  0.00  0.00    +0.070 A 
ATOM     12 CL   LIG    1        0.608  13.668  -6.670  0.00  0.00    -0.050 Cl
ATOM     13 BR   LIG    1        4.279   9.791  -8.134  0.00  0.00    -0.020 Br
ATOM     14  C   LIG    1        1.600  10.181  -4.985  0.00  0.00    +0.170 A 
BRANCH   7  15
ATOM     15  O   LIG    1        3.186   8.507  -5.596  0.00  0.00    -0.320 OA
BRANCH  15  17
ATOM     16  C   LIG    1        3.391   6.106  -5.779  0.00  0.00    +0.060 C 
ATOM     17  C   LIG    1        2.581   7.345  -6.167  0.00  0.00    +0.170 C 
ENDBRANCH  15  17
ENDBRANCH   7  15
ENDBRANCH   1  14
BRANCH   4  18
ATOM     18  C   LIG    1       -1.824   8.677  -1.951  0.00  0.00    +0.400 C 
BRANCH  18  19
ATOM     19  C   LIG    1       -1.985   7.714  -0.803  0.00  0.00    +0.040 A 
ATOM     20  C   LIG    1       -1.908   8.095   0.476  0.00  0.00    -0.040 A 
ATOM     21  S   LIG    1       -2.158   6.670   1.482  0.00  0.00    +0.170 S 
ATOM     22  C   LIG    1       -2.332   5.703   0.083  0.00  0.00    +0.020 A 
ATOM     23  N   LIG    1       -2.212   6.428  -0.977  0.00  0.00    -0.440 NA
BRANCH  22  24
ATOM     24  C   LIG    1       -2.594   4.218   0.088  0.00  0.00    +0.400 C 
BRANCH  24  25
ATOM     25  N   LIG    1       -1.319   3.498   0.079  0.00  0.00    -0.720 N 
ATOM     26  H   LIG    1       -0.483   3.990   0.071  0.00  0.00    +0.400 HD
ATOM     27  C   LIG    1       -1.306   2.150   0.081  0.00  0.00    +0.560 C 
ATOM     28  O   LIG    1       -2.353   1.533   0.091  0.00  0.00    -0.530 OA
BRANCH  27  29
ATOM     29  C   LIG    1       -0.019   1.422   0.072  0.00  0.00    -0.140 A 
ATOM     30  C   LIG    1        1.185   2.128   0.056  0.00  0.00    +0.030 A 
ATOM     31  C   LIG    1        2.382   1.443   0.041  0.00  0.00    +0.000 A 
ATOM     32  C   LIG    1        2.391   0.060   0.044  0.00  0.00    +0.040 A 
ATOM     33  C   LIG    1        1.201  -0.646   0.061  0.00  0.00    +0.000 A 
ATOM     34  C   LIG    1       -0.003   0.027   0.075  0.00  0.00    +0.080 A 
ENDBRANCH  27  29
ENDBRANCH  24  25
ENDBRANCH  22  24
ENDBRANCH  18  19
ENDBRANCH   4  18
TORSDOF 8
