REMARK  Name = ZINCrm00001RJwHS.1
REMARK                            x       y       z     vdW  Elec       q    Type
REMARK                         _______ _______ _______ _____ _____    ______ ____
ROOT
ATOM      1  N   LIG    1       -6.635   0.994  -5.445  0.00  0.00    -0.380 N 
ATOM      2  C   LIG    1       -7.303   2.264  -5.141  0.00  0.00    +0.250 C 
ATOM      3  C   LIG    1       -6.257   3.324  -4.789  0.00  0.00    +0.070 C 
ATOM      4  C   LIG    1       -5.459   2.860  -3.567  0.00  0.00    +0.040 C 
ATOM      5  C   LIG    1       -4.827   1.499  -3.870  0.00  0.00    +0.240 C 
ATOM      6  C   LIG    1       -5.926   0.506  -4.255  0.00  0.00    +0.260 C 
ATOM      7  H   LIG    1       -5.973   1.134  -6.194  0.00  0.00    +0.430 HD
ENDROOT
BRANCH   5   8
ATOM      8  N   LIG    1       -4.122   1.012  -2.681  0.00  0.00    -0.720 N 
ATOM      9  H   LIG    1       -4.568   0.408  -2.067  0.00  0.00    +0.410 HD
ATOM     10  C   LIG    1       -2.855   1.402  -2.442  0.00  0.00    +0.530 C 
ATOM     11  O   LIG    1       -2.297   2.156  -3.210  0.00  0.00    -0.510 OA
BRANCH  10  12
ATOM     12  C   LIG    1       -2.130   0.900  -1.219  0.00  0.00    +0.000 C 
ATOM     13  C   LIG    1       -2.890   1.333   0.039  0.00  0.00    +0.060 C 
ATOM     14  C   LIG    1       -2.105   0.887   1.276  0.00  0.00    +0.060 C 
ATOM     15  C   LIG    1       -0.696   1.477   1.217  0.00  0.00    +0.260 C 
ATOM     16  N   LIG    1       -0.012   1.005   0.008  0.00  0.00    -0.500 N 
ATOM     17  H   LIG    1        0.935   1.353   0.000  0.00  0.00    +0.440 HD
ATOM     18  H   LIG    1        0.002  -0.004   0.002  0.00  0.00    +0.430 HD
ATOM     19  C   LIG    1       -0.719   1.490  -1.184  0.00  0.00    +0.290 C 
ENDBRANCH  10  12
ENDBRANCH   5   8
BRANCH   1  20
ATOM     20  C   LIG    1       -7.636   0.001  -5.857  0.00  0.00    +0.230 C 
BRANCH  20  21
ATOM     21  C   LIG    1       -8.283   0.444  -7.171  0.00  0.00    +0.220 C 
BRANCH  21  22
ATOM     22  O   LIG    1       -7.300   0.443  -8.209  0.00  0.00    -0.550 OA
ATOM     23  H   LIG    1       -6.896  -0.421  -8.367  0.00  0.00    +0.390 HD
ENDBRANCH  21  22
BRANCH  21  24
ATOM     24  C   LIG    1       -9.411  -0.523  -7.536  0.00  0.00    +0.080 C 
BRANCH  24  28
ATOM     25  C   LIG    1      -13.048   2.217  -9.611  0.00  0.00    +0.110 C 
ATOM     26  C   LIG    1      -11.867   1.291  -9.755  0.00  0.00    -0.110 A 
ATOM     27  C   LIG    1      -11.213   0.825  -8.630  0.00  0.00    +0.040 A 
ATOM     28  C   LIG    1      -10.127  -0.019  -8.762  0.00  0.00    -0.110 A 
ATOM     29  C   LIG    1       -9.700  -0.407 -10.019  0.00  0.00    +0.050 A 
ATOM     30  C   LIG    1      -10.356   0.053 -11.145  0.00  0.00    -0.010 A 
ATOM     31  C   LIG    1      -11.441   0.903 -11.014  0.00  0.00    +0.110 A 
ATOM     32  F   LIG    1      -12.083   1.355 -12.114  0.00  0.00    -0.130 F 
ENDBRANCH  24  28
ENDBRANCH  21  24
ENDBRANCH  20  21
ENDBRANCH   1  20
TORSDOF 7
