REMARK  Name = ZINCrm00001RJwHS.0
REMARK                            x       y       z     vdW  Elec       q    Type
REMARK                         _______ _______ _______ _____ _____    ______ ____
ROOT
ATOM      1  N   LIG    1        3.544   3.490   0.245  0.00  0.00    -0.380 N 
ATOM      2  C   LIG    1        3.944   3.284   1.642  0.00  0.00    +0.270 C 
ATOM      3  C   LIG    1        2.798   2.625   2.413  0.00  0.00    +0.060 C 
ATOM      4  C   LIG    1        2.469   1.274   1.770  0.00  0.00    +0.050 C 
ATOM      5  C   LIG    1        2.125   1.493   0.294  0.00  0.00    +0.270 C 
ATOM      6  C   LIG    1        3.296   2.194  -0.398  0.00  0.00    +0.270 C 
ATOM      7  H   LIG    1        2.703   4.046   0.215  0.00  0.00    +0.420 HD
ENDROOT
BRANCH   5   8
ATOM      8  N   LIG    1        0.925   2.326   0.189  0.00  0.00    -0.730 N 
ATOM      9  H   LIG    1        1.009   3.286   0.075  0.00  0.00    +0.400 HD
ATOM     10  C   LIG    1       -0.296   1.759   0.251  0.00  0.00    +0.530 C 
ATOM     11  O   LIG    1       -0.402   0.559   0.393  0.00  0.00    -0.500 OA
BRANCH  10  12
ATOM     12  C   LIG    1       -1.531   2.615   0.136  0.00  0.00    +0.000 C 
ATOM     13  C   LIG    1       -1.551   3.639   1.275  0.00  0.00    +0.050 C 
ATOM     14  C   LIG    1       -2.847   4.451   1.196  0.00  0.00    +0.060 C 
ATOM     15  C   LIG    1       -4.043   3.499   1.251  0.00  0.00    +0.260 C 
ATOM     16  N   LIG    1       -3.981   2.563   0.121  0.00  0.00    -0.500 N 
ATOM     17  H   LIG    1       -4.799   1.972   0.131  0.00  0.00    +0.440 HD
ATOM     18  H   LIG    1       -3.953   3.083  -0.743  0.00  0.00    +0.430 HD
ATOM     19  C   LIG    1       -2.776   1.731   0.230  0.00  0.00    +0.290 C 
ENDBRANCH  10  12
ENDBRANCH   5   8
BRANCH   1  20
ATOM     20  C   LIG    1        4.618   4.192  -0.470  0.00  0.00    +0.240 C 
BRANCH  20  21
ATOM     21  C   LIG    1        4.143   4.549  -1.880  0.00  0.00    +0.210 C 
BRANCH  21  22
ATOM     22  O   LIG    1        3.006   5.410  -1.796  0.00  0.00    -0.550 OA
ATOM     23  H   LIG    1        3.175   6.242  -1.333  0.00  0.00    +0.390 HD
ENDBRANCH  21  22
BRANCH  21  24
ATOM     24  C   LIG    1        5.269   5.264  -2.632  0.00  0.00    +0.090 C 
BRANCH  24  28
ATOM     25  C   LIG    1        3.089   8.175  -6.069  0.00  0.00    +0.100 C 
ATOM     26  C   LIG    1        3.803   6.899  -5.702  0.00  0.00    -0.110 A 
ATOM     27  C   LIG    1        4.191   6.676  -4.394  0.00  0.00    +0.050 A 
ATOM     28  C   LIG    1        4.846   5.506  -4.058  0.00  0.00    -0.110 A 
ATOM     29  C   LIG    1        5.117   4.561  -5.029  0.00  0.00    +0.040 A 
ATOM     30  C   LIG    1        4.725   4.779  -6.336  0.00  0.00    -0.010 A 
ATOM     31  C   LIG    1        4.069   5.951  -6.674  0.00  0.00    +0.110 A 
ATOM     32  F   LIG    1        3.691   6.168  -7.953  0.00  0.00    -0.130 F 
ENDBRANCH  24  28
ENDBRANCH  21  24
ENDBRANCH  20  21
ENDBRANCH   1  20
TORSDOF 7
