REMARK  Name = ZINCrD000000Ag14.0
REMARK                            x       y       z     vdW  Elec       q    Type
REMARK                         _______ _______ _______ _____ _____    ______ ____
ROOT
ATOM      1  N   LIG    1       -6.992   4.694  -3.977  0.00  0.00    -1.120 NA
ATOM      2  H   LIG    1       -7.487   4.781  -3.147  0.00  0.00    +0.420 HD
ENDROOT
BRANCH   1   3
ATOM      3  S   LIG    1       -7.622   5.301  -5.383  0.00  0.00    +2.700 S 
ATOM      4  O   LIG    1       -6.585   6.057  -5.993  0.00  0.00    -0.940 OA
ATOM      5  O   LIG    1       -8.890   5.848  -5.052  0.00  0.00    -0.950 OA
BRANCH   3   6
ATOM      6  C   LIG    1       -7.933   3.933  -6.449  0.00  0.00    -0.680 A 
ATOM      7  C   LIG    1       -6.952   3.500  -7.322  0.00  0.00    +0.160 A 
ATOM      8  C   LIG    1       -7.195   2.424  -8.155  0.00  0.00    +0.010 A 
ATOM      9  C   LIG    1       -8.421   1.787  -8.122  0.00  0.00    +0.140 A 
ATOM     10  C   LIG    1       -9.403   2.223  -7.253  0.00  0.00    -0.200 A 
ATOM     11  C   LIG    1       -9.159   3.296  -6.416  0.00  0.00    +0.180 A 
BRANCH  10  12
ATOM     12  C   LIG    1      -10.740   1.528  -7.216  0.00  0.00    +0.510 C 
ATOM     13  F   LIG    1      -11.280   1.622  -5.929  0.00  0.00    -0.170 F 
ATOM     14  F   LIG    1      -10.575   0.181  -7.556  0.00  0.00    -0.170 F 
ATOM     15  F   LIG    1      -11.607   2.137  -8.130  0.00  0.00    -0.170 F 
ENDBRANCH  10  12
ENDBRANCH   3   6
ENDBRANCH   1   3
BRANCH   1  16
ATOM     16  C   LIG    1       -5.689   4.024  -3.987  0.00  0.00    +0.300 C 
BRANCH  16  17
ATOM     17  C   LIG    1       -5.171   3.895  -2.553  0.00  0.00    +0.060 C 
BRANCH  17  19
ATOM     18  O   LIG    1       -3.338   2.854  -3.613  0.00  0.00    -0.540 OA
ATOM     19  C   LIG    1       -3.831   3.207  -2.563  0.00  0.00    +0.520 C 
ATOM     20  N   LIG    1       -3.180   2.983  -1.404  0.00  0.00    -0.730 N 
ATOM     21  H   LIG    1       -3.574   3.265  -0.564  0.00  0.00    +0.400 HD
BRANCH  20  22
ATOM     22  C   LIG    1       -1.877   2.314  -1.414  0.00  0.00    +0.260 C 
BRANCH  22  23
ATOM     23  C   LIG    1       -1.359   2.185   0.020  0.00  0.00    +0.050 C 
BRANCH  23  24
ATOM     24  C   LIG    1       -0.018   1.496   0.010  0.00  0.00    -0.120 C 
ATOM     25  C   LIG    1        1.044   2.236   0.004  0.00  0.00    -0.040 C 
ATOM     26  C   LIG    1        2.444   1.697  -0.022  0.00  0.00    +0.050 C 
ATOM     27  C   LIG    1        2.448   0.221   0.383  0.00  0.00    +0.010 C 
ATOM     28  C   LIG    1        1.378  -0.510  -0.437  0.00  0.00    +0.020 C 
ATOM     29  C   LIG    1        0.002  -0.004   0.002  0.00  0.00    +0.060 C 
ENDBRANCH  23  24
ENDBRANCH  22  23
ENDBRANCH  20  22
ENDBRANCH  17  19
ENDBRANCH  16  17
ENDBRANCH   1  16
TORSDOF 9
