REMARK  Name = ZINCpe000027pHuH.0
REMARK                            x       y       z     vdW  Elec       q    Type
REMARK                         _______ _______ _______ _____ _____    ______ ____
ROOT
ATOM      1  C   LIG    1       -1.198  -0.644  -0.006  0.00  0.00    +0.210 A 
ATOM      2  C   LIG    1       -2.361   0.085   0.194  0.00  0.00    -0.060 A 
ATOM      3  C   LIG    1       -3.584  -0.555   0.202  0.00  0.00    +0.100 A 
ATOM      4  C   LIG    1       -3.649  -1.930   0.021  0.00  0.00    +0.090 A 
ATOM      5  C   LIG    1       -2.484  -2.660  -0.173  0.00  0.00    +0.180 A 
ATOM      6  C   LIG    1       -1.262  -2.018  -0.186  0.00  0.00    -0.690 A 
ENDROOT
BRANCH   4   7
ATOM      7  N   LIG    1       -4.890  -2.581   0.035  0.00  0.00    -0.660 N 
ATOM      8  H   LIG    1       -5.678  -2.130  -0.306  0.00  0.00    +0.420 HD
ATOM      9  C   LIG    1       -4.988  -3.834   0.523  0.00  0.00    +0.500 C 
ATOM     10  O   LIG    1       -4.025  -4.362   1.037  0.00  0.00    -0.500 OA
BRANCH   9  11
ATOM     11  C   LIG    1       -6.295  -4.578   0.430  0.00  0.00    +0.390 C 
BRANCH  11  12
ATOM     12  N   LIG    1       -6.144  -5.907   1.027  0.00  0.00    -0.330 N 
ATOM     13  N   LIG    1       -5.778  -6.888   0.283  0.00  0.00    -0.190 NA
ATOM     14  C   LIG    1       -5.619  -8.096   0.747  0.00  0.00    +0.270 A 
ATOM     15  C   LIG    1       -5.856  -8.376   2.104  0.00  0.00    +0.010 A 
ATOM     16  C   LIG    1       -6.252  -7.349   2.918  0.00  0.00    -0.110 A 
ATOM     17 CL   LIG    1       -6.566  -7.612   4.605  0.00  0.00    +0.020 Cl
ATOM     18 CL   LIG    1       -5.654  -9.982   2.731  0.00  0.00    +0.000 Cl
ATOM     19  C   LIG    1       -6.397  -6.070   2.339  0.00  0.00    +0.500 A 
ATOM     20  O   LIG    1       -6.748  -5.121   3.022  0.00  0.00    -0.500 OA
ENDBRANCH  11  12
ENDBRANCH   9  11
ENDBRANCH   4   7
BRANCH   6  21
ATOM     21  S   LIG    1        0.217  -2.945  -0.431  0.00  0.00    +2.710 S 
ATOM     22  O   LIG    1       -0.182  -4.296  -0.616  0.00  0.00    -0.960 OA
ATOM     23  O   LIG    1        1.121  -2.534   0.585  0.00  0.00    -0.950 OA
BRANCH  21  24
ATOM     24  N   LIG    1        0.873  -2.450  -1.869  0.00  0.00    -1.250 NA
ATOM     25  H   LIG    1        1.700  -2.845  -2.187  0.00  0.00    +0.420 HD
ATOM     26  H   LIG    1        0.429  -1.764  -2.394  0.00  0.00    +0.410 HD
ENDBRANCH  21  24
ENDBRANCH   6  21
BRANCH   1  28
ATOM     27  C   LIG    1       -0.002   1.403   0.173  0.00  0.00    +0.250 C 
ATOM     28  O   LIG    1        0.006  -0.013  -0.019  0.00  0.00    -0.310 OA
ENDBRANCH   1  28
TORSDOF 6
