REMARK  Name = ZINCqH0000034V9z.0
REMARK                            x       y       z     vdW  Elec       q    Type
REMARK                         _______ _______ _______ _____ _____    ______ ____
ROOT
ATOM      1  C   LIG    1       -4.887   1.563   1.725  0.00  0.00    +0.350 C 
ENDROOT
BRANCH   1   2
ATOM      2  C   LIG    1       -4.913   0.109   1.330  0.00  0.00    -0.100 A 
ATOM      3  C   LIG    1       -3.927  -0.748   1.783  0.00  0.00    +0.030 A 
ATOM      4  C   LIG    1       -3.953  -2.082   1.427  0.00  0.00    -0.100 A 
ATOM      5  C   LIG    1       -4.962  -2.560   0.605  0.00  0.00    +0.120 A 
ATOM      6  C   LIG    1       -5.947  -1.698   0.146  0.00  0.00    -0.100 A 
ATOM      7  C   LIG    1       -7.046  -2.214  -0.747  0.00  0.00    +0.100 C 
ATOM      8  C   LIG    1       -2.881  -3.016   1.927  0.00  0.00    +0.100 C 
ATOM      9  C   LIG    1       -5.921  -0.365   0.510  0.00  0.00    +0.060 A 
BRANCH   5  10
ATOM     10  O   LIG    1       -4.986  -3.872   0.248  0.00  0.00    -0.490 OA
ATOM     11  H   LIG    1       -4.501  -4.066  -0.566  0.00  0.00    +0.390 HD
ENDBRANCH   5  10
ENDBRANCH   1   2
BRANCH   1  12
ATOM     12  N   LIG    1       -3.505   2.050   1.703  0.00  0.00    -0.700 N 
ATOM     13  H   LIG    1       -2.770   1.428   1.820  0.00  0.00    +0.410 HD
ATOM     14  C   LIG    1       -3.256   3.361   1.519  0.00  0.00    +0.600 C 
ATOM     15  O   LIG    1       -4.177   4.154   1.464  0.00  0.00    -0.540 OA
BRANCH  14  16
ATOM     16  C   LIG    1       -1.873   3.833   1.386  0.00  0.00    -0.040 A 
ATOM     17  C   LIG    1       -0.745   3.043   1.326  0.00  0.00    +0.040 A 
ATOM     18  C   LIG    1        0.352   3.902   1.201  0.00  0.00    -0.180 A 
ATOM     19  C   LIG    1       -0.116   5.174   1.181  0.00  0.00    +0.250 A 
ATOM     20 BR   LIG    1        2.165   3.381   1.073  0.00  0.00    -0.020 Br
ATOM     21  N   LIG    1       -1.467   5.145   1.299  0.00  0.00    -0.390 N 
BRANCH  21  22
ATOM     22  C   LIG    1       -2.347   6.316   1.323  0.00  0.00    +0.230 C 
ATOM     23  C   LIG    1       -2.092   7.171   0.080  0.00  0.00    +0.050 C 
ATOM     24  C   LIG    1       -2.061   7.143   2.578  0.00  0.00    +0.040 C 
ENDBRANCH  21  22
ENDBRANCH  14  16
ENDBRANCH   1  12
BRANCH   1  25
ATOM     25  C   LIG    1       -5.452   1.717   3.113  0.00  0.00    +0.450 C 
ATOM     26  O   LIG    1       -4.770   2.185   3.994  0.00  0.00    -0.490 OA
BRANCH  25  28
ATOM     27  C   LIG    1       -7.189   1.512   4.731  0.00  0.00    +0.260 C 
ATOM     28  O   LIG    1       -6.712   1.334   3.372  0.00  0.00    -0.350 OA
ENDBRANCH  25  28
ENDBRANCH   1  25
TORSDOF 7
