REMARK  Name = ZINC670000003Wgz.0
REMARK                            x       y       z     vdW  Elec       q    Type
REMARK                         _______ _______ _______ _____ _____    ______ ____
ROOT
ATOM      1  C   LIG    1       -1.140   1.597   0.016  0.00  0.00    +0.560 C 
ENDROOT
BRANCH   1   2
ATOM      2  N   LIG    1       -0.011   0.966   0.007  0.00  0.00    -0.720 NA
ATOM      3  H   LIG    1        0.822   1.462   0.002  0.00  0.00    +0.440 HD
ATOM      4  H   LIG    1        0.002  -0.004   0.002  0.00  0.00    +0.450 HD
ENDBRANCH   1   2
BRANCH   1   6
ATOM      5  C   LIG    1       -2.866   0.557   1.461  0.00  0.00    +0.080 C 
ATOM      6  C   LIG    1       -2.434   0.826   0.018  0.00  0.00    +0.150 C 
ENDBRANCH   1   6
BRANCH   1   7
ATOM      7  N   LIG    1       -1.158   2.967   0.024  0.00  0.00    -0.540 NA
ATOM      8  H   LIG    1       -2.005   3.441   0.030  0.00  0.00    +0.450 HD
BRANCH   7   9
ATOM      9  O   LIG    1        0.058   3.692   0.022  0.00  0.00    -0.310 OA
ATOM     10  H   LIG    1       -0.056   4.652   0.028  0.00  0.00    +0.430 HD
ENDBRANCH   7   9
ENDBRANCH   1   7
TORSDOF 4
