REMARK  Name = ZINCrg00001Jdv2q.0
REMARK                            x       y       z     vdW  Elec       q    Type
REMARK                         _______ _______ _______ _____ _____    ______ ____
ROOT
ATOM      1  C   LIG    1       -1.265  -0.747   0.079  0.00  0.00    +0.590 C 
ATOM      2  N   LIG    1       -2.432  -0.088   0.222  0.00  0.00    -0.600 N 
ATOM      3  C   LIG    1       -2.583   1.371   0.240  0.00  0.00    +0.250 C 
ATOM      4  C   LIG    1       -4.077   1.688   0.418  0.00  0.00    +0.050 C 
ATOM      5  C   LIG    1       -4.800   0.369   0.071  0.00  0.00    -0.020 C 
ATOM      6  C   LIG    1       -5.609  -0.197   1.250  0.00  0.00    +0.260 C 
ATOM      7  C   LIG    1       -4.277  -0.706   1.825  0.00  0.00    +0.010 C 
ATOM      8  C   LIG    1       -3.746  -0.718   0.378  0.00  0.00    +0.240 C 
ATOM      9  O   LIG    1       -1.260  -1.959  -0.016  0.00  0.00    -0.540 OA
ENDROOT
BRANCH   1  14
ATOM     10  C   LIG    1        2.153   0.438  -0.978  0.00  0.00    +0.140 A 
ATOM     11  C   LIG    1        2.394   1.418  -0.030  0.00  0.00    -0.020 A 
ATOM     12  C   LIG    1        1.451   1.693   0.948  0.00  0.00    -0.010 A 
ATOM     13  C   LIG    1        0.265   0.995   0.989  0.00  0.00    +0.020 A 
ATOM     14  C   LIG    1        0.004   0.002   0.039  0.00  0.00    -0.180 A 
ATOM     15  C   LIG    1        0.956  -0.278  -0.951  0.00  0.00    +0.210 A 
BRANCH  10  16
ATOM     16  N   LIG    1        3.110   0.166  -1.964  0.00  0.00    -0.880 N 
ATOM     17  H   LIG    1        3.942   0.664  -1.982  0.00  0.00    +0.400 HD
ATOM     18  H   LIG    1        2.941  -0.520  -2.628  0.00  0.00    +0.390 HD
ENDBRANCH  10  16
BRANCH  15  19
ATOM     19  N   LIG    1        0.708  -1.265  -1.901  0.00  0.00    -0.870 N 
ATOM     20  H   LIG    1        1.399  -1.512  -2.534  0.00  0.00    +0.390 HD
ATOM     21  H   LIG    1       -0.156  -1.704  -1.929  0.00  0.00    +0.410 HD
ENDBRANCH  15  19
ENDBRANCH   1  14
BRANCH   6  22
ATOM     22  N   LIG    1       -6.246   0.835   2.073  0.00  0.00    -0.710 N 
ATOM     23  H   LIG    1       -5.875   1.731   2.100  0.00  0.00    +0.400 HD
ATOM     24  C   LIG    1       -7.347   0.540   2.792  0.00  0.00    +0.550 C 
ATOM     25  O   LIG    1       -7.812  -0.584   2.757  0.00  0.00    -0.540 OA
BRANCH  24  26
ATOM     26  C   LIG    1       -7.982   1.570   3.613  0.00  0.00    -0.030 C 
ATOM     27  C   LIG    1       -9.087   1.274   4.334  0.00  0.00    +0.150 C 
BRANCH  27  28
ATOM     28  C   LIG    1       -9.724   2.306   5.157  0.00  0.00    +0.210 A 
ATOM     29  N   LIG    1       -9.320   3.556   5.278  0.00  0.00    -0.460 NA
ATOM     30  C   LIG    1      -10.138   4.202   6.106  0.00  0.00    +0.150 A 
ATOM     31  C   LIG    1      -11.094   3.338   6.525  0.00  0.00    +0.150 A 
ATOM     32  N   LIG    1      -10.843   2.141   5.926  0.00  0.00    -0.550 N 
ATOM     33  H   LIG    1      -11.358   1.325   6.027  0.00  0.00    +0.430 HD
ENDBRANCH  27  28
ENDBRANCH  24  26
ENDBRANCH   6  22
TORSDOF 6
