REMARK  Name = ZINCpk00000eaNCH.0
REMARK                            x       y       z     vdW  Elec       q    Type
REMARK                         _______ _______ _______ _____ _____    ______ ____
ROOT
ATOM      1  O   LIG    1        0.593  -2.694  -2.452  0.00  0.00    -0.330 OA
ENDROOT
BRANCH   1   3
ATOM      2  C   LIG    1       -1.049  -4.409  -2.991  0.00  0.00    +0.070 C 
ATOM      3  C   LIG    1        0.349  -4.125  -2.439  0.00  0.00    +0.200 C 
BRANCH   3   4
ATOM      4  C   LIG    1        1.377  -4.818  -3.296  0.00  0.00    +0.520 C 
ATOM      5  N   LIG    1        1.347  -6.158  -3.434  0.00  0.00    -0.690 N 
ATOM      6  H   LIG    1        0.664  -6.677  -2.981  0.00  0.00    +0.410 HD
ATOM      7  C   LIG    1        2.267  -6.778  -4.200  0.00  0.00    +0.700 C 
ATOM      8  N   LIG    1        2.237  -8.118  -4.338  0.00  0.00    -0.710 N 
ATOM      9  H   LIG    1        1.554  -8.637  -3.885  0.00  0.00    +0.400 HD
ATOM     10  O   LIG    1        3.123  -6.128  -4.767  0.00  0.00    -0.520 OA
ATOM     11  O   LIG    1        2.232  -4.169  -3.861  0.00  0.00    -0.440 OA
BRANCH   8  12
ATOM     12  C   LIG    1        3.237  -8.791  -5.170  0.00  0.00    +0.230 C 
ATOM     13  C   LIG    1        2.745  -9.893  -6.112  0.00  0.00    +0.020 C 
ATOM     14  C   LIG    1        3.544 -10.257  -4.859  0.00  0.00    +0.020 C 
ENDBRANCH   8  12
ENDBRANCH   3   4
ENDBRANCH   1   3
BRANCH   1  15
ATOM     15  C   LIG    1        0.243  -2.006  -1.354  0.00  0.00    +0.470 C 
ATOM     16  O   LIG    1       -0.252  -2.581  -0.413  0.00  0.00    -0.480 OA
BRANCH  15  17
ATOM     17  C   LIG    1        0.466  -0.517  -1.294  0.00  0.00    +0.210 C 
ATOM     18  C   LIG    1        1.958  -0.218  -1.457  0.00  0.00    +0.040 C 
BRANCH  17  19
ATOM     19  N   LIG    1        0.002  -0.004   0.002  0.00  0.00    -0.520 NA
ATOM     20  C   LIG    1        0.827  -0.525   1.100  0.00  0.00    +0.200 C 
BRANCH  19  21
ATOM     21  C   LIG    1       -0.018   1.465   0.010  0.00  0.00    +0.230 C 
BRANCH  21  22
ATOM     22  C   LIG    1       -0.723   1.951   1.250  0.00  0.00    -0.080 A 
ATOM     23  C   LIG    1       -2.088   2.168   1.228  0.00  0.00    +0.020 A 
ATOM     24  C   LIG    1       -2.736   2.609   2.367  0.00  0.00    +0.000 A 
ATOM     25  C   LIG    1       -2.017   2.843   3.524  0.00  0.00    +0.000 A 
ATOM     26  C   LIG    1       -0.651   2.631   3.545  0.00  0.00    +0.000 A 
ATOM     27  C   LIG    1       -0.004   2.185   2.407  0.00  0.00    +0.010 A 
ENDBRANCH  21  22
ENDBRANCH  19  21
ENDBRANCH  17  19
ENDBRANCH  15  17
ENDBRANCH   1  15
TORSDOF 8
