REMARK  Name = ZINCrH000004suJO.0
REMARK                            x       y       z     vdW  Elec       q    Type
REMARK                         _______ _______ _______ _____ _____    ______ ____
ROOT
ATOM      1  C   LIG    1        1.739   6.190   4.108  0.00  0.00    +0.010 C 
ATOM      2  C   LIG    1        0.674   6.521   5.178  0.00  0.00    +0.080 C 
ATOM      3  C   LIG    1       -0.098   5.231   5.346  0.00  0.00    +0.520 C 
ATOM      4  N   LIG    1        0.596   4.206   4.820  0.00  0.00    -0.610 N 
ATOM      5  O   LIG    1       -1.183   5.134   5.878  0.00  0.00    -0.520 OA
ATOM      6  C   LIG    1        1.878   4.658   4.268  0.00  0.00    +0.310 C 
ENDROOT
BRANCH   1   9
ATOM      7  N   LIG    1        3.098   8.228   4.454  0.00  0.00    -0.630 N 
ATOM      8  H   LIG    1        2.298   8.751   4.288  0.00  0.00    +0.420 HD
ATOM      9  C   LIG    1        3.043   6.882   4.412  0.00  0.00    +0.520 C 
ATOM     10  O   LIG    1        4.043   6.227   4.620  0.00  0.00    -0.460 OA
BRANCH   7  15
ATOM     11  C   LIG    1        7.838   8.465   5.511  0.00  0.00    +0.160 C 
ATOM     12  C   LIG    1        6.471   9.027   5.220  0.00  0.00    +0.090 A 
ATOM     13  C   LIG    1        6.220  10.338   5.193  0.00  0.00    -0.240 A 
ATOM     14  S   LIG    1        4.513  10.560   4.819  0.00  0.00    +0.120 S 
ATOM     15  C   LIG    1        4.300   8.866   4.734  0.00  0.00    +0.260 A 
ATOM     16  C   LIG    1        7.223  11.435   5.439  0.00  0.00    +0.160 C 
ATOM     17  N   LIG    1        5.422   8.263   4.976  0.00  0.00    -0.470 NA
ENDBRANCH   7  15
ENDBRANCH   1   9
BRANCH   4  18
ATOM     18  C   LIG    1        0.133   2.816   4.806  0.00  0.00    +0.370 C 
BRANCH  18  19
ATOM     19  C   LIG    1       -0.651   2.561   3.544  0.00  0.00    -0.110 A 
ATOM     20  C   LIG    1       -2.016   2.773   3.524  0.00  0.00    +0.080 A 
ATOM     21  C   LIG    1       -2.735   2.539   2.367  0.00  0.00    +0.020 A 
ATOM     22  C   LIG    1       -2.087   2.098   1.228  0.00  0.00    +0.080 A 
ATOM     23  C   LIG    1       -0.722   1.881   1.250  0.00  0.00    -0.190 A 
ATOM     24  C   LIG    1       -0.004   2.115   2.407  0.00  0.00    +0.080 A 
BRANCH  23  25
ATOM     25  C   LIG    1       -0.017   1.395   0.010  0.00  0.00    +0.510 C 
ATOM     26  F   LIG    1       -0.694   1.858  -1.124  0.00  0.00    -0.180 F 
ATOM     27  F   LIG    1        1.296   1.879  -0.000  0.00  0.00    -0.180 F 
ATOM     28  F   LIG    1        0.002  -0.004   0.002  0.00  0.00    -0.180 F 
ENDBRANCH  23  25
ENDBRANCH  18  19
ENDBRANCH   4  18
TORSDOF 5
