REMARK  Name = ZINCnE000008JhOU.0
REMARK                            x       y       z     vdW  Elec       q    Type
REMARK                         _______ _______ _______ _____ _____    ______ ____
ROOT
ATOM      1  C   LIG    1        0.970   7.155   2.330  0.00  0.00    -0.340 A 
ATOM      2  C   LIG    1       -0.120   6.915   3.123  0.00  0.00    +0.100 A 
ATOM      3  C   LIG    1       -0.528   5.604   3.103  0.00  0.00    -0.040 A 
ATOM      4  C   LIG    1        0.205   4.792   2.329  0.00  0.00    -0.160 A 
ATOM      5  S   LIG    1        1.464   5.652   1.562  0.00  0.00    +0.290 S 
ENDROOT
BRANCH   1   7
ATOM      6  O   LIG    1        1.127   9.454   2.638  0.00  0.00    -0.460 OA
ATOM      7  C   LIG    1        1.620   8.454   2.150  0.00  0.00    +0.470 C 
BRANCH   7   8
ATOM      8  C   LIG    1        2.877   8.551   1.377  0.00  0.00    -0.160 A 
ATOM      9  C   LIG    1        3.728   7.449   1.281  0.00  0.00    +0.050 A 
ATOM     10  C   LIG    1        4.897   7.545   0.554  0.00  0.00    +0.010 A 
ATOM     11  C   LIG    1        5.231   8.733  -0.071  0.00  0.00    +0.040 A 
ATOM     12  C   LIG    1        4.394   9.831   0.025  0.00  0.00    +0.000 A 
ATOM     13  C   LIG    1        3.221   9.748   0.745  0.00  0.00    +0.060 A 
ENDBRANCH   7   8
ENDBRANCH   1   7
BRANCH   4  14
ATOM     14  C   LIG    1       -0.050   3.317   2.156  0.00  0.00    +0.260 C 
BRANCH  14  15
ATOM     15  N   LIG    1       -0.971   3.109   1.030  0.00  0.00    -0.500 NA
ATOM     16  C   LIG    1       -2.331   3.541   1.375  0.00  0.00    +0.140 C 
ATOM     17  C   LIG    1       -3.227   3.446   0.138  0.00  0.00    +0.020 C 
ATOM     18  C   LIG    1       -3.243   2.000  -0.365  0.00  0.00    -0.010 C 
ATOM     19  C   LIG    1       -1.809   1.560  -0.672  0.00  0.00    +0.040 C 
ATOM     20  C   LIG    1       -0.954   1.709   0.588  0.00  0.00    +0.050 C 
BRANCH  20  21
ATOM     21  C   LIG    1        0.463   1.295   0.286  0.00  0.00    +0.500 C 
ATOM     22  O   LIG    1        1.291   2.135  -0.024  0.00  0.00    -0.670 OA
ATOM     23  O   LIG    1        0.781   0.119   0.346  0.00  0.00    -0.700 OA
ENDBRANCH  20  21
ENDBRANCH  14  15
ENDBRANCH   4  14
TORSDOF 5
