REMARK  Name = ZINCrD000000fBdP.0
REMARK                            x       y       z     vdW  Elec       q    Type
REMARK                         _______ _______ _______ _____ _____    ______ ____
ROOT
ATOM      1  S   LIG    1       -2.490  -4.027  -1.031  0.00  0.00    +2.690 S 
ATOM      2  O   LIG    1       -2.047  -3.514  -2.280  0.00  0.00    -0.940 OA
ATOM      3  O   LIG    1       -3.806  -4.517  -0.815  0.00  0.00    -0.950 OA
ENDROOT
BRANCH   1  13
ATOM      4  C   LIG    1        3.882  -5.367  -2.627  0.00  0.00    +0.120 C 
ATOM      5  C   LIG    1        2.438  -5.483  -2.211  0.00  0.00    +0.510 C 
ATOM      6  N   LIG    1        2.085  -6.344  -1.237  0.00  0.00    -0.560 N 
ATOM      7  C   LIG    1        3.072  -7.269  -0.662  0.00  0.00    +0.280 C 
ATOM      8  C   LIG    1        2.412  -8.650  -0.554  0.00  0.00    +0.030 C 
ATOM      9  C   LIG    1        1.234  -8.561   0.415  0.00  0.00    +0.090 C 
ATOM     10  C   LIG    1        0.325  -7.421   0.037  0.00  0.00    -0.060 A 
ATOM     11  C   LIG    1       -0.982  -7.426   0.495  0.00  0.00    +0.020 A 
ATOM     12  C   LIG    1       -1.839  -6.393   0.168  0.00  0.00    +0.100 A 
ATOM     13  C   LIG    1       -1.395  -5.345  -0.618  0.00  0.00    -0.660 A 
ATOM     14  C   LIG    1       -0.095  -5.335  -1.083  0.00  0.00    +0.140 A 
ATOM     15  C   LIG    1        0.769  -6.372  -0.754  0.00  0.00    +0.140 A 
ATOM     16  O   LIG    1        1.595  -4.802  -2.754  0.00  0.00    -0.510 OA
ENDBRANCH   1  13
BRANCH   1  17
ATOM     17  N   LIG    1       -2.250  -2.824   0.081  0.00  0.00    -1.060 N 
ATOM     18  H   LIG    1       -2.961  -2.581   0.694  0.00  0.00    +0.430 HD
BRANCH  17  19
ATOM     19  C   LIG    1       -1.023  -2.159   0.136  0.00  0.00    +0.120 A 
ATOM     20  C   LIG    1       -0.709  -1.225  -0.827  0.00  0.00    +0.070 A 
ATOM     21  C   LIG    1        0.525  -0.559  -0.765  0.00  0.00    -0.100 A 
ATOM     22  C   LIG    1        0.886   0.401  -1.729  0.00  0.00    +0.090 A 
ATOM     23  C   LIG    1        2.103   1.010  -1.609  0.00  0.00    -0.040 A 
ATOM     24  C   LIG    1        2.948   0.671  -0.553  0.00  0.00    +0.300 A 
ATOM     25  N   LIG    1        2.608  -0.223   0.343  0.00  0.00    -0.480 NA
ATOM     26  C   LIG    1        1.432  -0.855   0.283  0.00  0.00    +0.130 A 
ATOM     27  C   LIG    1        1.077  -1.815   1.249  0.00  0.00    +0.050 A 
ATOM     28  C   LIG    1       -0.123  -2.447   1.170  0.00  0.00    +0.040 A 
ENDBRANCH  17  19
ENDBRANCH   1  17
TORSDOF 3
