REMARK  Name = ZINCqH0000034ojd.0
REMARK                            x       y       z     vdW  Elec       q    Type
REMARK                         _______ _______ _______ _____ _____    ______ ____
ROOT
ATOM      1  C   LIG    1        2.449   5.987  -1.630  0.00  0.00    +0.250 A 
ATOM      2  C   LIG    1        3.010   6.697  -0.573  0.00  0.00    -0.080 A 
ATOM      3  C   LIG    1        3.783   7.808  -0.822  0.00  0.00    +0.090 A 
ATOM      4  C   LIG    1        3.996   8.229  -2.138  0.00  0.00    -0.200 A 
ATOM      5  C   LIG    1        3.427   7.516  -3.197  0.00  0.00    +0.140 A 
ATOM      6  C   LIG    1        2.659   6.403  -2.942  0.00  0.00    -0.070 A 
ENDROOT
BRANCH   4   7
ATOM      7  C   LIG    1        4.821   9.421  -2.408  0.00  0.00    +0.580 C 
ATOM      8  N   LIG    1        5.237  10.198  -1.389  0.00  0.00    -0.550 N 
ATOM      9  C   LIG    1        5.032   9.900   0.032  0.00  0.00    +0.280 C 
ATOM     10  C   LIG    1        5.684  11.070   0.787  0.00  0.00    +0.090 C 
ATOM     11  C   LIG    1        6.218  11.975  -0.301  0.00  0.00    -0.140 A 
ATOM     12  C   LIG    1        6.895  13.177  -0.229  0.00  0.00    +0.050 A 
ATOM     13  C   LIG    1        7.286  13.825  -1.386  0.00  0.00    -0.010 A 
ATOM     14  C   LIG    1        6.997  13.266  -2.617  0.00  0.00    +0.040 A 
ATOM     15  C   LIG    1        6.321  12.067  -2.695  0.00  0.00    +0.010 A 
ATOM     16  C   LIG    1        5.924  11.407  -1.531  0.00  0.00    +0.150 A 
ATOM     17  O   LIG    1        5.124   9.705  -3.551  0.00  0.00    -0.520 OA
ENDBRANCH   4   7
BRANCH   1  18
ATOM     18  N   LIG    1        1.671   4.862  -1.375  0.00  0.00    -0.730 N 
ATOM     19  H   LIG    1        1.277   4.369  -2.111  0.00  0.00    +0.410 HD
BRANCH  18  20
ATOM     20  C   LIG    1        1.449   4.423   0.004  0.00  0.00    +0.390 C 
BRANCH  20  25
ATOM     21  N   LIG    1        1.022   1.916  -0.051  0.00  0.00    -0.450 N 
ATOM     22  C   LIG    1       -0.079   1.105  -0.028  0.00  0.00    +0.140 A 
ATOM     23  C   LIG    1       -1.156   1.911   0.036  0.00  0.00    +0.140 A 
ATOM     24  N   LIG    1       -0.723   3.180   0.060  0.00  0.00    -0.470 NA
ATOM     25  C   LIG    1        0.581   3.191   0.005  0.00  0.00    +0.180 A 
BRANCH  21  27
ATOM     26  C   LIG    1        3.005   1.411   1.289  0.00  0.00    +0.040 C 
ATOM     27  C   LIG    1        2.420   1.483  -0.123  0.00  0.00    +0.290 C 
ENDBRANCH  21  27
ENDBRANCH  20  25
ENDBRANCH  18  20
ENDBRANCH   1  18
TORSDOF 5
