REMARK  Name = ZINCrH000004lVCq.0
REMARK                            x       y       z     vdW  Elec       q    Type
REMARK                         _______ _______ _______ _____ _____    ______ ____
ROOT
ATOM      1  N   LIG    1        2.246   1.308   0.991  0.00  0.00    -0.720 N 
ATOM      2  H   LIG    1        1.955   0.730   1.713  0.00  0.00    +0.400 HD
ATOM      3  C   LIG    1        1.393   1.627  -0.003  0.00  0.00    +0.520 C 
ATOM      4  O   LIG    1        1.758   2.351  -0.905  0.00  0.00    -0.530 OA
ENDROOT
BRANCH   3   5
ATOM      5  C   LIG    1       -0.013   1.086   0.008  0.00  0.00    +0.000 C 
ATOM      6  C   LIG    1       -0.777   1.605   1.243  0.00  0.00    +0.050 C 
ATOM      7  C   LIG    1       -1.966   2.406   0.671  0.00  0.00    +0.180 C 
ATOM      8  N   LIG    1       -2.177   1.845  -0.688  0.00  0.00    -0.470 N 
ATOM      9  C   LIG    1       -0.801   1.618  -1.208  0.00  0.00    +0.220 C 
BRANCH   8  10
ATOM     10  C   LIG    1       -2.877   2.745  -1.498  0.00  0.00    +0.040 A 
ATOM     11  C   LIG    1       -2.350   4.003  -1.757  0.00  0.00    +0.010 A 
ATOM     12  C   LIG    1       -3.041   4.887  -2.563  0.00  0.00    +0.010 A 
ATOM     13  C   LIG    1       -4.260   4.526  -3.104  0.00  0.00    +0.040 A 
ATOM     14  C   LIG    1       -4.792   3.275  -2.844  0.00  0.00    -0.010 A 
ATOM     15  C   LIG    1       -4.104   2.383  -2.043  0.00  0.00    +0.130 A 
ATOM     16  F   LIG    1       -4.623   1.162  -1.791  0.00  0.00    -0.130 F 
ENDBRANCH   8  10
ENDBRANCH   3   5
BRANCH   1  17
ATOM     17  C   LIG    1        3.613   1.835   0.981  0.00  0.00    +0.330 C 
BRANCH  17  21
ATOM     18  C   LIG    1        5.714   0.412   4.424  0.00  0.00    +0.120 A 
ATOM     19  C   LIG    1        4.767   1.415   4.553  0.00  0.00    +0.000 A 
ATOM     20  C   LIG    1        4.093   1.877   3.437  0.00  0.00    -0.080 A 
ATOM     21  C   LIG    1        4.354   1.332   2.193  0.00  0.00    -0.080 A 
ATOM     22  C   LIG    1        5.299   0.331   2.058  0.00  0.00    +0.000 A 
ATOM     23 BR   LIG    1        2.805   3.251   3.614  0.00  0.00    -0.030 Br
ATOM     24  C   LIG    1        5.981  -0.132   3.171  0.00  0.00    +0.120 A 
BRANCH  18  26
ATOM     25  C   LIG    1        6.056   0.564   6.773  0.00  0.00    +0.250 C 
ATOM     26  O   LIG    1        6.382  -0.040   5.519  0.00  0.00    -0.300 OA
ENDBRANCH  18  26
BRANCH  24  27
ATOM     27  O   LIG    1        6.910  -1.117   3.040  0.00  0.00    -0.300 OA
ATOM     28  C   LIG    1        7.131  -1.628   1.724  0.00  0.00    +0.250 C 
ENDBRANCH  24  27
ENDBRANCH  17  21
ENDBRANCH   1  17
TORSDOF 6
