REMARK  Name = ZINCpe00000yZpZh.0
REMARK                            x       y       z     vdW  Elec       q    Type
REMARK                         _______ _______ _______ _____ _____    ______ ____
ROOT
ATOM      1  C   LIG    1       -1.900  -3.064   0.943  0.00  0.00    +0.060 C 
ATOM      2  C   LIG    1       -2.466  -2.237  -0.213  0.00  0.00    +0.230 C 
ENDROOT
BRANCH   2   3
ATOM      3  N   LIG    1       -2.015  -0.849  -0.087  0.00  0.00    -0.600 N 
ATOM      4  C   LIG    1       -2.918   0.144   0.040  0.00  0.00    +0.560 C 
ATOM      5  O   LIG    1       -4.103  -0.119   0.137  0.00  0.00    -0.510 OA
ATOM      6  C   LIG    1       -0.584  -0.540  -0.098  0.00  0.00    +0.290 C 
BRANCH   4   7
ATOM      7  C   LIG    1       -2.473   1.542   0.061  0.00  0.00    +0.030 A 
ATOM      8  C   LIG    1       -1.963   2.077   1.210  0.00  0.00    +0.080 A 
ATOM      9  C   LIG    1       -1.536   3.409   1.243  0.00  0.00    +0.010 A 
ATOM     10  C   LIG    1       -1.627   4.183   0.124  0.00  0.00    +0.110 A 
ATOM     11  C   LIG    1       -2.151   3.632  -1.059  0.00  0.00    -0.010 A 
ATOM     12  C   LIG    1       -2.373   4.132  -2.328  0.00  0.00    +0.190 A 
ATOM     13  N   LIG    1       -2.898   3.149  -3.057  0.00  0.00    -0.450 NA
ATOM     14  C   LIG    1       -3.019   2.068  -2.326  0.00  0.00    +0.340 A 
ATOM     15  N   LIG    1       -2.576   2.317  -1.081  0.00  0.00    -0.350 N 
ENDBRANCH   4   7
ENDBRANCH   2   3
BRANCH   2  16
ATOM     16  C   LIG    1       -1.974  -2.814  -1.542  0.00  0.00    +0.280 C 
BRANCH  16  17
ATOM     17  N   LIG    1       -2.417  -1.954  -2.642  0.00  0.00    -0.730 N 
ATOM     18  H   LIG    1       -2.940  -1.158  -2.455  0.00  0.00    +0.400 HD
ATOM     19  C   LIG    1       -2.098  -2.267  -3.913  0.00  0.00    +0.500 C 
ATOM     20  O   LIG    1       -1.444  -3.261  -4.147  0.00  0.00    -0.500 OA
BRANCH  19  21
ATOM     21  C   LIG    1       -2.553  -1.382  -5.045  0.00  0.00    +0.370 C 
BRANCH  21  22
ATOM     22  N   LIG    1       -2.082  -1.934  -6.317  0.00  0.00    -0.370 N 
ATOM     23  C   LIG    1       -2.850  -2.238  -7.384  0.00  0.00    +0.220 A 
ATOM     24  C   LIG    1       -2.038  -2.720  -8.353  0.00  0.00    -0.120 A 
ATOM     25  C   LIG    1       -0.729  -2.711  -7.862  0.00  0.00    +0.220 A 
ATOM     26  N   LIG    1       -0.753  -2.235  -6.644  0.00  0.00    -0.270 NA
ENDBRANCH  21  22
ENDBRANCH  19  21
ENDBRANCH  16  17
ENDBRANCH   2  16
TORSDOF 6
