REMARK  Name = ZINCrg00000bI9HL.0
REMARK                            x       y       z     vdW  Elec       q    Type
REMARK                         _______ _______ _______ _____ _____    ______ ____
ROOT
ATOM      1  C   LIG    1        3.747   6.179   0.050  0.00  0.00    +0.270 C 
ATOM      2  C   LIG    1        4.351   6.262   1.420  0.00  0.00    -0.040 C 
ATOM      3  C   LIG    1        4.898   7.323   1.920  0.00  0.00    -0.030 C 
ATOM      4  C   LIG    1        4.986   8.636   1.193  0.00  0.00    +0.320 C 
ATOM      5  N   LIG    1        4.608   8.435  -0.213  0.00  0.00    -0.600 N 
ATOM      6  C   LIG    1        5.302   9.009  -1.216  0.00  0.00    +0.490 C 
ATOM      7  O   LIG    1        5.024   8.756  -2.369  0.00  0.00    -0.520 OA
ATOM      8  C   LIG    1        3.438   7.581  -0.482  0.00  0.00    +0.300 C 
ENDROOT
BRANCH   1  10
ATOM      9  C   LIG    1        2.553   4.055   0.035  0.00  0.00    +0.560 C 
ATOM     10  N   LIG    1        2.508   5.400   0.113  0.00  0.00    -0.720 N 
ATOM     11  H   LIG    1        1.655   5.852   0.210  0.00  0.00    +0.400 HD
ATOM     12  O   LIG    1        3.621   3.489  -0.086  0.00  0.00    -0.520 OA
BRANCH   9  17
ATOM     13  C   LIG    1       -2.320   1.000   0.270  0.00  0.00    +0.110 C 
ATOM     14  C   LIG    1       -1.044   1.799   0.211  0.00  0.00    -0.090 A 
ATOM     15  C   LIG    1       -1.090   3.179   0.297  0.00  0.00    +0.040 A 
ATOM     16  C   LIG    1        0.074   3.917   0.238  0.00  0.00    +0.040 A 
ATOM     17  C   LIG    1        1.302   3.269   0.099  0.00  0.00    -0.120 A 
ATOM     18  C   LIG    1        1.345   1.876   0.019  0.00  0.00    +0.060 A 
ATOM     19  C   LIG    1        0.173   1.148   0.079  0.00  0.00    +0.090 A 
ATOM     20  F   LIG    1        0.211  -0.200   0.002  0.00  0.00    -0.130 F 
ENDBRANCH   9  17
ENDBRANCH   1  10
BRANCH   6  21
ATOM     21  C   LIG    1        6.425   9.965  -0.903  0.00  0.00    +0.310 C 
BRANCH  21  22
ATOM     22  C   LIG    1        5.865  11.199  -0.245  0.00  0.00    +0.040 A 
ATOM     23  C   LIG    1        6.293  11.748   0.916  0.00  0.00    -0.090 A 
ATOM     24  C   LIG    1        5.511  12.880   1.170  0.00  0.00    +0.240 A 
ATOM     25  N   LIG    1        4.641  13.002   0.201  0.00  0.00    -0.280 NA
ATOM     26  N   LIG    1        4.844  11.953  -0.705  0.00  0.00    -0.360 N 
ATOM     27  C   LIG    1        4.083  11.715  -1.934  0.00  0.00    +0.360 C 
ENDBRANCH  21  22
BRANCH  21  28
ATOM     28  O   LIG    1        7.090  10.330  -2.114  0.00  0.00    -0.520 OA
ATOM     29  H   LIG    1        6.503  10.698  -2.790  0.00  0.00    +0.380 HD
ENDBRANCH  21  28
ENDBRANCH   6  21
TORSDOF 5
