REMARK  Name = ZINCpe000000Vhdo.0
REMARK                            x       y       z     vdW  Elec       q    Type
REMARK                         _______ _______ _______ _____ _____    ______ ____
ROOT
ATOM      1  N   LIG    1       -1.191   1.572  -1.367  0.00  0.00    -0.640 NA
ATOM      2  H   LIG    1       -1.333   0.758  -1.947  0.00  0.00    +0.360 HD
ENDROOT
BRANCH   1   3
ATOM      3  C   LIG    1       -2.358   1.819  -0.510  0.00  0.00    +0.200 C 
ATOM      4  C   LIG    1       -3.412   2.599  -1.299  0.00  0.00    +0.060 C 
ATOM      5  C   LIG    1       -4.715   2.606  -0.490  0.00  0.00    +0.040 C 
ATOM      6  C   LIG    1       -5.269   1.182  -0.440  0.00  0.00    +0.260 C 
ATOM      7  N   LIG    1       -4.236   0.248  -0.010  0.00  0.00    -0.510 N 
ATOM      8  C   LIG    1       -2.928   0.507  -0.054  0.00  0.00    +0.490 C 
ATOM      9  O   LIG    1       -2.159  -0.364   0.294  0.00  0.00    -0.540 OA
BRANCH   7  10
ATOM     10  C   LIG    1       -4.644  -1.006   0.483  0.00  0.00    -0.010 A 
ATOM     11  C   LIG    1       -5.916  -1.478   0.511  0.00  0.00    +0.200 A 
ATOM     12  N   LIG    1       -5.880  -2.720   1.061  0.00  0.00    -0.370 N 
ATOM     13  N   LIG    1       -4.548  -3.011   1.379  0.00  0.00    -0.290 NA
ATOM     14  C   LIG    1       -7.032  -3.597   1.284  0.00  0.00    +0.370 C 
ATOM     15  C   LIG    1       -3.808  -1.991   1.028  0.00  0.00    +0.270 A 
ENDBRANCH   7  10
ENDBRANCH   1   3
BRANCH   1  16
ATOM     16  C   LIG    1        0.033   1.439  -0.566  0.00  0.00    +0.210 C 
BRANCH  16  17
ATOM     17  C   LIG    1        0.672   0.102  -0.842  0.00  0.00    +0.460 C 
ATOM     18  O   LIG    1        0.359  -0.525  -1.827  0.00  0.00    -0.500 OA
BRANCH  17  20
ATOM     19  C   LIG    1        2.162  -1.685  -0.324  0.00  0.00    +0.260 C 
ATOM     20  O   LIG    1        1.588  -0.392   0.005  0.00  0.00    -0.350 OA
ENDBRANCH  17  20
ENDBRANCH  16  17
BRANCH  16  21
ATOM     21  C   LIG    1        1.009   2.557  -0.936  0.00  0.00    +0.140 C 
BRANCH  21  22
ATOM     22  C   LIG    1        0.420   3.888  -0.546  0.00  0.00    -0.170 A 
ATOM     23  C   LIG    1       -0.350   4.679  -1.314  0.00  0.00    +0.180 A 
ATOM     24  O   LIG    1       -0.674   5.773  -0.605  0.00  0.00    -0.180 OA
ATOM     25  C   LIG    1       -0.113   5.700   0.613  0.00  0.00    +0.160 A 
ATOM     26  C   LIG    1        0.575   4.547   0.695  0.00  0.00    -0.060 A 
ENDBRANCH  21  22
ENDBRANCH  16  21
ENDBRANCH   1  16
TORSDOF 7
