REMARK  Name = ZINCrg00000J2Tni.0
REMARK                            x       y       z     vdW  Elec       q    Type
REMARK                         _______ _______ _______ _____ _____    ______ ____
ROOT
ATOM      1  C   LIG    1       -2.130   4.449  -8.755  0.00  0.00    +0.520 C 
ATOM      2  N   LIG    1       -2.483   4.959  -7.559  0.00  0.00    -0.730 N 
ATOM      3  H   LIG    1       -3.381   5.298  -7.421  0.00  0.00    +0.400 HD
ATOM      4  O   LIG    1       -1.007   4.025  -8.927  0.00  0.00    -0.510 OA
ENDROOT
BRANCH   1   5
ATOM      5  C   LIG    1       -3.131   4.407  -9.881  0.00  0.00    +0.250 C 
BRANCH   5   6
ATOM      6  O   LIG    1       -2.514   3.818 -11.056  0.00  0.00    -0.330 OA
BRANCH   6   7
ATOM      7  C   LIG    1       -3.281   3.706 -12.159  0.00  0.00    +0.530 C 
ATOM      8  O   LIG    1       -4.434   4.090 -12.139  0.00  0.00    -0.520 OA
BRANCH   7  15
ATOM      9  C   LIG    1       -3.476   3.107 -14.572  0.00  0.00    +0.290 A 
ATOM     10  C   LIG    1       -2.935   2.555 -15.726  0.00  0.00    -0.060 A 
ATOM     11  C   LIG    1       -1.666   2.010 -15.703  0.00  0.00    +0.050 A 
ATOM     12  C   LIG    1       -0.921   2.014 -14.533  0.00  0.00    -0.040 A 
ATOM     13  C   LIG    1       -1.439   2.562 -13.380  0.00  0.00    +0.150 A 
ATOM     14 CL   LIG    1       -1.000   1.315 -17.148  0.00  0.00    -0.060 Cl
ATOM     15  C   LIG    1       -2.721   3.118 -13.387  0.00  0.00    -0.210 A 
BRANCH   9  16
ATOM     16  N   LIG    1       -4.753   3.651 -14.591  0.00  0.00    -0.850 N 
ATOM     17  H   LIG    1       -5.392   3.365 -15.263  0.00  0.00    +0.400 HD
ATOM     18  H   LIG    1       -5.007   4.316 -13.932  0.00  0.00    +0.420 HD
ENDBRANCH   9  16
ENDBRANCH   7  15
ENDBRANCH   6   7
ENDBRANCH   5   6
ENDBRANCH   1   5
BRANCH   2  19
ATOM     19  C   LIG    1       -1.510   5.000  -6.464  0.00  0.00    +0.290 C 
BRANCH  19  20
ATOM     20  C   LIG    1       -2.160   5.621  -5.226  0.00  0.00    +0.080 C 
BRANCH  20  21
ATOM     21  C   LIG    1       -1.159   5.663  -4.101  0.00  0.00    -0.020 A 
ATOM     22  C   LIG    1       -0.344   6.769  -3.942  0.00  0.00    +0.010 A 
ATOM     23  C   LIG    1        0.574   6.808  -2.909  0.00  0.00    +0.140 A 
ATOM     24  C   LIG    1        0.678   5.742  -2.036  0.00  0.00    -0.680 A 
ATOM     25  C   LIG    1       -0.133   4.634  -2.198  0.00  0.00    +0.140 A 
ATOM     26  C   LIG    1       -1.055   4.597  -3.228  0.00  0.00    +0.010 A 
BRANCH  24  27
ATOM     27  S   LIG    1        1.849   5.792  -0.720  0.00  0.00    +2.700 S 
ATOM     28  O   LIG    1        2.860   6.708  -1.117  0.00  0.00    -0.960 OA
ATOM     29  O   LIG    1        2.118   4.441  -0.371  0.00  0.00    -0.960 OA
BRANCH  27  30
ATOM     30  N   LIG    1        1.089   6.470   0.586  0.00  0.00    -1.250 NA
ATOM     31  H   LIG    1        0.163   6.750   0.517  0.00  0.00    +0.420 HD
ATOM     32  H   LIG    1        1.571   6.587   1.420  0.00  0.00    +0.420 HD
ENDBRANCH  27  30
ENDBRANCH  24  27
ENDBRANCH  20  21
ENDBRANCH  19  20
ENDBRANCH   2  19
TORSDOF 10
