REMARK  Name = ZINCpk00000eb3mI.0
REMARK                            x       y       z     vdW  Elec       q    Type
REMARK                         _______ _______ _______ _____ _____    ______ ____
ROOT
ATOM      1  C   LIG    1       -3.152   8.567   4.136  0.00  0.00    +0.600 C 
ATOM      2  N   LIG    1       -3.199   7.742   3.071  0.00  0.00    -0.710 N 
ATOM      3  H   LIG    1       -4.005   7.690   2.534  0.00  0.00    +0.410 HD
ATOM      4  O   LIG    1       -2.143   8.633   4.810  0.00  0.00    -0.500 OA
ENDROOT
BRANCH   1  12
ATOM      5  C   LIG    1       -8.354  10.101   3.017  0.00  0.00    +0.140 C 
ATOM      6  C   LIG    1       -7.627  10.699   4.194  0.00  0.00    +0.140 A 
ATOM      7  C   LIG    1       -8.250  11.609   4.971  0.00  0.00    +0.000 A 
ATOM      8  C   LIG    1       -7.588  12.178   6.072  0.00  0.00    +0.070 A 
ATOM      9  C   LIG    1       -6.310  11.806   6.354  0.00  0.00    +0.040 A 
ATOM     10  C   LIG    1       -5.673  10.854   5.532  0.00  0.00    +0.100 A 
ATOM     11  C   LIG    1       -4.412  10.281   5.561  0.00  0.00    -0.050 A 
ATOM     12  C   LIG    1       -4.328   9.393   4.484  0.00  0.00    +0.060 A 
ATOM     13  N   LIG    1       -5.481   9.410   3.831  0.00  0.00    -0.290 NA
ATOM     14  N   LIG    1       -6.344  10.315   4.462  0.00  0.00    -0.260 N 
ENDBRANCH   1  12
BRANCH   2  15
ATOM     15  C   LIG    1       -2.034   6.924   2.726  0.00  0.00    +0.260 C 
ATOM     16  C   LIG    1       -2.095   6.488   1.242  0.00  0.00    +0.050 C 
ATOM     17  C   LIG    1       -1.208   5.218   1.222  0.00  0.00    +0.000 C 
ATOM     18  C   LIG    1       -1.529   4.512   2.556  0.00  0.00    +0.000 C 
ATOM     19  C   LIG    1       -2.054   5.597   3.512  0.00  0.00    +0.150 C 
BRANCH  19  20
ATOM     20  O   LIG    1       -1.205   5.692   4.658  0.00  0.00    -0.550 OA
ATOM     21  H   LIG    1       -1.159   4.881   5.182  0.00  0.00    +0.380 HD
ENDBRANCH  19  20
BRANCH  17  22
ATOM     22  C   LIG    1       -1.581   4.322   0.039  0.00  0.00    +0.330 C 
BRANCH  22  23
ATOM     23  N   LIG    1       -0.711   3.144   0.025  0.00  0.00    -0.370 N 
ATOM     24  C   LIG    1       -1.117   1.857   0.017  0.00  0.00    +0.220 A 
ATOM     25  C   LIG    1       -0.013   1.076   0.008  0.00  0.00    -0.120 A 
ATOM     26  C   LIG    1        1.107   1.914   0.002  0.00  0.00    +0.220 A 
ATOM     27  N   LIG    1        0.690   3.154   0.012  0.00  0.00    -0.290 NA
ENDBRANCH  22  23
ENDBRANCH  17  22
ENDBRANCH   2  15
TORSDOF 5
