REMARK  Name = ZINCrH000004r78E.0
REMARK                            x       y       z     vdW  Elec       q    Type
REMARK                         _______ _______ _______ _____ _____    ______ ____
ROOT
ATOM      1  C   LIG    1        1.442   4.685  -1.259  0.00  0.00    +0.520 C 
ATOM      2  N   LIG    1        1.306   5.996  -1.536  0.00  0.00    -0.660 N 
ATOM      3  H   LIG    1        0.425   6.403  -1.538  0.00  0.00    +0.430 HD
ATOM      4  O   LIG    1        2.548   4.194  -1.176  0.00  0.00    -0.520 OA
ENDROOT
BRANCH   2   5
ATOM      5  C   LIG    1        2.430   6.768  -1.821  0.00  0.00    +0.220 A 
ATOM      6  C   LIG    1        3.562   6.178  -2.366  0.00  0.00    +0.010 A 
ATOM      7  C   LIG    1        4.675   6.945  -2.647  0.00  0.00    +0.060 A 
ATOM      8  C   LIG    1        4.672   8.306  -2.388  0.00  0.00    -0.020 A 
ATOM      9  C   LIG    1        3.558   8.909  -1.846  0.00  0.00    +0.070 A 
ATOM     10  C   LIG    1        2.422   8.148  -1.562  0.00  0.00    -0.180 A 
BRANCH  10  11
ATOM     11  C   LIG    1        1.223   8.788  -0.989  0.00  0.00    +0.570 C 
ATOM     12  N   LIG    1        1.173  10.128  -0.857  0.00  0.00    -0.700 N 
ATOM     13  H   LIG    1        1.925  10.672  -1.140  0.00  0.00    +0.400 HD
ATOM     14  O   LIG    1        0.281   8.106  -0.634  0.00  0.00    -0.540 OA
BRANCH  12  15
ATOM     15  C   LIG    1       -0.018  10.764  -0.287  0.00  0.00    +0.220 C 
ATOM     16  C   LIG    1       -0.547  12.021  -0.981  0.00  0.00    +0.010 C 
ATOM     17  C   LIG    1        0.160  12.133   0.372  0.00  0.00    +0.020 C 
ENDBRANCH  12  15
ENDBRANCH  10  11
ENDBRANCH   2   5
BRANCH   1  18
ATOM     18  C   LIG    1        0.220   3.828  -1.051  0.00  0.00    +0.090 C 
BRANCH  18  19
ATOM     19  C   LIG    1        0.650   2.390  -0.752  0.00  0.00    +0.070 C 
BRANCH  19  20
ATOM     20  C   LIG    1       -0.572   1.533  -0.544  0.00  0.00    +0.400 C 
ATOM     21  O   LIG    1       -1.677   2.023  -0.631  0.00  0.00    -0.450 OA
BRANCH  20  27
ATOM     22  C   LIG    1        2.328  -2.493  -0.053  0.00  0.00    +0.090 C 
ATOM     23  C   LIG    1        0.970  -1.843  -0.002  0.00  0.00    -0.110 A 
ATOM     24  C   LIG    1       -0.143  -2.595   0.331  0.00  0.00    +0.050 A 
ATOM     25  C   LIG    1       -1.395  -2.008   0.379  0.00  0.00    +0.000 A 
ATOM     26  C   LIG    1       -1.542  -0.665   0.102  0.00  0.00    -0.030 A 
ATOM     27  C   LIG    1       -0.423   0.101  -0.240  0.00  0.00    -0.170 A 
ATOM     28  C   LIG    1       -2.905  -0.026   0.162  0.00  0.00    +0.110 C 
ATOM     29  C   LIG    1        0.839  -0.500  -0.287  0.00  0.00    +0.060 A 
ENDBRANCH  20  27
ENDBRANCH  19  20
ENDBRANCH  18  19
ENDBRANCH   1  18
TORSDOF 7
