REMARK  Name = ZINCpe000000Z9dO.0
REMARK                            x       y       z     vdW  Elec       q    Type
REMARK                         _______ _______ _______ _____ _____    ______ ____
ROOT
ATOM      1  C   LIG    1       -4.891   6.834  -2.148  0.00  0.00    -0.040 A 
ATOM      2  C   LIG    1       -4.555   7.800  -1.199  0.00  0.00    +0.040 A 
ATOM      3  C   LIG    1       -5.054   9.081  -1.317  0.00  0.00    +0.060 A 
ATOM      4  C   LIG    1       -5.887   9.408  -2.372  0.00  0.00    +0.030 A 
ATOM      5  C   LIG    1       -6.224   8.455  -3.316  0.00  0.00    +0.110 A 
ATOM      6  C   LIG    1       -5.728   7.172  -3.214  0.00  0.00    -0.620 A 
ENDROOT
BRANCH   1   8
ATOM      7  O   LIG    1       -4.748   4.590  -2.784  0.00  0.00    -0.510 OA
ATOM      8  C   LIG    1       -4.360   5.460  -2.029  0.00  0.00    +0.550 C 
ATOM      9  N   LIG    1       -3.444   5.171  -1.083  0.00  0.00    -0.720 N 
ATOM     10  H   LIG    1       -3.134   5.865  -0.480  0.00  0.00    +0.400 HD
BRANCH   9  11
ATOM     11  C   LIG    1       -2.917   3.809  -0.965  0.00  0.00    +0.280 C 
BRANCH  11  12
ATOM     12  C   LIG    1       -1.902   3.752   0.178  0.00  0.00    +0.330 C 
BRANCH  12  13
ATOM     13  N   LIG    1       -1.375   2.391   0.296  0.00  0.00    -0.380 N 
ATOM     14  C   LIG    1       -0.083   2.022   0.269  0.00  0.00    +0.480 A 
ATOM     15  N   LIG    1       -0.029   0.721   0.405  0.00  0.00    -0.540 NA
ATOM     16  C   LIG    1       -1.261   0.228   0.522  0.00  0.00    +0.420 A 
ATOM     17  N   LIG    1       -2.120   1.211   0.456  0.00  0.00    -0.310 NA
ENDBRANCH  12  13
ENDBRANCH  11  12
ENDBRANCH   9  11
ENDBRANCH   1   8
BRANCH   6  18
ATOM     18  S   LIG    1       -6.152   5.962  -4.421  0.00  0.00    +2.700 S 
ATOM     19  O   LIG    1       -7.165   5.152  -3.839  0.00  0.00    -0.940 OA
ATOM     20  O   LIG    1       -4.926   5.438  -4.914  0.00  0.00    -0.930 OA
BRANCH  18  21
ATOM     21  N   LIG    1       -6.862   6.760  -5.687  0.00  0.00    -1.010 NA
ATOM     22  C   LIG    1       -8.325   6.852  -5.788  0.00  0.00    +0.290 C 
ATOM     23  C   LIG    1       -8.712   8.331  -5.936  0.00  0.00    -0.000 C 
ATOM     24  C   LIG    1       -7.961   8.932  -7.127  0.00  0.00    +0.020 C 
ATOM     25  C   LIG    1       -6.454   8.852  -6.874  0.00  0.00    +0.010 C 
ATOM     26  C   LIG    1       -6.041   7.384  -6.734  0.00  0.00    +0.290 C 
ENDBRANCH  18  21
ENDBRANCH   6  18
TORSDOF 6
