REMARK  Name = ZINCnE000001TCH7.0
REMARK                            x       y       z     vdW  Elec       q    Type
REMARK                         _______ _______ _______ _____ _____    ______ ____
ROOT
ATOM      1  C   LIG    1        3.015   2.628   3.524  0.00  0.00    -0.150 A 
ATOM      2  C   LIG    1        2.122   3.584   4.011  0.00  0.00    +0.120 A 
ATOM      3  C   LIG    1        1.030   3.962   3.254  0.00  0.00    -0.140 A 
ATOM      4  C   LIG    1        0.823   3.398   2.007  0.00  0.00    -0.010 A 
ATOM      5  C   LIG    1        1.705   2.444   1.520  0.00  0.00    -0.670 A 
ATOM      6  C   LIG    1       -0.433   3.974   1.388  0.00  0.00    +0.070 C 
ATOM      7  C   LIG    1       -1.200   4.625   2.558  0.00  0.00    +0.040 C 
ATOM      8  C   LIG    1       -0.068   4.962   3.551  0.00  0.00    +0.070 C 
ATOM      9  C   LIG    1        2.797   2.058   2.266  0.00  0.00    +0.170 A 
ENDROOT
BRANCH   1  11
ATOM     10  O   LIG    1        4.960   1.383   3.900  0.00  0.00    -0.680 OA
ATOM     11  C   LIG    1        4.181   2.221   4.331  0.00  0.00    +0.520 C 
ATOM     12  O   LIG    1        4.368   2.722   5.430  0.00  0.00    -0.680 OA
ENDBRANCH   1  11
BRANCH   5  13
ATOM     13  S   LIG    1        1.430   1.726  -0.065  0.00  0.00    +2.690 S 
ATOM     14  O   LIG    1        2.516   0.840  -0.298  0.00  0.00    -0.950 OA
ATOM     15  O   LIG    1        0.070   1.313  -0.088  0.00  0.00    -0.950 OA
BRANCH  13  16
ATOM     16  N   LIG    1        1.569   2.940  -1.183  0.00  0.00    -1.050 N 
ATOM     17  H   LIG    1        0.818   3.158  -1.758  0.00  0.00    +0.430 HD
BRANCH  16  18
ATOM     18  C   LIG    1        2.769   3.645  -1.303  0.00  0.00    +0.190 A 
ATOM     19  C   LIG    1        3.981   2.992  -1.121  0.00  0.00    +0.010 A 
ATOM     20  C   LIG    1        5.166   3.692  -1.240  0.00  0.00    +0.070 A 
ATOM     21  C   LIG    1        5.146   5.042  -1.541  0.00  0.00    +0.000 A 
ATOM     22  C   LIG    1        3.941   5.696  -1.723  0.00  0.00    +0.070 A 
ATOM     23  C   LIG    1        2.753   5.000  -1.611  0.00  0.00    -0.120 A 
ATOM     24 BR   LIG    1        1.105   5.893  -1.868  0.00  0.00    -0.050 Br
ENDBRANCH  16  18
ENDBRANCH  13  16
ENDBRANCH   5  13
TORSDOF 4
