REMARK  Name = ZINCqH000000656g.0
REMARK                            x       y       z     vdW  Elec       q    Type
REMARK                         _______ _______ _______ _____ _____    ______ ____
ROOT
ATOM      1  N   LIG    1       -0.561   1.292  -2.924  0.00  0.00    -0.690 N 
ATOM      2  H   LIG    1       -0.561   0.330  -3.052  0.00  0.00    +0.410 HD
ENDROOT
BRANCH   1   3
ATOM      3  C   LIG    1        0.557   2.035  -3.258  0.00  0.00    +0.610 A 
ATOM      4  N   LIG    1        1.619   1.417  -3.751  0.00  0.00    -0.610 NA
ATOM      5  C   LIG    1        2.709   2.103  -4.082  0.00  0.00    +0.480 A 
ATOM      6  C   LIG    1        2.719   3.488  -3.902  0.00  0.00    -0.150 A 
ATOM      7  C   LIG    1        1.590   4.093  -3.384  0.00  0.00    +0.160 A 
ATOM      8  N   LIG    1        0.537   3.348  -3.081  0.00  0.00    -0.570 NA
BRANCH   7   9
ATOM      9  C   LIG    1        1.554   5.584  -3.172  0.00  0.00    +0.530 C 
ATOM     10  F   LIG    1        2.846   6.047  -2.898  0.00  0.00    -0.170 F 
ATOM     11  F   LIG    1        0.714   5.882  -2.095  0.00  0.00    -0.160 F 
ATOM     12  F   LIG    1        1.071   6.208  -4.327  0.00  0.00    -0.170 F 
ENDBRANCH   7   9
BRANCH   5  13
ATOM     13  N   LIG    1        3.819   1.454  -4.598  0.00  0.00    -0.600 N 
ATOM     14  C   LIG    1        3.760   0.018  -4.885  0.00  0.00    +0.300 C 
ATOM     15  C   LIG    1        5.051   2.202  -4.856  0.00  0.00    +0.310 C 
ENDBRANCH   5  13
ENDBRANCH   1   3
BRANCH   1  16
ATOM     16  C   LIG    1       -1.749   1.958  -2.382  0.00  0.00    +0.290 C 
BRANCH  16  17
ATOM     17  C   LIG    1       -2.836   0.917  -2.106  0.00  0.00    -0.080 C 
ATOM     18  C   LIG    1       -2.317  -0.105  -1.093  0.00  0.00    +0.020 C 
ATOM     19  C   LIG    1       -3.201   0.203  -3.409  0.00  0.00    +0.020 C 
BRANCH  17  20
ATOM     20  C   LIG    1       -4.076   1.613  -1.540  0.00  0.00    +0.040 C 
BRANCH  20  21
ATOM     21  C   LIG    1       -5.163   0.572  -1.264  0.00  0.00    +0.020 C 
BRANCH  21  22
ATOM     22  C   LIG    1       -6.402   1.268  -0.699  0.00  0.00    +0.050 C 
BRANCH  22  23
ATOM     23  C   LIG    1       -7.490   0.227  -0.423  0.00  0.00    +0.300 C 
BRANCH  23  25
ATOM     24  C   LIG    1       -7.657  -1.952   0.562  0.00  0.00    +0.200 C 
ATOM     25  O   LIG    1       -7.050  -0.659   0.609  0.00  0.00    -0.390 OA
ENDBRANCH  23  25
BRANCH  23  26
ATOM     26  O   LIG    1       -8.686   0.887  -0.005  0.00  0.00    -0.390 OA
ATOM     27  C   LIG    1       -9.847   0.054  -0.022  0.00  0.00    +0.200 C 
ENDBRANCH  23  26
ENDBRANCH  22  23
ENDBRANCH  21  22
ENDBRANCH  20  21
ENDBRANCH  17  20
ENDBRANCH  16  17
ENDBRANCH   1  16
TORSDOF 11
