REMARK  Name = ZINCrD00000hQ4xU.0
REMARK                            x       y       z     vdW  Elec       q    Type
REMARK                         _______ _______ _______ _____ _____    ______ ____
ROOT
ATOM      1  C   LIG    1       -3.000   0.346  -3.783  0.00  0.00    -0.140 A 
ATOM      2  C   LIG    1       -2.346  -0.869  -3.992  0.00  0.00    +0.070 A 
ATOM      3  C   LIG    1       -2.732  -1.694  -5.030  0.00  0.00    +0.020 A 
ATOM      4  C   LIG    1       -3.765  -1.321  -5.868  0.00  0.00    +0.100 A 
ATOM      5  C   LIG    1       -4.425  -0.109  -5.671  0.00  0.00    -0.040 A 
ATOM      6  C   LIG    1       -4.047   0.724  -4.623  0.00  0.00    +0.130 A 
ENDROOT
BRANCH   5   7
ATOM      7  C   LIG    1       -5.534   0.289  -6.574  0.00  0.00    +0.220 A 
ATOM      8  N   LIG    1       -6.234   1.391  -6.503  0.00  0.00    -0.340 NA
ATOM      9  O   LIG    1       -7.065   1.414  -7.387  0.00  0.00    +0.130 OA
ATOM     10  C   LIG    1       -6.976   0.305  -8.127  0.00  0.00    +0.090 A 
ATOM     11  N   LIG    1       -6.005  -0.417  -7.626  0.00  0.00    -0.410 NA
BRANCH  10  12
ATOM     12  C   LIG    1       -7.829  -0.047  -9.319  0.00  0.00    +0.590 C 
ATOM     13  F   LIG    1       -7.090  -0.837 -10.205  0.00  0.00    -0.140 F 
ATOM     14  F   LIG    1       -8.232   1.126  -9.966  0.00  0.00    -0.150 F 
ATOM     15  F   LIG    1       -8.957  -0.755  -8.892  0.00  0.00    -0.150 F 
ENDBRANCH  10  12
ENDBRANCH   5   7
BRANCH   1  17
ATOM     16  O   LIG    1       -3.158   2.287  -2.491  0.00  0.00    -0.530 OA
ATOM     17  C   LIG    1       -2.587   1.229  -2.671  0.00  0.00    +0.560 C 
ATOM     18  N   LIG    1       -1.579   0.860  -1.857  0.00  0.00    -0.720 N 
ATOM     19  H   LIG    1       -1.123   0.016  -2.001  0.00  0.00    +0.400 HD
BRANCH  18  20
ATOM     20  C   LIG    1       -1.169   1.734  -0.755  0.00  0.00    +0.290 C 
BRANCH  20  21
ATOM     21  C   LIG    1       -0.013   1.086   0.008  0.00  0.00    -0.050 C 
ATOM     22  C   LIG    1        1.335   1.811  -0.001  0.00  0.00    +0.040 C 
ATOM     23  C   LIG    1        0.486   1.791   1.268  0.00  0.00    -0.110 C 
ATOM     24  C   LIG    1        0.961   0.919   2.435  0.00  0.00    +0.040 C 
ATOM     25  C   LIG    1       -0.209   0.728   3.407  0.00  0.00    +0.210 C 
ATOM     26  O   LIG    1       -0.726   2.007   3.782  0.00  0.00    -0.380 OA
ATOM     27  C   LIG    1       -1.302   2.751   2.707  0.00  0.00    +0.210 C 
ATOM     28  C   LIG    1       -0.212   3.091   1.683  0.00  0.00    +0.040 C 
ENDBRANCH  20  21
ENDBRANCH  18  20
ENDBRANCH   1  17
TORSDOF 5
