REMARK  Name = ZINCrD0000074yHc.0
REMARK                            x       y       z     vdW  Elec       q    Type
REMARK                         _______ _______ _______ _____ _____    ______ ____
ROOT
ATOM      1  O   LIG    1       -1.360  -0.507   0.012  0.00  0.00    -0.330 OA
ENDROOT
BRANCH   1   2
ATOM      2  C   LIG    1       -1.920  -0.724   1.213  0.00  0.00    +0.440 C 
ATOM      3  O   LIG    1       -1.293  -0.502   2.221  0.00  0.00    -0.480 OA
BRANCH   2   4
ATOM      4  C   LIG    1       -3.332  -1.245   1.302  0.00  0.00    +0.390 C 
BRANCH   4  14
ATOM      5  C   LIG    1       -2.912  -3.809   2.947  0.00  0.00    +0.140 C 
ATOM      6  C   LIG    1       -3.527  -2.531   3.454  0.00  0.00    +0.090 A 
ATOM      7  C   LIG    1       -3.977  -2.334   4.704  0.00  0.00    -0.040 A 
ATOM      8  C   LIG    1       -4.496  -0.965   4.762  0.00  0.00    -0.100 A 
ATOM      9  C   LIG    1       -5.086  -0.194   5.764  0.00  0.00    +0.050 A 
ATOM     10  C   LIG    1       -5.473   1.089   5.493  0.00  0.00    -0.020 A 
ATOM     11  C   LIG    1       -5.283   1.631   4.230  0.00  0.00    +0.030 A 
ATOM     12  C   LIG    1       -4.702   0.886   3.226  0.00  0.00    -0.010 A 
ATOM     13  C   LIG    1       -4.301  -0.421   3.479  0.00  0.00    +0.100 A 
ATOM     14  N   LIG    1       -3.708  -1.397   2.710  0.00  0.00    -0.470 N 
ENDBRANCH   4  14
ENDBRANCH   2   4
ENDBRANCH   1   2
BRANCH   1  15
ATOM     15  C   LIG    1        0.002  -0.004   0.002  0.00  0.00    +0.180 C 
ATOM     16  C   LIG    1       -0.019   1.526   0.010  0.00  0.00    +0.070 C 
BRANCH  15  17
ATOM     17  C   LIG    1        0.707  -0.490  -1.238  0.00  0.00    +0.520 C 
ATOM     18  N   LIG    1        2.018  -0.231  -1.413  0.00  0.00    -0.720 N 
ATOM     19  H   LIG    1        2.508   0.269  -0.741  0.00  0.00    +0.400 HD
ATOM     20  O   LIG    1        0.095  -1.114  -2.078  0.00  0.00    -0.510 OA
BRANCH  18  21
ATOM     21  C   LIG    1        2.704  -0.703  -2.618  0.00  0.00    +0.320 C 
BRANCH  21  22
ATOM     22  C   LIG    1        4.151  -0.285  -2.569  0.00  0.00    -0.130 A 
ATOM     23  C   LIG    1        4.539   0.926  -3.110  0.00  0.00    +0.070 A 
ATOM     24  C   LIG    1        5.864   1.313  -3.061  0.00  0.00    -0.020 A 
ATOM     25  C   LIG    1        6.807   0.482  -2.480  0.00  0.00    +0.110 A 
ATOM     26  C   LIG    1        6.418  -0.734  -1.944  0.00  0.00    -0.020 A 
ATOM     27  F   LIG    1        8.104   0.856  -2.437  0.00  0.00    -0.140 F 
ATOM     28  C   LIG    1        5.091  -1.116  -1.989  0.00  0.00    +0.070 A 
ENDBRANCH  21  22
ENDBRANCH  18  21
ENDBRANCH  15  17
ENDBRANCH   1  15
TORSDOF 7
