REMARK  Name = ZINCqH0000000pa0.0
REMARK                            x       y       z     vdW  Elec       q    Type
REMARK                         _______ _______ _______ _____ _____    ______ ____
ROOT
ATOM      1  N   LIG    1       -4.048   1.052  -1.595  0.00  0.00    -0.670 N 
ATOM      2  H   LIG    1       -4.730   0.820  -0.945  0.00  0.00    +0.410 HD
ATOM      3  C   LIG    1       -2.744   0.953  -1.268  0.00  0.00    +0.520 C 
ATOM      4  O   LIG    1       -1.892   1.165  -2.105  0.00  0.00    -0.500 OA
ENDROOT
BRANCH   1  11
ATOM      5  C   LIG    1       -8.980   4.804  -5.143  0.00  0.00    +0.110 C 
ATOM      6  C   LIG    1       -7.714   4.007  -5.322  0.00  0.00    +0.520 C 
ATOM      7  N   LIG    1       -7.111   3.450  -4.252  0.00  0.00    -0.560 N 
ATOM      8  C   LIG    1       -7.591   3.551  -2.871  0.00  0.00    +0.280 C 
ATOM      9  C   LIG    1       -6.573   2.760  -2.033  0.00  0.00    +0.100 C 
ATOM     10  C   LIG    1       -5.565   2.251  -3.039  0.00  0.00    -0.170 A 
ATOM     11  C   LIG    1       -4.418   1.488  -2.872  0.00  0.00    +0.190 A 
ATOM     12  C   LIG    1       -3.641   1.152  -3.973  0.00  0.00    +0.000 A 
ATOM     13  C   LIG    1       -4.011   1.586  -5.231  0.00  0.00    +0.050 A 
ATOM     14  C   LIG    1       -5.148   2.350  -5.398  0.00  0.00    +0.000 A 
ATOM     15  C   LIG    1       -5.936   2.693  -4.298  0.00  0.00    +0.160 A 
ATOM     16  O   LIG    1       -7.236   3.867  -6.428  0.00  0.00    -0.520 OA
ENDBRANCH   1  11
BRANCH   3  17
ATOM     17  C   LIG    1       -2.346   0.581   0.136  0.00  0.00    +0.110 C 
BRANCH  17  18
ATOM     18  C   LIG    1       -0.843   0.540   0.238  0.00  0.00    -0.020 A 
ATOM     19  C   LIG    1       -0.172  -0.658   0.077  0.00  0.00    +0.020 A 
ATOM     20  C   LIG    1        1.207  -0.697   0.176  0.00  0.00    +0.050 A 
ATOM     21  C   LIG    1        1.914   0.463   0.430  0.00  0.00    +0.020 A 
ATOM     22  C   LIG    1        1.244   1.662   0.585  0.00  0.00    +0.070 A 
ATOM     23  C   LIG    1       -0.135   1.701   0.486  0.00  0.00    -0.170 A 
BRANCH  23  24
ATOM     24  C   LIG    1       -0.866   3.008   0.656  0.00  0.00    +0.500 C 
ATOM     25  F   LIG    1       -1.752   2.910   1.734  0.00  0.00    -0.180 F 
ATOM     26  F   LIG    1       -1.581   3.297  -0.511  0.00  0.00    -0.170 F 
ATOM     27  F   LIG    1        0.057   4.030   0.903  0.00  0.00    -0.180 F 
ENDBRANCH  23  24
ENDBRANCH  17  18
ENDBRANCH   3  17
TORSDOF 4
