REMARK  Name = ZINCqH00000323Pe.0
REMARK                            x       y       z     vdW  Elec       q    Type
REMARK                         _______ _______ _______ _____ _____    ______ ____
ROOT
ATOM      1  C   LIG    1       -2.686   0.988   0.291  0.00  0.00    +0.620 C 
ATOM      2  N   LIG    1       -3.510   2.047   0.169  0.00  0.00    -0.600 N 
ATOM      3  C   LIG    1       -3.110   3.463   0.259  0.00  0.00    +0.290 C 
ATOM      4  C   LIG    1       -4.198   4.232  -0.535  0.00  0.00    +0.050 C 
ATOM      5  C   LIG    1       -5.475   3.433  -0.163  0.00  0.00    +0.070 C 
ATOM      6  C   LIG    1       -4.960   1.982  -0.070  0.00  0.00    +0.180 C 
ATOM      7  O   LIG    1       -3.139  -0.140   0.281  0.00  0.00    -0.500 OA
ENDROOT
BRANCH   6   8
ATOM      8  C   LIG    1       -5.233   1.257  -1.363  0.00  0.00    -0.100 A 
ATOM      9  C   LIG    1       -4.186   0.908  -2.195  0.00  0.00    +0.040 A 
ATOM     10  C   LIG    1       -4.437   0.239  -3.378  0.00  0.00    +0.000 A 
ATOM     11  C   LIG    1       -5.736  -0.072  -3.734  0.00  0.00    +0.010 A 
ATOM     12  C   LIG    1       -6.783   0.281  -2.905  0.00  0.00    +0.010 A 
ATOM     13  C   LIG    1       -6.532   0.946  -1.719  0.00  0.00    +0.030 A 
ENDBRANCH   6   8
BRANCH   1  16
ATOM     14  N   LIG    1        0.903   0.828   0.669  0.00  0.00    -0.350 N 
ATOM     15  C   LIG    1       -0.293   0.215   0.569  0.00  0.00    +0.300 A 
ATOM     16  C   LIG    1       -1.233   1.198   0.437  0.00  0.00    -0.100 A 
ATOM     17  N   LIG    1       -0.610   2.388   0.466  0.00  0.00    -0.210 NA
ATOM     18  N   LIG    1        0.658   2.207   0.599  0.00  0.00    -0.060 NA
BRANCH  14  20
ATOM     19  C   LIG    1        2.634  -0.426  -0.519  0.00  0.00    +0.070 C 
ATOM     20  C   LIG    1        2.207   0.179   0.820  0.00  0.00    +0.170 C 
ATOM     21  C   LIG    1        2.107  -0.928   1.871  0.00  0.00    +0.070 C 
ATOM     22  C   LIG    1        3.243   1.214   1.266  0.00  0.00    +0.080 C 
ENDBRANCH  14  20
ENDBRANCH   1  16
BRANCH   6  23
ATOM     23  C   LIG    1       -5.646   1.256   1.089  0.00  0.00    +0.440 C 
ATOM     24  F   LIG    1       -5.160  -0.053   1.172  0.00  0.00    -0.150 F 
ATOM     25  F   LIG    1       -7.027   1.227   0.869  0.00  0.00    -0.180 F 
ATOM     26  F   LIG    1       -5.378   1.930   2.285  0.00  0.00    -0.180 F 
ENDBRANCH   6  23
TORSDOF 4
