REMARK  Name = ZINCqH0000051jSC.0
REMARK                            x       y       z     vdW  Elec       q    Type
REMARK                         _______ _______ _______ _____ _____    ______ ____
ROOT
ATOM      1  C   LIG    1       -1.127  -2.163   0.018  0.00  0.00    +0.290 C 
ENDROOT
BRANCH   1   2
ATOM      2  C   LIG    1       -2.562  -2.693   0.015  0.00  0.00    +0.000 C 
ATOM      3  C   LIG    1       -3.283  -2.343   1.338  0.00  0.00    +0.080 C 
ATOM      4  C   LIG    1       -4.143  -3.555   1.623  0.00  0.00    +0.520 C 
ATOM      5  N   LIG    1       -3.731  -4.598   0.882  0.00  0.00    -0.560 N 
ATOM      6  O   LIG    1       -5.068  -3.582   2.407  0.00  0.00    -0.500 OA
ATOM      7  C   LIG    1       -2.581  -4.237   0.045  0.00  0.00    +0.290 C 
BRANCH   5   8
ATOM      8  C   LIG    1       -4.323  -5.867   0.906  0.00  0.00    +0.170 A 
ATOM      9  C   LIG    1       -5.328  -6.148   1.822  0.00  0.00    +0.020 A 
ATOM     10  C   LIG    1       -5.914  -7.398   1.840  0.00  0.00    +0.060 A 
ATOM     11  C   LIG    1       -5.493  -8.374   0.954  0.00  0.00    -0.060 A 
ATOM     12  C   LIG    1       -4.488  -8.098   0.043  0.00  0.00    +0.060 A 
ATOM     13 CL   LIG    1       -6.227  -9.947   0.983  0.00  0.00    -0.070 Cl
ATOM     14  C   LIG    1       -3.902  -6.847   0.017  0.00  0.00    -0.010 A 
ENDBRANCH   5   8
ENDBRANCH   1   2
BRANCH   1  17
ATOM     15  O   LIG    1        1.073  -0.601   0.022  0.00  0.00    -0.520 OA
ATOM     16  C   LIG    1        0.011  -0.008   0.020  0.00  0.00    +0.570 C 
ATOM     17  N   LIG    1       -1.147  -0.698   0.018  0.00  0.00    -0.730 N 
ATOM     18  H   LIG    1       -1.993  -0.225   0.016  0.00  0.00    +0.400 HD
BRANCH  16  19
ATOM     19  C   LIG    1       -0.009   1.466   0.020  0.00  0.00    -0.160 A 
ATOM     20  C   LIG    1        1.211   2.209   0.023  0.00  0.00    +0.020 A 
ATOM     21  C   LIG    1        2.538   1.763   0.026  0.00  0.00    +0.040 A 
ATOM     22  C   LIG    1        3.464   2.710   0.028  0.00  0.00    +0.010 A 
ATOM     23  S   LIG    1        2.726   4.303   0.026  0.00  0.00    +0.140 S 
ATOM     24  C   LIG    1        1.111   3.606   0.022  0.00  0.00    -0.220 A 
ATOM     25  C   LIG    1       -0.148   4.201   0.019  0.00  0.00    +0.360 A 
ATOM     26  N   LIG    1       -1.245   3.473   0.016  0.00  0.00    -0.480 NA
ATOM     27  C   LIG    1       -1.214   2.154   0.012  0.00  0.00    +0.290 A 
ENDBRANCH  16  19
ENDBRANCH   1  17
TORSDOF 4
