REMARK  Name = ZINCpe00000MJMGq.0
REMARK                            x       y       z     vdW  Elec       q    Type
REMARK                         _______ _______ _______ _____ _____    ______ ____
ROOT
ATOM      1  C   LIG    1       -3.194   1.541  -0.300  0.00  0.00    +0.620 C 
ATOM      2  N   LIG    1       -2.874   0.239  -0.162  0.00  0.00    -0.620 N 
ATOM      3  C   LIG    1       -1.510  -0.319  -0.185  0.00  0.00    +0.260 C 
ATOM      4  C   LIG    1       -1.692  -1.797  -0.609  0.00  0.00    +0.040 C 
ATOM      5  C   LIG    1       -3.013  -2.168   0.117  0.00  0.00    +0.010 C 
ATOM      6  C   LIG    1       -3.829  -0.861   0.043  0.00  0.00    +0.290 C 
ATOM      7  O   LIG    1       -2.459   2.285  -0.922  0.00  0.00    -0.520 OA
ENDROOT
BRANCH   1  14
ATOM      8  C   LIG    1      -10.242   3.371   2.692  0.00  0.00    +0.120 C 
ATOM      9  C   LIG    1       -8.986   2.820   2.066  0.00  0.00    +0.020 A 
ATOM     10  C   LIG    1       -7.856   3.582   2.010  0.00  0.00    +0.020 A 
ATOM     11  C   LIG    1       -6.694   3.054   1.423  0.00  0.00    +0.400 A 
ATOM     12  N   LIG    1       -5.590   3.804   1.371  0.00  0.00    -0.540 NA
ATOM     13  C   LIG    1       -4.474   3.357   0.832  0.00  0.00    +0.450 A 
ATOM     14  C   LIG    1       -4.427   2.061   0.300  0.00  0.00    -0.380 A 
ATOM     15  C   LIG    1       -5.599   1.268   0.349  0.00  0.00    +0.500 A 
ATOM     16  O   LIG    1       -5.603   0.138  -0.107  0.00  0.00    -0.480 OA
ATOM     17  N   LIG    1       -6.711   1.785   0.916  0.00  0.00    -0.420 N 
ATOM     18  C   LIG    1       -7.843   1.033   0.975  0.00  0.00    +0.300 A 
ATOM     19  C   LIG    1       -8.972   1.523   1.537  0.00  0.00    +0.000 A 
ENDBRANCH   1  14
BRANCH   6  20
ATOM     20  C   LIG    1       -4.594  -0.648   1.351  0.00  0.00    +0.280 C 
BRANCH  20  21
ATOM     21  N   LIG    1       -5.788  -1.497   1.362  0.00  0.00    -0.270 N 
ATOM     22  C   LIG    1       -6.137  -2.361   2.343  0.00  0.00    +0.130 A 
ATOM     23  C   LIG    1       -7.299  -2.932   1.947  0.00  0.00    +0.140 A 
ATOM     24  N   LIG    1       -7.599  -2.396   0.758  0.00  0.00    -0.290 NA
ATOM     25  N   LIG    1       -6.687  -1.546   0.442  0.00  0.00    -0.040 NA
ENDBRANCH  20  21
ENDBRANCH   6  20
TORSDOF 3
