REMARK  Name = ZINCnE000001DqB5.0
REMARK                            x       y       z     vdW  Elec       q    Type
REMARK                         _______ _______ _______ _____ _____    ______ ____
ROOT
ATOM      1  C   LIG    1       -4.085  -3.795   6.079  0.00  0.00    +0.400 A 
ATOM      2  N   LIG    1       -3.404  -4.175   7.133  0.00  0.00    -0.530 NA
ATOM      3  C   LIG    1       -4.016  -4.799   8.150  0.00  0.00    +0.190 A 
ATOM      4  C   LIG    1       -3.320  -5.214   9.293  0.00  0.00    +0.030 A 
ATOM      5  C   LIG    1       -3.991  -5.849  10.296  0.00  0.00    +0.050 A 
ATOM      6  C   LIG    1       -5.358  -6.092  10.203  0.00  0.00    -0.010 A 
ATOM      7  C   LIG    1       -6.066  -5.701   9.104  0.00  0.00    +0.050 A 
ATOM      8  C   LIG    1       -5.407  -5.047   8.058  0.00  0.00    -0.200 A 
ATOM      9  C   LIG    1       -6.087  -4.617   6.892  0.00  0.00    +0.480 A 
ATOM     10  N   LIG    1       -5.386  -4.005   5.947  0.00  0.00    -0.580 NA
ENDROOT
BRANCH   9  11
ATOM     11  N   LIG    1       -7.441  -4.829   6.743  0.00  0.00    -0.820 N 
ATOM     12  H   LIG    1       -7.942  -5.278   7.442  0.00  0.00    +0.410 HD
ATOM     13  H   LIG    1       -7.894  -4.528   5.939  0.00  0.00    +0.410 HD
ENDBRANCH   9  11
BRANCH   1  14
ATOM     14  C   LIG    1       -3.354  -3.093   4.963  0.00  0.00    +0.180 C 
BRANCH  14  15
ATOM     15  S   LIG    1       -3.378  -1.303   5.257  0.00  0.00    -0.010 S 
BRANCH  15  20
ATOM     16  N   LIG    1       -0.698   1.558   1.213  0.00  0.00    -0.640 NA
ATOM     17  C   LIG    1       -1.262   0.698   2.027  0.00  0.00    +0.340 A 
ATOM     18  N   LIG    1       -1.306  -0.661   1.906  0.00  0.00    -0.510 NA
ATOM     19  N   LIG    1       -1.966  -1.341   2.905  0.00  0.00    -0.250 NA
ATOM     20  C   LIG    1       -2.492  -0.663   3.875  0.00  0.00    -0.070 A 
ATOM     21  S   LIG    1       -2.133   1.039   3.534  0.00  0.00    -0.110 S 
BRANCH  16  22
ATOM     22  C   LIG    1       -0.013   1.086   0.008  0.00  0.00    +0.170 C 
BRANCH  22  24
ATOM     23  C   LIG    1       -0.666   3.119  -1.289  0.00  0.00    +0.010 C 
ATOM     24  C   LIG    1       -0.753   1.593  -1.232  0.00  0.00    -0.030 C 
ATOM     25  C   LIG    1       -0.111   0.998  -2.487  0.00  0.00    +0.010 C 
ENDBRANCH  22  24
ENDBRANCH  16  22
ENDBRANCH  15  20
ENDBRANCH  14  15
ENDBRANCH   1  14
TORSDOF 6
