REMARK  Name = ZINCpe000000Yx15.0
REMARK                            x       y       z     vdW  Elec       q    Type
REMARK                         _______ _______ _______ _____ _____    ______ ____
ROOT
ATOM      1  C   LIG    1       -0.026   5.646  -0.181  0.00  0.00    +0.060 C 
ENDROOT
BRANCH   1   4
ATOM      2  N   LIG    1        1.158   3.482   0.010  0.00  0.00    -0.680 N 
ATOM      3  H   LIG    1        1.989   3.977   0.086  0.00  0.00    +0.410 HD
ATOM      4  C   LIG    1       -0.014   4.143  -0.076  0.00  0.00    +0.520 C 
ATOM      5  O   LIG    1       -1.059   3.527  -0.070  0.00  0.00    -0.500 OA
BRANCH   2  11
ATOM      6  C   LIG    1        2.239   1.389   0.580  0.00  0.00    -0.070 A 
ATOM      7  C   LIG    1        2.245  -0.007   0.555  0.00  0.00    +0.090 A 
ATOM      8  C   LIG    1        1.208  -0.688  -0.047  0.00  0.00    +0.000 A 
ATOM      9  C   LIG    1        0.160   0.006  -0.628  0.00  0.00    +0.080 A 
ATOM     10  C   LIG    1        0.141   1.387  -0.610  0.00  0.00    +0.020 A 
ATOM     11  C   LIG    1        1.175   2.089  -0.009  0.00  0.00    +0.200 A 
BRANCH   6  13
ATOM     12  N   LIG    1        4.165   2.668   1.698  0.00  0.00    -0.410 NA
ATOM     13  C   LIG    1        3.313   2.102   1.204  0.00  0.00    +0.250 C 
ENDBRANCH   6  13
ENDBRANCH   2  11
ENDBRANCH   1   4
BRANCH   1  14
ATOM     14  C   LIG    1       -1.472   6.140  -0.266  0.00  0.00    +0.070 C 
BRANCH  14  15
ATOM     15  C   LIG    1       -1.483   7.666  -0.372  0.00  0.00    +0.060 C 
BRANCH  15  16
ATOM     16  C   LIG    1       -2.907   8.153  -0.455  0.00  0.00    +0.550 C 
ATOM     17  N   LIG    1       -3.164   9.472  -0.556  0.00  0.00    -0.500 N 
ATOM     18  C   LIG    1       -4.499   9.984  -0.637  0.00  0.00    +0.330 C 
ATOM     19  C   LIG    1       -5.138   9.781  -2.046  0.00  0.00    -0.320 C 
ATOM     20  S   LIG    1       -3.824  10.071  -3.290  0.00  0.00    +2.410 S 
ATOM     21  C   LIG    1       -2.867  11.434  -2.636  0.00  0.00    -0.360 C 
ATOM     22  C   LIG    1       -1.711  10.845  -1.810  0.00  0.00    +0.280 C 
ATOM     23  O   LIG    1       -4.443  10.505  -4.493  0.00  0.00    -0.940 OA
ATOM     24  O   LIG    1       -2.989   8.922  -3.325  0.00  0.00    -0.930 OA
ATOM     25  O   LIG    1       -2.117  10.453  -0.581  0.00  0.00    -0.120 OA
ATOM     26  O   LIG    1       -3.822   7.357  -0.432  0.00  0.00    -0.500 OA
ENDBRANCH  15  16
ENDBRANCH  14  15
ENDBRANCH   1  14
TORSDOF 6
