REMARK  Name = ZINCpk00000FdtZl.0
REMARK                            x       y       z     vdW  Elec       q    Type
REMARK                         _______ _______ _______ _____ _____    ______ ____
ROOT
ATOM      1  N   LIG    1        0.654   3.498   0.014  0.00  0.00    -0.230 N 
ATOM      2  N   LIG    1        1.032   2.270   0.004  0.00  0.00    -0.260 NA
ATOM      3  C   LIG    1       -0.018   1.472   0.010  0.00  0.00    -0.000 A 
ATOM      4  C   LIG    1       -1.168   2.297   0.019  0.00  0.00    +0.000 A 
ATOM      5  C   LIG    1       -0.702   3.568   0.027  0.00  0.00    +0.020 A 
ATOM      6  C   LIG    1       -1.533   4.826   0.040  0.00  0.00    +0.150 C 
ENDROOT
BRANCH   3   7
ATOM      7  C   LIG    1        0.002  -0.004   0.002  0.00  0.00    +0.610 C 
ATOM      8  N   LIG    1        1.178  -0.662  -0.012  0.00  0.00    -0.600 N 
ATOM      9  C   LIG    1        2.513  -0.036  -0.028  0.00  0.00    +0.250 C 
ATOM     10  C   LIG    1        3.446  -1.101  -0.649  0.00  0.00    +0.150 C 
ATOM     11  C   LIG    1        2.858  -2.413  -0.065  0.00  0.00    +0.060 C 
ATOM     12  C   LIG    1        1.343  -2.123  -0.022  0.00  0.00    +0.230 C 
ATOM     13  O   LIG    1       -1.042  -0.626   0.008  0.00  0.00    -0.480 OA
BRANCH  10  14
ATOM     14  O   LIG    1        4.798  -0.913  -0.224  0.00  0.00    -0.370 OA
ATOM     15  C   LIG    1        5.606  -0.197  -1.160  0.00  0.00    +0.200 C 
ENDBRANCH  10  14
BRANCH  12  16
ATOM     16  C   LIG    1        0.734  -2.723   1.247  0.00  0.00    +0.160 C 
BRANCH  16  17
ATOM     17  O   LIG    1       -0.682  -2.536   1.231  0.00  0.00    -0.540 OA
ATOM     18  H   LIG    1       -1.135  -2.893   2.007  0.00  0.00    +0.370 HD
ENDBRANCH  16  17
ENDBRANCH  12  16
ENDBRANCH   3   7
BRANCH   1  22
ATOM     19  C   LIG    1        3.218   6.787   0.007  0.00  0.00    +0.140 A 
ATOM     20  C   LIG    1        3.574   5.632   0.687  0.00  0.00    +0.010 A 
ATOM     21  C   LIG    1        2.726   4.543   0.690  0.00  0.00    +0.080 A 
ATOM     22  C   LIG    1        1.516   4.604   0.011  0.00  0.00    +0.090 A 
ATOM     23  C   LIG    1        1.163   5.758  -0.675  0.00  0.00    +0.060 A 
ATOM     24  C   LIG    1        2.009   6.849  -0.672  0.00  0.00    -0.050 A 
BRANCH  19  26
ATOM     25  C   LIG    1        3.623   9.016  -0.716  0.00  0.00    +0.240 C 
ATOM     26  O   LIG    1        4.053   7.859   0.004  0.00  0.00    -0.310 OA
ENDBRANCH  19  26
ENDBRANCH   1  22
TORSDOF 6
