REMARK  Name = ZINCnE000001PcMR.0
REMARK                            x       y       z     vdW  Elec       q    Type
REMARK                         _______ _______ _______ _____ _____    ______ ____
ROOT
ATOM      1  S   LIG    1       -1.100   5.519   0.040  0.00  0.00    -0.030 S 
ENDROOT
BRANCH   1   2
ATOM      2  C   LIG    1       -0.482   3.869   0.027  0.00  0.00    -0.070 A 
ATOM      3  N   LIG    1        0.760   3.502   0.013  0.00  0.00    -0.240 NA
ATOM      4  N   LIG    1        1.052   2.157   0.004  0.00  0.00    -0.500 NA
ATOM      5  C   LIG    1       -0.016   1.307   0.009  0.00  0.00    +0.340 A 
ATOM      6  N   LIG    1        0.002  -0.004   0.002  0.00  0.00    -0.630 NA
ATOM      7  S   LIG    1       -1.433   2.373   0.021  0.00  0.00    -0.080 S 
BRANCH   6   8
ATOM      8  C   LIG    1        1.281  -0.719  -0.013  0.00  0.00    +0.300 C 
BRANCH   8   9
ATOM      9  C   LIG    1        1.438  -1.495   1.269  0.00  0.00    +0.030 A 
ATOM     10  C   LIG    1        1.028  -2.759   1.478  0.00  0.00    -0.080 A 
ATOM     11  C   LIG    1        1.376  -3.088   2.809  0.00  0.00    -0.080 A 
ATOM     12  C   LIG    1        1.971  -2.002   3.335  0.00  0.00    +0.130 A 
ATOM     13  O   LIG    1        2.005  -1.041   2.398  0.00  0.00    -0.170 OA
ENDBRANCH   8   9
ENDBRANCH   6   8
ENDBRANCH   1   2
BRANCH   1  14
ATOM     14  C   LIG    1        0.412   6.521   0.032  0.00  0.00    +0.100 C 
ATOM     15  C   LIG    1        1.185   6.289   1.331  0.00  0.00    +0.090 C 
BRANCH  14  22
ATOM     16  C   LIG    1        1.661  11.054  -1.297  0.00  0.00    +0.140 C 
ATOM     17  C   LIG    1        0.637  10.117  -0.709  0.00  0.00    +0.190 A 
ATOM     18  C   LIG    1       -0.570  10.596  -0.300  0.00  0.00    -0.140 A 
ATOM     19  C   LIG    1       -1.505   9.693   0.246  0.00  0.00    +0.520 A 
ATOM     20  N   LIG    1       -1.165   8.390   0.341  0.00  0.00    -0.620 N 
ATOM     21  H   LIG    1       -1.792   7.750   0.713  0.00  0.00    +0.420 HD
ATOM     22  C   LIG    1        0.047   7.979  -0.082  0.00  0.00    +0.440 A 
ATOM     23  O   LIG    1       -2.598  10.080   0.624  0.00  0.00    -0.540 OA
ATOM     24  N   LIG    1        0.915   8.817  -0.583  0.00  0.00    -0.530 NA
ENDBRANCH  14  22
ENDBRANCH   1  14
TORSDOF 5
