REMARK  Name = ZINCnE000001FCNh.0
REMARK                            x       y       z     vdW  Elec       q    Type
REMARK                         _______ _______ _______ _____ _____    ______ ____
ROOT
ATOM      1  N   LIG    1       -3.949   8.229  -0.844  0.00  0.00    -0.740 N 
ATOM      2  H   LIG    1       -3.847   7.818  -1.716  0.00  0.00    +0.390 HD
ATOM      3  C   LIG    1       -3.810   7.486   0.272  0.00  0.00    +0.710 C 
ATOM      4  N   LIG    1       -3.630   6.154   0.176  0.00  0.00    -0.620 N 
ATOM      5  C   LIG    1       -3.595   5.314   1.381  0.00  0.00    +0.290 C 
ATOM      6  C   LIG    1       -2.307   4.485   1.367  0.00  0.00    +0.020 C 
ATOM      7  C   LIG    1       -2.222   3.704   0.054  0.00  0.00    +0.050 C 
ATOM      8  C   LIG    1       -2.179   4.682  -1.122  0.00  0.00    +0.020 C 
ATOM      9  C   LIG    1       -3.466   5.513  -1.136  0.00  0.00    +0.260 C 
ATOM     10  O   LIG    1       -3.848   8.017   1.365  0.00  0.00    -0.600 OA
ENDROOT
BRANCH   7  11
ATOM     11  C   LIG    1       -0.972   2.861   0.052  0.00  0.00    -0.060 A 
ATOM     12  C   LIG    1        0.268   3.464   0.062  0.00  0.00    -0.020 A 
ATOM     13  C   LIG    1        1.417   2.692   0.060  0.00  0.00    -0.030 A 
ATOM     14  C   LIG    1        1.330   1.311   0.048  0.00  0.00    -0.020 A 
ATOM     15  C   LIG    1        0.096   0.694   0.038  0.00  0.00    +0.020 A 
ATOM     16  C   LIG    1       -1.067   1.467   0.033  0.00  0.00    -0.110 A 
BRANCH  16  17
ATOM     17  C   LIG    1       -2.391   0.815   0.016  0.00  0.00    +0.530 C 
ATOM     18  O   LIG    1       -3.198   1.093  -0.860  0.00  0.00    -0.680 OA
ATOM     19  O   LIG    1       -2.680  -0.004   0.877  0.00  0.00    -0.690 OA
ENDBRANCH  16  17
ENDBRANCH   7  11
BRANCH   1  20
ATOM     20  C   LIG    1       -4.252   9.659  -0.738  0.00  0.00    +0.250 C 
ATOM     21  C   LIG    1       -2.953  10.444  -0.552  0.00  0.00    +0.010 C 
BRANCH  20  22
ATOM     22  C   LIG    1       -4.953  10.127  -2.015  0.00  0.00    +0.020 C 
BRANCH  22  24
ATOM     23  C   LIG    1       -7.011   9.900  -3.413  0.00  0.00    +0.000 C 
ATOM     24  C   LIG    1       -6.311   9.432  -2.136  0.00  0.00    -0.010 C 
ENDBRANCH  22  24
ENDBRANCH  20  22
ENDBRANCH   1  20
TORSDOF 5
