REMARK  Name = ZINCvU0000000Hgs.0
REMARK                            x       y       z     vdW  Elec       q    Type
REMARK                         _______ _______ _______ _____ _____    ______ ____
ROOT
ATOM      1  C   LIG    1       -4.431   6.688  -1.365  0.00  0.00    +0.280 C 
ENDROOT
BRANCH   1   2
ATOM      2  C   LIG    1       -4.125   7.391  -2.663  0.00  0.00    -0.090 A 
ATOM      3  C   LIG    1       -4.071   6.670  -3.842  0.00  0.00    +0.060 A 
ATOM      4  C   LIG    1       -3.797   7.312  -5.034  0.00  0.00    -0.060 A 
ATOM      5  C   LIG    1       -3.564   8.680  -5.046  0.00  0.00    +0.100 A 
ATOM      6  C   LIG    1       -3.613   9.400  -3.861  0.00  0.00    +0.010 A 
ATOM      7  C   LIG    1       -3.893   8.754  -2.672  0.00  0.00    +0.050 A 
BRANCH   5   8
ATOM      8  O   LIG    1       -3.288   9.313  -6.216  0.00  0.00    -0.320 OA
BRANCH   8   9
ATOM      9  C   LIG    1       -3.254   8.509  -7.396  0.00  0.00    +0.590 C 
ATOM     10  F   LIG    1       -4.500   7.901  -7.582  0.00  0.00    -0.200 F 
ATOM     11  F   LIG    1       -2.270   7.524  -7.261  0.00  0.00    -0.200 F 
ENDBRANCH   8   9
ENDBRANCH   5   8
ENDBRANCH   1   2
BRANCH   1  12
ATOM     12  C   LIG    1       -5.918   6.471  -1.250  0.00  0.00    -0.110 A 
ATOM     13  C   LIG    1       -6.517   5.424  -1.925  0.00  0.00    +0.010 A 
ATOM     14  C   LIG    1       -7.881   5.221  -1.815  0.00  0.00    +0.010 A 
ATOM     15  C   LIG    1       -8.646   6.072  -1.039  0.00  0.00    +0.000 A 
ATOM     16  C   LIG    1       -8.047   7.122  -0.369  0.00  0.00    +0.000 A 
ATOM     17  C   LIG    1       -6.683   7.322  -0.475  0.00  0.00    +0.010 A 
ENDBRANCH   1  12
BRANCH   1  18
ATOM     18  N   LIG    1       -3.743   5.391  -1.337  0.00  0.00    -0.670 NA
ATOM     19  H   LIG    1       -4.259   4.696  -1.855  0.00  0.00    +0.350 HD
BRANCH  18  20
ATOM     20  C   LIG    1       -3.508   4.950   0.045  0.00  0.00    +0.330 C 
BRANCH  20  23
ATOM     21  C   LIG    1       -1.305   2.116   0.020  0.00  0.00    +0.230 A 
ATOM     22  N   LIG    1       -1.473   3.427   0.028  0.00  0.00    -0.460 NA
ATOM     23  C   LIG    1       -2.801   3.619   0.034  0.00  0.00    +0.180 A 
ATOM     24  N   LIG    1       -3.369   2.449   0.030  0.00  0.00    -0.380 NA
ATOM     25  O   LIG    1       -2.531   1.571   0.017  0.00  0.00    +0.080 OA
BRANCH  21  30
ATOM     26  C   LIG    1        3.710  -0.705  -0.036  0.00  0.00    +0.100 C 
ATOM     27  C   LIG    1        2.396   0.034  -0.020  0.00  0.00    -0.050 A 
ATOM     28  C   LIG    1        1.208  -0.674  -0.013  0.00  0.00    +0.010 A 
ATOM     29  C   LIG    1        0.002  -0.004   0.002  0.00  0.00    +0.070 A 
ATOM     30  C   LIG    1       -0.017   1.392   0.010  0.00  0.00    -0.040 A 
ATOM     31  C   LIG    1        1.186   2.100   0.002  0.00  0.00    +0.080 A 
ATOM     32  C   LIG    1        2.385   1.417  -0.012  0.00  0.00    +0.000 A 
ENDBRANCH  21  30
ENDBRANCH  20  23
ENDBRANCH  18  20
ENDBRANCH   1  18
TORSDOF 8
