REMARK  Name = ZINCnE000001TDq1.0
REMARK                            x       y       z     vdW  Elec       q    Type
REMARK                         _______ _______ _______ _____ _____    ______ ____
ROOT
ATOM      1  N   LIG    1        4.919   0.170  -0.145  0.00  0.00    -0.710 N 
ATOM      2  H   LIG    1        4.863   1.136  -0.212  0.00  0.00    +0.400 HD
ATOM      3  C   LIG    1        3.793  -0.565  -0.037  0.00  0.00    +0.560 C 
ATOM      4  O   LIG    1        3.863  -1.776   0.046  0.00  0.00    -0.540 OA
ENDROOT
BRANCH   3   5
ATOM      5  C   LIG    1        2.478   0.101  -0.021  0.00  0.00    -0.120 A 
ATOM      6  C   LIG    1        2.385   1.486   0.005  0.00  0.00    +0.060 A 
ATOM      7  C   LIG    1        1.144   2.111   0.019  0.00  0.00    +0.000 A 
ATOM      8  C   LIG    1       -0.017   1.401   0.010  0.00  0.00    +0.050 A 
ATOM      9  C   LIG    1        0.002  -0.004  -0.015  0.00  0.00    -0.060 A 
ATOM     10  C   LIG    1       -1.188  -0.751  -0.025  0.00  0.00    +0.020 A 
ATOM     11  C   LIG    1       -1.129  -2.111  -0.050  0.00  0.00    +0.000 A 
ATOM     12  C   LIG    1        0.094  -2.776  -0.066  0.00  0.00    +0.000 A 
ATOM     13  C   LIG    1        1.268  -2.083  -0.057  0.00  0.00    +0.050 A 
ATOM     14  C   LIG    1        1.245  -0.683  -0.031  0.00  0.00    -0.010 A 
ENDBRANCH   3   5
BRANCH   1  15
ATOM     15  C   LIG    1        6.226  -0.492  -0.162  0.00  0.00    +0.330 C 
BRANCH  15  20
ATOM     16  C   LIG    1        8.873   2.065   0.721  0.00  0.00    -0.140 A 
ATOM     17  C   LIG    1        9.311   2.453  -0.547  0.00  0.00    +0.050 A 
ATOM     18  C   LIG    1        8.748   1.885  -1.671  0.00  0.00    -0.020 A 
ATOM     19  C   LIG    1        7.755   0.930  -1.544  0.00  0.00    +0.000 A 
ATOM     20  C   LIG    1        7.312   0.545  -0.290  0.00  0.00    -0.140 A 
ATOM     21  C   LIG    1        7.866   1.104   0.842  0.00  0.00    +0.070 A 
BRANCH  16  23
ATOM     22  O   LIG    1        9.086   2.326   3.037  0.00  0.00    -0.690 OA
ATOM     23  C   LIG    1        9.471   2.668   1.928  0.00  0.00    +0.520 C 
ATOM     24  O   LIG    1       10.353   3.509   1.819  0.00  0.00    -0.690 OA
ENDBRANCH  16  23
ENDBRANCH  15  20
ENDBRANCH   1  15
TORSDOF 4
