REMARK  Name = ZINCpe00000VVGYk.0
REMARK                            x       y       z     vdW  Elec       q    Type
REMARK                         _______ _______ _______ _____ _____    ______ ____
ROOT
ATOM      1  O   LIG    1       -0.730  -1.841   1.866  0.00  0.00    -0.540 OA
ATOM      2  C   LIG    1        0.386  -1.384   1.993  0.00  0.00    +0.520 C 
ATOM      3  N   LIG    1        0.842  -0.466   1.117  0.00  0.00    -0.620 N 
ATOM      4  C   LIG    1        0.002  -0.004   0.002  0.00  0.00    +0.290 C 
ATOM      5  C   LIG    1       -0.019   1.528   0.010  0.00  0.00    +0.210 C 
ATOM      6  N   LIG    1        1.361   2.034   0.000  0.00  0.00    -0.480 N 
ATOM      7  C   LIG    1        2.086   1.629   1.212  0.00  0.00    +0.190 C 
ATOM      8  C   LIG    1        2.193   0.101   1.253  0.00  0.00    +0.290 C 
ENDROOT
BRANCH   6   9
ATOM      9  C   LIG    1        1.384   3.414  -0.157  0.00  0.00    +0.310 A 
ATOM     10  C   LIG    1        2.603   4.084  -0.191  0.00  0.00    -0.050 A 
ATOM     11  C   LIG    1        2.612   5.458  -0.348  0.00  0.00    +0.090 A 
ATOM     12  C   LIG    1        1.397   6.119  -0.466  0.00  0.00    -0.060 A 
ATOM     13  C   LIG    1        0.224   5.392  -0.423  0.00  0.00    +0.290 A 
ATOM     14  N   LIG    1        0.246   4.081  -0.277  0.00  0.00    -0.520 NA
ENDBRANCH   6   9
BRANCH   2  15
ATOM     15  C   LIG    1        1.264  -1.843   3.128  0.00  0.00    +0.070 C 
BRANCH  15  16
ATOM     16  C   LIG    1        0.513  -2.880   3.967  0.00  0.00    +0.200 C 
BRANCH  16  17
ATOM     17  N   LIG    1        1.368  -3.327   5.074  0.00  0.00    -0.530 NA
ATOM     18  C   LIG    1        0.606  -4.138   6.034  0.00  0.00    +0.240 C 
ATOM     19  C   LIG    1       -0.103  -5.281   5.295  0.00  0.00    +0.250 C 
ATOM     20  N   LIG    1        0.880  -5.955   4.442  0.00  0.00    -0.460 N 
ATOM     21  C   LIG    1        0.795  -7.177   3.851  0.00  0.00    +0.130 A 
ATOM     22  C   LIG    1        1.947  -7.358   3.172  0.00  0.00    +0.140 A 
ATOM     23  N   LIG    1        2.712  -6.268   3.349  0.00  0.00    -0.480 NA
ATOM     24  C   LIG    1        2.081  -5.422   4.106  0.00  0.00    +0.170 A 
ATOM     25  C   LIG    1        2.542  -4.061   4.570  0.00  0.00    +0.360 C 
ENDBRANCH  16  17
ENDBRANCH  15  16
ENDBRANCH   2  15
TORSDOF 4
