REMARK  Name = ZINCpe000000SY2Z.0
REMARK                            x       y       z     vdW  Elec       q    Type
REMARK                         _______ _______ _______ _____ _____    ______ ____
ROOT
ATOM      1  N   LIG    1       -5.917   6.888  -2.050  0.00  0.00    -0.520 NA
ATOM      2  C   LIG    1       -4.963   6.515  -3.104  0.00  0.00    +0.170 C 
ATOM      3  C   LIG    1       -4.622   5.027  -2.975  0.00  0.00    +0.300 C 
ATOM      4  N   LIG    1       -4.163   4.770  -1.602  0.00  0.00    -0.610 N 
ATOM      5  C   LIG    1       -5.005   5.233  -0.488  0.00  0.00    +0.290 C 
ATOM      6  C   LIG    1       -3.004   4.121  -1.370  0.00  0.00    +0.520 C 
ATOM      7  O   LIG    1       -2.325   3.742  -2.300  0.00  0.00    -0.530 OA
ATOM      8  C   LIG    1       -5.328   6.719  -0.715  0.00  0.00    +0.190 C 
ENDROOT
BRANCH   1   9
ATOM      9  C   LIG    1       -6.402   8.262  -2.241  0.00  0.00    +0.220 C 
BRANCH   9  12
ATOM     10  N   LIG    1       -8.156   9.728  -1.297  0.00  0.00    -0.730 N 
ATOM     11  H   LIG    1       -7.855  10.425  -1.902  0.00  0.00    +0.400 HD
ATOM     12  C   LIG    1       -7.548   8.525  -1.300  0.00  0.00    +0.510 C 
ATOM     13  O   LIG    1       -7.925   7.654  -0.544  0.00  0.00    -0.520 OA
BRANCH  10  15
ATOM     14  C   LIG    1       -8.724  10.421   0.978  0.00  0.00    +0.030 C 
ATOM     15  C   LIG    1       -9.271   9.984  -0.382  0.00  0.00    +0.230 C 
ATOM     16  C   LIG    1      -10.157  11.092  -0.956  0.00  0.00    +0.030 C 
ENDBRANCH  10  15
ENDBRANCH   9  12
ENDBRANCH   1   9
BRANCH   6  17
ATOM     17  C   LIG    1       -2.553   3.869   0.045  0.00  0.00    +0.110 C 
BRANCH  17  18
ATOM     18  C   LIG    1       -1.238   3.133   0.029  0.00  0.00    -0.020 A 
ATOM     19  C   LIG    1       -1.219   1.751   0.017  0.00  0.00    +0.050 A 
ATOM     20  C   LIG    1       -0.013   1.076   0.008  0.00  0.00    +0.110 A 
ATOM     21  C   LIG    1        1.175   1.783   0.000  0.00  0.00    -0.040 A 
ATOM     22  C   LIG    1        1.156   3.165   0.008  0.00  0.00    +0.100 A 
ATOM     23  C   LIG    1       -0.050   3.840   0.022  0.00  0.00    +0.050 A 
BRANCH  21  24
ATOM     24  N   LIG    1        2.467   1.061  -0.015  0.00  0.00    +0.030 N 
ATOM     25  O   LIG    1        3.513   1.684  -0.022  0.00  0.00    -0.160 OA
ATOM     26  O   LIG    1        2.483  -0.157  -0.022  0.00  0.00    -0.160 OA
ENDBRANCH  21  24
ENDBRANCH  17  18
ENDBRANCH   6  17
TORSDOF 6
