REMARK  Name = ZINCqH0000005jmQ.0
REMARK                            x       y       z     vdW  Elec       q    Type
REMARK                         _______ _______ _______ _____ _____    ______ ____
ROOT
ATOM      1  C   LIG    1       -5.551   1.119  -2.317  0.00  0.00    +0.310 C 
ATOM      2  N   LIG    1       -5.269   2.318  -1.524  0.00  0.00    -0.580 N 
ATOM      3  C   LIG    1       -5.676   3.527  -1.960  0.00  0.00    +0.490 C 
ATOM      4  O   LIG    1       -5.360   4.529  -1.354  0.00  0.00    -0.510 OA
ENDROOT
BRANCH   3   5
ATOM      5  C   LIG    1       -6.516   3.632  -3.190  0.00  0.00    +0.390 C 
ATOM      6  O   LIG    1       -6.934   2.627  -3.727  0.00  0.00    -0.410 OA
BRANCH   5   7
ATOM      7  C   LIG    1       -6.839   4.956  -3.751  0.00  0.00    -0.180 A 
ATOM      8  C   LIG    1       -6.481   6.119  -3.060  0.00  0.00    +0.110 A 
ATOM      9  C   LIG    1       -6.783   7.354  -3.594  0.00  0.00    -0.010 A 
ATOM     10  C   LIG    1       -7.446   7.445  -4.806  0.00  0.00    -0.030 A 
ATOM     11  C   LIG    1       -7.807   6.299  -5.493  0.00  0.00    -0.010 A 
ATOM     12  C   LIG    1       -7.509   5.057  -4.975  0.00  0.00    +0.080 A 
BRANCH  10  13
ATOM     13  C   LIG    1       -7.776   8.799  -5.379  0.00  0.00    -0.040 C 
ATOM     14  C   LIG    1       -7.099   8.954  -6.743  0.00  0.00    +0.040 C 
ATOM     15  C   LIG    1       -7.272   9.890  -4.433  0.00  0.00    +0.030 C 
ATOM     16  C   LIG    1       -9.291   8.927  -5.545  0.00  0.00    +0.040 C 
ENDBRANCH  10  13
ENDBRANCH   5   7
ENDBRANCH   3   5
BRANCH   2  17
ATOM     17  C   LIG    1       -4.545   2.204  -0.256  0.00  0.00    +0.420 C 
BRANCH  17  18
ATOM     18  C   LIG    1       -3.064   2.330  -0.510  0.00  0.00    +0.260 A 
ATOM     19  N   LIG    1       -2.282   1.352  -0.859  0.00  0.00    -0.480 NA
ATOM     20  C   LIG    1       -1.012   1.812  -1.004  0.00  0.00    +0.040 A 
ATOM     21  C   LIG    1        0.197   1.208  -1.357  0.00  0.00    +0.070 A 
ATOM     22  C   LIG    1        1.338   1.957  -1.424  0.00  0.00    +0.000 A 
ATOM     23  C   LIG    1        1.311   3.314  -1.140  0.00  0.00    +0.030 A 
ATOM     24  C   LIG    1        0.130   3.930  -0.784  0.00  0.00    +0.010 A 
ATOM     25  C   LIG    1       -1.039   3.186  -0.710  0.00  0.00    +0.050 A 
ATOM     26  N   LIG    1       -2.350   3.483  -0.396  0.00  0.00    -0.590 N 
ATOM     27  H   LIG    1       -2.699   4.354  -0.149  0.00  0.00    +0.430 HD
ENDBRANCH  17  18
ENDBRANCH   2  17
TORSDOF 5
