REMARK  Name = ZINCrH00000tj0Hr.0
REMARK                            x       y       z     vdW  Elec       q    Type
REMARK                         _______ _______ _______ _____ _____    ______ ____
ROOT
ATOM      1  S   LIG    1        0.767   7.676  -1.669  0.00  0.00    +2.700 S 
ATOM      2  O   LIG    1       -0.347   8.170  -0.939  0.00  0.00    -0.940 OA
ATOM      3  O   LIG    1        0.902   7.822  -3.076  0.00  0.00    -0.960 OA
ENDROOT
BRANCH   1  10
ATOM      4  C   LIG    1        2.371   8.401   0.424  0.00  0.00    +0.230 A 
ATOM      5  C   LIG    1        3.498   8.983   0.985  0.00  0.00    -0.090 A 
ATOM      6  C   LIG    1        4.447   9.573   0.171  0.00  0.00    +0.010 A 
ATOM      7  C   LIG    1        4.272   9.585  -1.200  0.00  0.00    -0.040 A 
ATOM      8  C   LIG    1        3.151   9.001  -1.762  0.00  0.00    +0.170 A 
ATOM      9  C   LIG    1        5.671  10.206   0.780  0.00  0.00    +0.100 C 
ATOM     10  C   LIG    1        2.198   8.414  -0.953  0.00  0.00    -0.720 A 
BRANCH   4  11
ATOM     11  O   LIG    1        1.437   7.819   1.222  0.00  0.00    -0.310 OA
BRANCH  11  12
ATOM     12  C   LIG    1        1.681   7.843   2.630  0.00  0.00    +0.200 C 
BRANCH  12  13
ATOM     13  C   LIG    1        0.530   7.146   3.358  0.00  0.00    +0.040 C 
BRANCH  13  14
ATOM     14  C   LIG    1        0.791   7.171   4.866  0.00  0.00    +0.020 C 
BRANCH  14  16
ATOM     15  C   LIG    1       -0.099   6.500   7.102  0.00  0.00    +0.010 C 
ATOM     16  C   LIG    1       -0.359   6.474   5.594  0.00  0.00    +0.000 C 
ENDBRANCH  14  16
ENDBRANCH  13  14
ENDBRANCH  12  13
ENDBRANCH  11  12
ENDBRANCH   4  11
ENDBRANCH   1  10
BRANCH   1  17
ATOM     17  N   LIG    1        0.847   6.051  -1.358  0.00  0.00    -1.110 NA
ATOM     18  H   LIG    1        0.943   5.421  -2.089  0.00  0.00    +0.420 HD
BRANCH  17  19
ATOM     19  C   LIG    1        0.771   5.565   0.022  0.00  0.00    +0.350 C 
BRANCH  19  20
ATOM     20  C   LIG    1        0.496   4.083   0.018  0.00  0.00    -0.090 A 
ATOM     21  C   LIG    1       -0.808   3.624   0.028  0.00  0.00    +0.050 A 
ATOM     22  C   LIG    1       -1.065   2.265   0.019  0.00  0.00    +0.040 A 
ATOM     23  C   LIG    1       -0.016   1.361   0.009  0.00  0.00    +0.040 A 
ATOM     24  O   LIG    1        0.002  -0.004   0.002  0.00  0.00    -0.310 OA
ATOM     25  C   LIG    1        1.336  -0.373   0.399  0.00  0.00    +0.430 C 
ATOM     26  O   LIG    1        2.139   0.749  -0.014  0.00  0.00    -0.310 OA
ATOM     27  C   LIG    1        1.297   1.824  -0.001  0.00  0.00    +0.030 A 
ATOM     28  C   LIG    1        1.548   3.186   0.004  0.00  0.00    +0.060 A 
ENDBRANCH  19  20
ENDBRANCH  17  19
ENDBRANCH   1  17
TORSDOF 9
