REMARK  Name = ZINCrH000004ooJ3.1
REMARK                            x       y       z     vdW  Elec       q    Type
REMARK                         _______ _______ _______ _____ _____    ______ ____
ROOT
ATOM      1  C   LIG    1        0.009   1.496   0.007  0.00  0.00    +0.010 C 
ATOM      2  C   LIG    1        0.013  -0.034   0.007  0.00  0.00    +0.210 C 
ENDROOT
BRANCH   2   3
ATOM      3  C   LIG    1       -1.407  -0.540   0.015  0.00  0.00    -0.040 A 
ATOM      4  C   LIG    1       -2.118  -0.581   1.200  0.00  0.00    +0.000 A 
ATOM      5  C   LIG    1       -3.423  -1.040   1.210  0.00  0.00    +0.040 A 
ATOM      6  C   LIG    1       -4.015  -1.469   0.039  0.00  0.00    -0.040 A 
ATOM      7  C   LIG    1       -3.301  -1.434  -1.152  0.00  0.00    +0.190 A 
ATOM      8  C   LIG    1       -1.993  -0.968  -1.160  0.00  0.00    +0.010 A 
BRANCH   7   9
ATOM      9  N   LIG    1       -3.898  -1.868  -2.341  0.00  0.00    -0.570 N 
ATOM     10  C   LIG    1       -5.222  -2.498  -2.449  0.00  0.00    +0.260 C 
ATOM     11  C   LIG    1       -5.381  -2.767  -3.958  0.00  0.00    +0.270 C 
ATOM     12  N   LIG    1       -4.126  -2.269  -4.539  0.00  0.00    -0.740 N 
ATOM     13  H   LIG    1       -3.895  -2.289  -5.481  0.00  0.00    +0.430 HD
ATOM     14  C   LIG    1       -3.351  -1.781  -3.561  0.00  0.00    +0.700 C 
ATOM     15  O   LIG    1       -2.252  -1.303  -3.762  0.00  0.00    -0.570 OA
ENDBRANCH   7   9
ENDBRANCH   2   3
BRANCH   2  16
ATOM     16  N   LIG    1        0.713  -0.522   1.203  0.00  0.00    -0.680 NA
ATOM     17  H   LIG    1        0.496   0.048   2.007  0.00  0.00    +0.340 HD
BRANCH  16  18
ATOM     18  C   LIG    1        2.163  -0.581   0.976  0.00  0.00    +0.240 C 
BRANCH  18  19
ATOM     19  C   LIG    1        2.847  -1.084   2.222  0.00  0.00    -0.120 A 
ATOM     20  C   LIG    1        3.268  -0.202   3.175  0.00  0.00    +0.090 A 
ATOM     21  C   LIG    1        3.896  -0.716   4.325  0.00  0.00    -0.080 A 
ATOM     22  C   LIG    1        4.350   0.130   5.350  0.00  0.00    +0.030 A 
ATOM     23  C   LIG    1        4.958  -0.405   6.445  0.00  0.00    +0.050 A 
ATOM     24  C   LIG    1        5.137  -1.781   6.563  0.00  0.00    +0.000 A 
ATOM     25  C   LIG    1        4.709  -2.632   5.588  0.00  0.00    +0.130 A 
ATOM     26  F   LIG    1        4.892  -3.964   5.722  0.00  0.00    -0.120 F 
ATOM     27  C   LIG    1        4.076  -2.116   4.441  0.00  0.00    +0.100 A 
ATOM     28  N   LIG    1        3.645  -2.925   3.469  0.00  0.00    -0.460 NA
ATOM     29  C   LIG    1        3.054  -2.451   2.399  0.00  0.00    +0.320 A 
ENDBRANCH  18  19
ENDBRANCH  16  18
ENDBRANCH   2  16
TORSDOF 5
