REMARK  Name = ZINCkj000005f86X.0
REMARK                            x       y       z     vdW  Elec       q    Type
REMARK                         _______ _______ _______ _____ _____    ______ ____
ROOT
ATOM      1  N   LIG    1       -1.640  -1.854   0.008  0.00  0.00    -0.620 N 
ATOM      2  C   LIG    1       -1.412  -0.526   0.013  0.00  0.00    +0.520 C 
ATOM      3  O   LIG    1       -2.344   0.250   0.026  0.00  0.00    -0.520 OA
ATOM      4  C   LIG    1       -0.514  -2.791  -0.008  0.00  0.00    +0.290 C 
ENDROOT
BRANCH   1   8
ATOM      5  N   LIG    1       -4.123  -4.367   0.722  0.00  0.00    -0.390 N 
ATOM      6  C   LIG    1       -3.619  -4.639  -0.649  0.00  0.00    +0.270 C 
ATOM      7  C   LIG    1       -3.268  -3.248  -1.218  0.00  0.00    +0.070 C 
ATOM      8  C   LIG    1       -3.014  -2.361   0.018  0.00  0.00    +0.260 C 
ATOM      9  C   LIG    1       -3.234  -3.291   1.231  0.00  0.00    +0.260 C 
ATOM     10  H   LIG    1       -5.080  -4.047   0.688  0.00  0.00    +0.430 HD
BRANCH   5  12
ATOM     11  C   LIG    1       -4.501  -5.252   2.974  0.00  0.00    +0.090 C 
ATOM     12  C   LIG    1       -4.009  -5.567   1.560  0.00  0.00    +0.160 C 
ATOM     13  C   LIG    1       -4.860  -6.689   0.962  0.00  0.00    +0.090 C 
ENDBRANCH   5  12
ENDBRANCH   1   8
BRANCH   2  14
ATOM     14  C   LIG    1        0.002  -0.004   0.002  0.00  0.00    +0.080 C 
BRANCH  14  15
ATOM     15  C   LIG    1       -0.019   1.526   0.010  0.00  0.00    +0.130 C 
BRANCH  15  16
ATOM     16  C   LIG    1        1.395   2.047  -0.000  0.00  0.00    +0.170 A 
ATOM     17  C   LIG    1        1.809   2.934  -0.982  0.00  0.00    -0.070 A 
ATOM     18  C   LIG    1        3.118   3.391  -0.948  0.00  0.00    +0.330 A 
ATOM     19  N   LIG    1        3.925   2.960   0.007  0.00  0.00    -0.520 NA
ATOM     20  C   LIG    1        3.498   2.112   0.921  0.00  0.00    +0.500 A 
ATOM     21  N   LIG    1        2.260   1.661   0.924  0.00  0.00    -0.520 NA
ENDBRANCH  15  16
ENDBRANCH  14  15
ENDBRANCH   2  14
TORSDOF 5
