REMARK  Name = ZINCkj000005f86X.1
REMARK                            x       y       z     vdW  Elec       q    Type
REMARK                         _______ _______ _______ _____ _____    ______ ____
ROOT
ATOM      1  N   LIG    1       -2.810   0.113  -1.248  0.00  0.00    -0.630 N 
ATOM      2  C   LIG    1       -3.857   0.147  -2.096  0.00  0.00    +0.520 C 
ATOM      3  O   LIG    1       -4.447   1.189  -2.289  0.00  0.00    -0.510 OA
ATOM      4  C   LIG    1       -2.098  -1.146  -1.013  0.00  0.00    +0.280 C 
ENDROOT
BRANCH   1   8
ATOM      5  N   LIG    1       -0.270   0.946   0.501  0.00  0.00    -0.400 N 
ATOM      6  C   LIG    1       -1.205   1.337   1.587  0.00  0.00    +0.280 C 
ATOM      7  C   LIG    1       -2.609   1.199   0.961  0.00  0.00    +0.060 C 
ATOM      8  C   LIG    1       -2.385   1.334  -0.559  0.00  0.00    +0.270 C 
ATOM      9  C   LIG    1       -0.861   1.542  -0.725  0.00  0.00    +0.270 C 
ATOM     10  H   LIG    1       -0.226  -0.059   0.418  0.00  0.00    +0.420 HD
BRANCH   5  12
ATOM     11  C   LIG    1        1.635   0.903   2.038  0.00  0.00    +0.090 C 
ATOM     12  C   LIG    1        1.067   1.500   0.750  0.00  0.00    +0.170 C 
ATOM     13  C   LIG    1        1.988   1.155  -0.422  0.00  0.00    +0.090 C 
ENDBRANCH   5  12
ENDBRANCH   1   8
BRANCH   2  14
ATOM     14  C   LIG    1       -4.295  -1.109  -2.803  0.00  0.00    +0.080 C 
BRANCH  14  15
ATOM     15  C   LIG    1       -5.495  -0.798  -3.700  0.00  0.00    +0.130 C 
BRANCH  15  16
ATOM     16  C   LIG    1       -5.933  -2.054  -4.408  0.00  0.00    +0.170 A 
ATOM     17  C   LIG    1       -7.241  -2.498  -4.305  0.00  0.00    -0.070 A 
ATOM     18  C   LIG    1       -7.599  -3.656  -4.977  0.00  0.00    +0.330 A 
ATOM     19  N   LIG    1       -6.683  -4.301  -5.682  0.00  0.00    -0.520 NA
ATOM     20  C   LIG    1       -5.446  -3.851  -5.753  0.00  0.00    +0.500 A 
ATOM     21  N   LIG    1       -5.071  -2.751  -5.131  0.00  0.00    -0.520 NA
ENDBRANCH  15  16
ENDBRANCH  14  15
ENDBRANCH   2  14
TORSDOF 5
