REMARK  Name = ZINCrD00000F5LC7.0
REMARK                            x       y       z     vdW  Elec       q    Type
REMARK                         _______ _______ _______ _____ _____    ______ ____
ROOT
ATOM      1  N   LIG    1       -1.036   1.653   1.787  0.00  0.00    -0.980 NA
ENDROOT
BRANCH   1   2
ATOM      2  S   LIG    1       -0.713   1.295   0.203  0.00  0.00    +2.670 S 
ATOM      3  O   LIG    1        0.427   2.064  -0.157  0.00  0.00    -0.960 OA
ATOM      4  O   LIG    1       -0.762  -0.121   0.093  0.00  0.00    -0.950 OA
BRANCH   2   6
ATOM      5  C   LIG    1       -1.832   2.793  -1.703  0.00  0.00    +0.220 C 
ATOM      6  C   LIG    1       -2.055   1.915  -0.756  0.00  0.00    -0.580 C 
ENDBRANCH   2   6
ENDBRANCH   1   2
BRANCH   1   7
ATOM      7  C   LIG    1       -0.496   2.875   2.387  0.00  0.00    +0.240 C 
ATOM      8  C   LIG    1       -0.893   4.081   1.534  0.00  0.00    +0.040 C 
BRANCH   7   9
ATOM      9  C   LIG    1        1.030   2.778   2.455  0.00  0.00    +0.200 C 
BRANCH   9  10
ATOM     10  C   LIG    1        1.421   1.522   3.189  0.00  0.00    -0.070 A 
ATOM     11  C   LIG    1        1.397   1.493   4.571  0.00  0.00    +0.040 A 
ATOM     12  C   LIG    1        1.752   0.339   5.245  0.00  0.00    +0.040 A 
ATOM     13  C   LIG    1        2.140  -0.783   4.536  0.00  0.00    -0.090 A 
ATOM     14  C   LIG    1        2.169  -0.753   3.154  0.00  0.00    +0.060 A 
ATOM     15 BR   LIG    1        2.631  -2.360   5.457  0.00  0.00    -0.050 Br
ATOM     16  C   LIG    1        1.809   0.400   2.481  0.00  0.00    +0.020 A 
ENDBRANCH   9  10
BRANCH   9  17
ATOM     17  O   LIG    1        1.549   3.916   3.147  0.00  0.00    -0.370 OA
ATOM     18  C   LIG    1        1.984   4.970   2.287  0.00  0.00    +0.210 C 
ENDBRANCH   9  17
ENDBRANCH   7   9
ENDBRANCH   1   7
BRANCH   1  19
ATOM     19  C   LIG    1       -1.863   0.747   2.588  0.00  0.00    +0.410 C 
BRANCH  19  20
ATOM     20  C   LIG    1       -3.300   1.199   2.536  0.00  0.00    +0.070 A 
ATOM     21  C   LIG    1       -4.255   0.727   1.701  0.00  0.00    -0.110 A 
ATOM     22  C   LIG    1       -5.444   1.409   1.978  0.00  0.00    +0.240 A 
ATOM     23  N   LIG    1       -5.210   2.265   2.940  0.00  0.00    -0.280 NA
ATOM     24  N   LIG    1       -3.863   2.151   3.309  0.00  0.00    -0.360 N 
BRANCH  24  25
ATOM     25  C   LIG    1       -3.186   2.928   4.350  0.00  0.00    +0.470 C 
BRANCH  25  26
ATOM     26  O   LIG    1       -2.757   4.179   3.807  0.00  0.00    -0.400 OA
ATOM     27  C   LIG    1       -2.010   4.984   4.722  0.00  0.00    +0.240 C 
ENDBRANCH  25  26
ENDBRANCH  24  25
ENDBRANCH  19  20
ENDBRANCH   1  19
TORSDOF 10
