REMARK  Name = ZINCqH0000000kbM.2
REMARK                            x       y       z     vdW  Elec       q    Type
REMARK                         _______ _______ _______ _____ _____    ______ ____
ROOT
ATOM      1  N   LIG    1        6.573   1.308   5.984  0.00  0.00    -0.450 N 
ATOM      2  C   LIG    1        5.884   0.962   4.857  0.00  0.00    +0.160 A 
ATOM      3  N   LIG    1        6.594   1.366   3.827  0.00  0.00    -0.280 NA
ATOM      4  N   LIG    1        7.674   1.933   4.232  0.00  0.00    -0.260 NA
ATOM      5  C   LIG    1        7.721   1.925   5.543  0.00  0.00    +0.230 A 
ENDROOT
BRANCH   5   6
ATOM      6  C   LIG    1        8.800   2.480   6.388  0.00  0.00    -0.010 A 
ATOM      7  C   LIG    1        9.500   3.614   5.974  0.00  0.00    +0.090 A 
ATOM      8  C   LIG    1       10.503   4.130   6.769  0.00  0.00    +0.030 A 
ATOM      9  C   LIG    1       10.822   3.519   7.970  0.00  0.00    -0.020 A 
ATOM     10  C   LIG    1       10.134   2.390   8.383  0.00  0.00    +0.030 A 
ATOM     11 CL   LIG    1       12.090   4.170   8.961  0.00  0.00    -0.060 Cl
ATOM     12  C   LIG    1        9.126   1.868   7.600  0.00  0.00    +0.040 A 
ENDBRANCH   5   6
BRANCH   1  13
ATOM     13  C   LIG    1        6.173   1.069   7.373  0.00  0.00    +0.350 C 
BRANCH  13  15
ATOM     14  C   LIG    1        7.281  -0.522   8.858  0.00  0.00    +0.070 C 
ATOM     15  C   LIG    1        6.567  -0.329   7.776  0.00  0.00    -0.060 C 
ENDBRANCH  13  15
ENDBRANCH   1  13
BRANCH   2  16
ATOM     16  S   LIG    1        4.330   0.134   4.794  0.00  0.00    +0.010 S 
BRANCH  16  17
ATOM     17  C   LIG    1        4.091   0.050   3.001  0.00  0.00    +0.100 C 
BRANCH  17  18
ATOM     18  C   LIG    1        2.765  -0.651   2.696  0.00  0.00    +0.210 C 
BRANCH  18  19
ATOM     19  N   LIG    1        2.571  -0.719   1.241  0.00  0.00    -0.520 NA
ATOM     20  C   LIG    1        1.210  -1.167   0.912  0.00  0.00    +0.170 C 
ATOM     21  C   LIG    1        1.046  -1.178  -0.616  0.00  0.00    +0.190 C 
ATOM     22  C   LIG    1        2.259  -1.927  -1.218  0.00  0.00    +0.010 C 
ATOM     23  C   LIG    1        3.319  -0.819  -1.411  0.00  0.00    +0.010 C 
ATOM     24  C   LIG    1        2.613   0.461  -0.902  0.00  0.00    +0.190 C 
ATOM     25  O   LIG    1        1.204   0.185  -1.075  0.00  0.00    -0.370 OA
ATOM     26  C   LIG    1        2.875   0.573   0.608  0.00  0.00    +0.160 C 
ENDBRANCH  18  19
ENDBRANCH  17  18
ENDBRANCH  16  17
ENDBRANCH   2  16
TORSDOF 7
