REMARK  Name = ZINCpe00000MJIPO.0
REMARK                            x       y       z     vdW  Elec       q    Type
REMARK                         _______ _______ _______ _____ _____    ______ ____
ROOT
ATOM      1  N   LIG    1       -0.853   0.284  -4.736  0.00  0.00    -1.000 NA
ENDROOT
BRANCH   1   2
ATOM      2  S   LIG    1       -1.230  -0.842  -5.891  0.00  0.00    +2.590 S 
ATOM      3  O   LIG    1       -2.595  -1.151  -5.646  0.00  0.00    -0.930 OA
ATOM      4  O   LIG    1       -0.219  -1.831  -5.758  0.00  0.00    -0.920 OA
ATOM      5  C   LIG    1       -1.051   0.046  -7.462  0.00  0.00    -0.290 C 
ENDBRANCH   1   2
BRANCH   1   6
ATOM      6  C   LIG    1        0.543   0.493  -4.345  0.00  0.00    +0.280 C 
BRANCH   6   7
ATOM      7  C   LIG    1        0.857  -0.349  -3.106  0.00  0.00    +0.120 C 
BRANCH   7   8
ATOM      8  C   LIG    1        2.276  -0.037  -2.624  0.00  0.00    -0.010 C 
ATOM      9  C   LIG    1        3.301  -0.433  -3.706  0.00  0.00    +0.030 C 
ATOM     10  C   LIG    1        4.504  -0.988  -2.904  0.00  0.00    +0.010 C 
ATOM     11  C   LIG    1        3.819  -1.754  -1.745  0.00  0.00    +0.010 C 
ATOM     12  C   LIG    1        2.605  -0.877  -1.377  0.00  0.00    +0.010 C 
ENDBRANCH   7   8
BRANCH   7  14
ATOM     13  C   LIG    1       -0.543  -2.289  -3.241  0.00  0.00    +0.180 C 
ATOM     14  O   LIG    1        0.760  -1.736  -3.435  0.00  0.00    -0.340 OA
ENDBRANCH   7  14
ENDBRANCH   6   7
ENDBRANCH   1   6
BRANCH   1  15
ATOM     15  C   LIG    1       -1.916   1.070  -4.105  0.00  0.00    +0.430 C 
BRANCH  15  16
ATOM     16  C   LIG    1       -2.330   0.412  -2.814  0.00  0.00    +0.150 A 
ATOM     17  N   LIG    1       -3.266  -0.489  -2.668  0.00  0.00    -0.250 NA
ATOM     18  N   LIG    1       -3.343  -0.839  -1.430  0.00  0.00    -0.280 NA
ATOM     19  C   LIG    1       -2.457  -0.186  -0.738  0.00  0.00    +0.170 A 
ATOM     20  C   LIG    1       -2.158  -0.310   0.733  0.00  0.00    +0.140 C 
ATOM     21  C   LIG    1       -2.023   1.095   1.329  0.00  0.00    +0.230 C 
ATOM     22  O   LIG    1       -0.679   1.546   1.185  0.00  0.00    -0.370 OA
ATOM     23  C   LIG    1       -0.013   1.086   0.008  0.00  0.00    +0.230 C 
ATOM     24  C   LIG    1       -0.751   1.592  -1.235  0.00  0.00    +0.270 C 
ATOM     25  N   LIG    1       -1.803   0.641  -1.592  0.00  0.00    -0.470 N 
ENDBRANCH  15  16
ENDBRANCH   1  15
TORSDOF 7
