REMARK  Name = ZINCrH000004tTBM.0
REMARK                            x       y       z     vdW  Elec       q    Type
REMARK                         _______ _______ _______ _____ _____    ______ ____
ROOT
ATOM      1  O   LIG    1        3.363   3.269  -0.992  0.00  0.00    -0.490 OA
ATOM      2  C   LIG    1        3.674   2.266  -1.599  0.00  0.00    +0.500 C 
ATOM      3  N   LIG    1        4.872   2.195  -2.212  0.00  0.00    -0.680 N 
ATOM      4  H   LIG    1        5.148   1.370  -2.642  0.00  0.00    +0.410 HD
ENDROOT
BRANCH   3   5
ATOM      5  C   LIG    1        5.718   3.309  -2.228  0.00  0.00    +0.150 A 
ATOM      6  C   LIG    1        5.756   4.170  -1.139  0.00  0.00    +0.020 A 
ATOM      7  C   LIG    1        6.596   5.266  -1.156  0.00  0.00    +0.030 A 
ATOM      8  C   LIG    1        7.390   5.514  -2.261  0.00  0.00    -0.010 A 
ATOM      9  C   LIG    1        7.350   4.662  -3.349  0.00  0.00    +0.030 A 
ATOM     10  C   LIG    1        6.517   3.561  -3.337  0.00  0.00    -0.110 A 
BRANCH  10  11
ATOM     11  C   LIG    1        6.473   2.634  -4.524  0.00  0.00    +0.140 C 
BRANCH  11  12
ATOM     12  C   LIG    1        5.339   3.033  -5.432  0.00  0.00    -0.130 A 
ATOM     13  C   LIG    1        4.077   2.484  -5.261  0.00  0.00    +0.050 A 
ATOM     14  C   LIG    1        3.062   2.885  -6.117  0.00  0.00    -0.040 A 
ATOM     15  C   LIG    1        3.343   3.802  -7.111  0.00  0.00    +0.260 A 
ATOM     16  N   LIG    1        4.557   4.299  -7.247  0.00  0.00    -0.480 NA
ATOM     17  C   LIG    1        5.544   3.946  -6.449  0.00  0.00    +0.260 A 
ENDBRANCH  11  12
ENDBRANCH  10  11
ENDBRANCH   3   5
BRANCH   2  18
ATOM     18  C   LIG    1        2.722   1.101  -1.667  0.00  0.00    +0.090 C 
BRANCH  18  19
ATOM     19  C   LIG    1        1.445   1.439  -0.895  0.00  0.00    +0.070 C 
ATOM     20  C   LIG    1        0.643   2.491  -1.631  0.00  0.00    +0.530 C 
ATOM     21  N   LIG    1       -0.545   1.941  -1.935  0.00  0.00    -0.670 N 
ATOM     22  H   LIG    1       -1.249   2.406  -2.415  0.00  0.00    +0.410 HD
ATOM     23  C   LIG    1       -0.647   0.623  -1.489  0.00  0.00    +0.150 A 
ATOM     24  C   LIG    1       -1.689  -0.296  -1.593  0.00  0.00    -0.010 A 
ATOM     25  C   LIG    1       -1.552  -1.562  -1.062  0.00  0.00    +0.050 A 
ATOM     26  C   LIG    1       -0.382  -1.929  -0.424  0.00  0.00    -0.010 A 
ATOM     27  C   LIG    1        0.658  -1.021  -0.316  0.00  0.00    +0.070 A 
ATOM     28  O   LIG    1        1.004   3.618  -1.896  0.00  0.00    -0.470 OA
ATOM     29  C   LIG    1        0.524   0.242  -0.845  0.00  0.00    -0.150 A 
ENDBRANCH  18  19
ENDBRANCH   2  18
TORSDOF 5
