REMARK  Name = ZINCrH000004o1Dv.2
REMARK                            x       y       z     vdW  Elec       q    Type
REMARK                         _______ _______ _______ _____ _____    ______ ____
ROOT
ATOM      1  C   LIG    1       -1.417   1.695  -3.497  0.00  0.00    +0.530 C 
ATOM      2  N   LIG    1       -1.941   1.014  -4.535  0.00  0.00    -0.670 N 
ATOM      3  H   LIG    1       -2.069   0.054  -4.471  0.00  0.00    +0.410 HD
ATOM      4  O   LIG    1       -1.168   2.876  -3.611  0.00  0.00    -0.500 OA
ENDROOT
BRANCH   2   5
ATOM      5  C   LIG    1       -2.301   1.692  -5.708  0.00  0.00    +0.130 A 
ATOM      6  C   LIG    1       -2.714   3.016  -5.645  0.00  0.00    +0.040 A 
ATOM      7  C   LIG    1       -3.063   3.686  -6.801  0.00  0.00    -0.020 A 
ATOM      8  C   LIG    1       -3.012   3.031  -8.025  0.00  0.00    +0.090 A 
ATOM      9  C   LIG    1       -2.604   1.705  -8.087  0.00  0.00    +0.010 A 
ATOM     10  C   LIG    1       -2.250   1.037  -6.932  0.00  0.00    +0.010 A 
BRANCH   8  11
ATOM     11  N   LIG    1       -3.371   3.708  -9.195  0.00  0.00    -0.490 N 
ATOM     12  C   LIG    1       -2.278   3.677 -10.178  0.00  0.00    +0.160 C 
ATOM     13  C   LIG    1       -2.734   4.375 -11.463  0.00  0.00    +0.220 C 
ATOM     14  O   LIG    1       -3.146   5.709 -11.153  0.00  0.00    -0.380 OA
ATOM     15  C   LIG    1       -4.209   5.777 -10.199  0.00  0.00    +0.220 C 
ATOM     16  C   LIG    1       -3.768   5.093  -8.902  0.00  0.00    +0.160 C 
ENDBRANCH   8  11
ENDBRANCH   2   5
BRANCH   1  18
ATOM     17  C   LIG    1       -2.444   0.413  -1.640  0.00  0.00    +0.050 C 
ATOM     18  C   LIG    1       -1.140   0.988  -2.195  0.00  0.00    +0.140 C 
BRANCH  18  19
ATOM     19  N   LIG    1       -0.575   1.941  -1.231  0.00  0.00    -0.490 NA
ATOM     20  C   LIG    1       -0.533   1.359   0.127  0.00  0.00    +0.180 C 
ATOM     21  C   LIG    1        0.738   1.961   0.777  0.00  0.00    +0.030 C 
ATOM     22  C   LIG    1        1.720   2.001  -0.427  0.00  0.00    +0.010 C 
ATOM     23  C   LIG    1        0.793   2.334  -1.616  0.00  0.00    +0.240 C 
BRANCH  23  24
ATOM     24  C   LIG    1        1.225   1.559  -2.834  0.00  0.00    -0.130 A 
ATOM     25  C   LIG    1        1.332   2.120  -4.040  0.00  0.00    +0.000 A 
ATOM     26  S   LIG    1        1.858   0.913  -5.207  0.00  0.00    +0.100 S 
ATOM     27  C   LIG    1        1.905  -0.321  -3.955  0.00  0.00    -0.060 A 
ATOM     28  C   LIG    1        1.548   0.214  -2.786  0.00  0.00    +0.010 A 
ENDBRANCH  23  24
ENDBRANCH  18  19
ENDBRANCH   1  18
TORSDOF 5
