REMARK  Name = ZINCkj000005hxKK.0
REMARK                            x       y       z     vdW  Elec       q    Type
REMARK                         _______ _______ _______ _____ _____    ______ ____
ROOT
ATOM      1  C   LIG    1       -2.869   1.797  -0.028  0.00  0.00    -0.030 C 
ATOM      2  C   LIG    1       -2.208   1.161   1.197  0.00  0.00    +0.010 C 
ATOM      3  C   LIG    1       -0.736   1.583   1.264  0.00  0.00    +0.030 C 
ATOM      4  C   LIG    1       -0.013   1.086   0.008  0.00  0.00    +0.300 C 
ATOM      5  N   LIG    1       -0.729   1.575  -1.178  0.00  0.00    -1.000 NA
ATOM      6  C   LIG    1       -2.168   1.303  -1.297  0.00  0.00    +0.310 C 
ENDROOT
BRANCH   5   7
ATOM      7  S   LIG    1        0.071   2.417  -2.359  0.00  0.00    +2.700 S 
ATOM      8  O   LIG    1        1.220   2.980  -1.741  0.00  0.00    -0.930 OA
ATOM      9  O   LIG    1       -0.910   3.195  -3.031  0.00  0.00    -0.960 OA
BRANCH   7  10
ATOM     10  C   LIG    1        0.661   1.240  -3.530  0.00  0.00    -0.720 A 
ATOM     11  C   LIG    1        0.172   1.246  -4.821  0.00  0.00    +0.160 A 
ATOM     12  C   LIG    1        0.635   0.322  -5.741  0.00  0.00    -0.030 A 
ATOM     13  C   LIG    1        1.587  -0.608  -5.370  0.00  0.00    +0.120 A 
ATOM     14  C   LIG    1        2.080  -0.617  -4.080  0.00  0.00    -0.090 A 
ATOM     15  C   LIG    1        1.622   0.311  -3.157  0.00  0.00    +0.220 A 
BRANCH  15  16
ATOM     16  O   LIG    1        2.109   0.308  -1.888  0.00  0.00    -0.310 OA
ATOM     17  C   LIG    1        3.096  -0.677  -1.575  0.00  0.00    +0.260 C 
ENDBRANCH  15  16
ENDBRANCH   7  10
ENDBRANCH   5   7
BRANCH   1  18
ATOM     18  C   LIG    1       -4.347   1.402  -0.074  0.00  0.00    +0.270 C 
BRANCH  18  20
ATOM     19  C   LIG    1       -6.463   1.598   1.038  0.00  0.00    +0.320 C 
ATOM     20  N   LIG    1       -5.044   1.978   1.083  0.00  0.00    -0.510 N 
ATOM     21  H   LIG    1       -4.965   2.983   1.057  0.00  0.00    +0.430 HD
ATOM     22  H   LIG    1       -4.629   1.629   1.934  0.00  0.00    +0.430 HD
ENDBRANCH  18  20
ENDBRANCH   1  18
TORSDOF 5
