REMARK  Name = ZINCpe00000gMe45.0
REMARK                            x       y       z     vdW  Elec       q    Type
REMARK                         _______ _______ _______ _____ _____    ______ ____
ROOT
ATOM      1  N   LIG    1        3.401   2.254  -0.018  0.00  0.00    -0.450 N 
ATOM      2  C   LIG    1        4.192   2.043  -1.258  0.00  0.00    +0.210 C 
ATOM      3  C   LIG    1        5.065   3.320  -1.343  0.00  0.00    +0.020 C 
ATOM      4  C   LIG    1        4.109   4.426  -0.839  0.00  0.00    +0.080 C 
ATOM      5  C   LIG    1        3.044   3.689  -0.007  0.00  0.00    +0.220 C 
ENDROOT
BRANCH   1   9
ATOM      6  C   LIG    1        0.002  -0.004   0.002  0.00  0.00    -0.000 A 
ATOM      7  C   LIG    1        1.226  -0.684  -0.013  0.00  0.00    +0.130 A 
ATOM      8  C   LIG    1        2.387   0.069  -0.020  0.00  0.00    +0.030 A 
ATOM      9  C   LIG    1        2.267   1.460  -0.012  0.00  0.00    +0.270 A 
ATOM     10  N   LIG    1        1.062   2.021   0.003  0.00  0.00    -0.280 NA
ATOM     11  N   LIG    1       -0.016   1.324   0.009  0.00  0.00    -0.190 NA
BRANCH   6  15
ATOM     12  C   LIG    1       -3.702  -0.859   0.031  0.00  0.00    +0.280 C 
ATOM     13  N   LIG    1       -2.444  -0.107   0.024  0.00  0.00    -0.710 N 
ATOM     14  H   LIG    1       -2.459   0.863   0.029  0.00  0.00    +0.410 HD
ATOM     15  C   LIG    1       -1.267  -0.763   0.010  0.00  0.00    +0.580 C 
ATOM     16  O   LIG    1       -1.248  -1.978   0.003  0.00  0.00    -0.530 OA
ENDBRANCH   6  15
ENDBRANCH   1   9
BRANCH   4  17
ATOM     17  C   LIG    1        4.857   5.411   0.022  0.00  0.00    -0.230 A 
ATOM     18  C   LIG    1        4.944   6.745  -0.186  0.00  0.00    +0.230 A 
ATOM     19  N   LIG    1        5.699   7.268   0.803  0.00  0.00    -0.370 N 
ATOM     20  N   LIG    1        6.088   6.220   1.647  0.00  0.00    -0.290 NA
ATOM     21  C   LIG    1        5.578   5.109   1.182  0.00  0.00    +0.240 A 
BRANCH  19  22
ATOM     22  C   LIG    1        6.049   8.681   0.966  0.00  0.00    +0.250 C 
ATOM     23  C   LIG    1        4.879   9.552   0.504  0.00  0.00    +0.050 C 
ATOM     24  C   LIG    1        7.286   9.000   0.124  0.00  0.00    +0.040 C 
ENDBRANCH  19  22
ENDBRANCH   4  17
BRANCH   3  25
ATOM     25  C   LIG    1        5.491   3.590  -2.788  0.00  0.00    +0.190 C 
BRANCH  25  26
ATOM     26  O   LIG    1        6.461   2.619  -3.187  0.00  0.00    -0.570 OA
ATOM     27  H   LIG    1        6.777   2.729  -4.094  0.00  0.00    +0.380 HD
ENDBRANCH  25  26
ENDBRANCH   3  25
TORSDOF 6
