REMARK  Name = ZINCvU0000000Gcm.0
REMARK                            x       y       z     vdW  Elec       q    Type
REMARK                         _______ _______ _______ _____ _____    ______ ____
ROOT
ATOM      1  C   LIG    1        1.066  -0.955  -0.091  0.00  0.00    +0.080 C 
ENDROOT
BRANCH   1   3
ATOM      2  O   LIG    1        3.421  -0.819  -0.174  0.00  0.00    -0.500 OA
ATOM      3  C   LIG    1        2.375  -0.208  -0.104  0.00  0.00    +0.550 C 
ATOM      4  N   LIG    1        2.384   1.138  -0.039  0.00  0.00    -0.560 N 
BRANCH   4   5
ATOM      5  C   LIG    1        3.646   1.869  -0.175  0.00  0.00    +0.250 C 
ATOM      6  C   LIG    1        4.325   1.476  -1.489  0.00  0.00    +0.010 C 
ATOM      7  C   LIG    1        5.643   2.240  -1.631  0.00  0.00    +0.020 C 
ATOM      8  C   LIG    1        6.562   1.893  -0.458  0.00  0.00    +0.010 C 
ATOM      9  C   LIG    1        5.883   2.287   0.856  0.00  0.00    +0.020 C 
ATOM     10  C   LIG    1        4.565   1.523   0.998  0.00  0.00    +0.010 C 
ENDBRANCH   4   5
BRANCH   4  11
ATOM     11  C   LIG    1        1.188   1.837   0.158  0.00  0.00    +0.130 A 
ATOM     12  C   LIG    1        0.695   2.667  -0.840  0.00  0.00    +0.010 A 
ATOM     13  C   LIG    1       -0.484   3.360  -0.640  0.00  0.00    +0.030 A 
ATOM     14  C   LIG    1       -1.177   3.219   0.548  0.00  0.00    +0.010 A 
ATOM     15  C   LIG    1       -0.689   2.392   1.543  0.00  0.00    +0.030 A 
ATOM     16  C   LIG    1        0.492   1.701   1.352  0.00  0.00    +0.010 A 
ENDBRANCH   4  11
ENDBRANCH   1   3
BRANCH   1  17
ATOM     17  S   LIG    1        1.373  -2.719  -0.380  0.00  0.00    +0.110 S 
BRANCH  17  18
ATOM     18  C   LIG    1       -0.245  -3.416  -0.330  0.00  0.00    +0.200 A 
ATOM     19  N   LIG    1       -1.355  -2.746  -0.120  0.00  0.00    -0.320 NA
ATOM     20  N   LIG    1       -2.410  -3.673  -0.163  0.00  0.00    -0.480 N 
ATOM     21  H   LIG    1       -3.354  -3.486  -0.047  0.00  0.00    +0.440 HD
ATOM     22  C   LIG    1       -1.841  -4.887  -0.396  0.00  0.00    +0.330 A 
ATOM     23  N   LIG    1       -0.534  -4.707  -0.493  0.00  0.00    -0.510 NA
BRANCH  22  24
ATOM     24  C   LIG    1       -2.550  -6.166  -0.517  0.00  0.00    +0.020 C 
ATOM     25  C   LIG    1       -1.860  -7.298  -0.750  0.00  0.00    +0.120 C 
BRANCH  25  26
ATOM     26  C   LIG    1       -2.571  -8.581  -0.872  0.00  0.00    -0.090 A 
ATOM     27  C   LIG    1       -3.962  -8.628  -0.741  0.00  0.00    +0.070 A 
ATOM     28  C   LIG    1       -4.623  -9.832  -0.862  0.00  0.00    -0.020 A 
ATOM     29  C   LIG    1       -3.910 -10.996  -1.101  0.00  0.00    +0.110 A 
ATOM     30  C   LIG    1       -2.530 -10.958  -1.226  0.00  0.00    -0.010 A 
ATOM     31  F   LIG    1       -4.562 -12.174  -1.212  0.00  0.00    -0.140 F 
ATOM     32  C   LIG    1       -1.858  -9.759  -1.113  0.00  0.00    +0.080 A 
ENDBRANCH  25  26
ENDBRANCH  22  24
ENDBRANCH  17  18
ENDBRANCH   1  17
TORSDOF 7
