REMARK  Name = ZINCvU0000000Gcm.1
REMARK                            x       y       z     vdW  Elec       q    Type
REMARK                         _______ _______ _______ _____ _____    ______ ____
ROOT
ATOM      1  C   LIG    1        1.183  -1.064   0.011  0.00  0.00    +0.120 C 
ENDROOT
BRANCH   1   3
ATOM      2  O   LIG    1        3.528  -0.839  -0.129  0.00  0.00    -0.510 OA
ATOM      3  C   LIG    1        2.464  -0.271   0.003  0.00  0.00    +0.540 C 
ATOM      4  N   LIG    1        2.428   1.069   0.144  0.00  0.00    -0.560 N 
BRANCH   4   5
ATOM      5  C   LIG    1        3.662   1.851   0.029  0.00  0.00    +0.250 C 
ATOM      6  C   LIG    1        4.257   1.663  -1.368  0.00  0.00    +0.010 C 
ATOM      7  C   LIG    1        5.545   2.479  -1.488  0.00  0.00    +0.020 C 
ATOM      8  C   LIG    1        6.550   2.003  -0.437  0.00  0.00    +0.010 C 
ATOM      9  C   LIG    1        5.955   2.192   0.960  0.00  0.00    +0.020 C 
ATOM     10  C   LIG    1        4.667   1.375   1.080  0.00  0.00    +0.010 C 
ENDBRANCH   4   5
BRANCH   4  11
ATOM     11  C   LIG    1        1.213   1.713   0.399  0.00  0.00    +0.120 A 
ATOM     12  C   LIG    1        0.930   2.186   1.674  0.00  0.00    +0.020 A 
ATOM     13  C   LIG    1       -0.272   2.817   1.925  0.00  0.00    +0.020 A 
ATOM     14  C   LIG    1       -1.190   2.988   0.905  0.00  0.00    +0.020 A 
ATOM     15  C   LIG    1       -0.912   2.519  -0.366  0.00  0.00    +0.030 A 
ATOM     16  C   LIG    1        0.287   1.882  -0.622  0.00  0.00    +0.010 A 
ENDBRANCH   4  11
ENDBRANCH   1   3
BRANCH   1  17
ATOM     17  S   LIG    1        1.564  -2.828  -0.129  0.00  0.00    +0.090 S 
BRANCH  17  18
ATOM     18  C   LIG    1       -0.066  -3.497  -0.096  0.00  0.00    +0.250 A 
ATOM     19  N   LIG    1       -1.181  -2.808   0.005  0.00  0.00    -0.530 NA
ATOM     20  C   LIG    1       -2.231  -3.645  -0.001  0.00  0.00    +0.270 A 
ATOM     21  N   LIG    1       -1.788  -4.881  -0.107  0.00  0.00    -0.300 NA
ATOM     22  N   LIG    1       -0.387  -4.808  -0.175  0.00  0.00    -0.460 N 
ATOM     23  H   LIG    1        0.229  -5.552  -0.261  0.00  0.00    +0.450 HD
BRANCH  20  24
ATOM     24  C   LIG    1       -3.647  -3.246   0.093  0.00  0.00    +0.070 C 
ATOM     25  C   LIG    1       -4.610  -4.181   0.076  0.00  0.00    +0.070 C 
BRANCH  25  26
ATOM     26  C   LIG    1       -6.026  -3.783   0.171  0.00  0.00    -0.070 A 
ATOM     27  C   LIG    1       -6.368  -2.433   0.284  0.00  0.00    +0.060 A 
ATOM     28  C   LIG    1       -7.695  -2.066   0.368  0.00  0.00    -0.010 A 
ATOM     29  C   LIG    1       -8.687  -3.033   0.349  0.00  0.00    +0.100 A 
ATOM     30  C   LIG    1       -8.353  -4.374   0.242  0.00  0.00    -0.010 A 
ATOM     31  F   LIG    1       -9.985  -2.668   0.436  0.00  0.00    -0.140 F 
ATOM     32  C   LIG    1       -7.031  -4.753   0.153  0.00  0.00    +0.070 A 
ENDBRANCH  25  26
ENDBRANCH  20  24
ENDBRANCH  17  18
ENDBRANCH   1  17
TORSDOF 7
