REMARK  Name = ZINCpk000000oS45.0
REMARK                            x       y       z     vdW  Elec       q    Type
REMARK                         _______ _______ _______ _____ _____    ______ ____
ROOT
ATOM      1  N   LIG    1       -0.016   1.344   0.009  0.00  0.00    -0.720 N 
ATOM      2  H   LIG    1       -0.863   1.817   0.016  0.00  0.00    +0.400 HD
ATOM      3  C   LIG    1        0.002  -0.004   0.002  0.00  0.00    +0.520 C 
ATOM      4  O   LIG    1        1.060  -0.596  -0.011  0.00  0.00    -0.500 OA
ENDROOT
BRANCH   1   5
ATOM      5  C   LIG    1        1.242   2.093   0.001  0.00  0.00    +0.200 C 
ATOM      6  C   LIG    1        2.062   1.728   1.241  0.00  0.00    +0.050 C 
ATOM      7  C   LIG    1        1.266   2.080   2.500  0.00  0.00    +0.030 C 
ATOM      8  C   LIG    1        0.966   3.580   2.511  0.00  0.00    +0.020 C 
ATOM      9  C   LIG    1        0.147   3.946   1.271  0.00  0.00    +0.010 C 
ATOM     10  C   LIG    1        0.943   3.594   0.012  0.00  0.00    +0.060 C 
BRANCH   5  11
ATOM     11  C   LIG    1        2.026   1.747  -1.238  0.00  0.00    +0.460 C 
ATOM     12  O   LIG    1        2.695   2.591  -1.786  0.00  0.00    -0.510 OA
BRANCH  11  13
ATOM     13  O   LIG    1        1.980   0.500  -1.734  0.00  0.00    -0.320 OA
BRANCH  13  15
ATOM     14  C   LIG    1        2.585  -1.225  -3.343  0.00  0.00    +0.070 C 
ATOM     15  C   LIG    1        2.760   0.238  -2.931  0.00  0.00    +0.190 C 
ENDBRANCH  13  15
ENDBRANCH  11  13
ENDBRANCH   5  11
ENDBRANCH   1   5
BRANCH   3  16
ATOM     16  C   LIG    1       -1.293  -0.775   0.010  0.00  0.00    -0.020 C 
ATOM     17  C   LIG    1       -2.087  -0.427   1.271  0.00  0.00    +0.030 C 
ATOM     18  C   LIG    1       -3.417  -1.184   1.264  0.00  0.00    +0.020 C 
ATOM     19  C   LIG    1       -3.141  -2.691   1.268  0.00  0.00    +0.280 C 
ATOM     20  N   LIG    1       -2.257  -3.013   0.139  0.00  0.00    -1.000 NA
ATOM     21  C   LIG    1       -0.993  -2.277  -0.001  0.00  0.00    +0.320 C 
BRANCH  20  22
ATOM     22  S   LIG    1       -2.679  -4.182  -0.956  0.00  0.00    +2.600 S 
ATOM     23  O   LIG    1       -1.997  -3.809  -2.146  0.00  0.00    -0.950 OA
ATOM     24  O   LIG    1       -4.098  -4.215  -0.905  0.00  0.00    -0.950 OA
BRANCH  22  25
ATOM     25  C   LIG    1       -1.982  -5.712  -0.276  0.00  0.00    -0.370 C 
ATOM     26  C   LIG    1       -2.308  -6.880  -1.209  0.00  0.00    +0.070 C 
ENDBRANCH  22  25
ENDBRANCH  20  22
ENDBRANCH   3  16
TORSDOF 7
