REMARK  Name = ZINCrg00001JduQ9.1
REMARK                            x       y       z     vdW  Elec       q    Type
REMARK                         _______ _______ _______ _____ _____    ______ ____
ROOT
ATOM      1  N   LIG    1        2.415   1.119  -0.015  0.00  0.00    -0.440 N 
ATOM      2  C   LIG    1        1.171   1.670  -0.000  0.00  0.00    +0.570 A 
ATOM      3  N   LIG    1        1.275   2.984   0.000  0.00  0.00    -0.500 NA
ATOM      4  C   LIG    1        2.561   3.339  -0.005  0.00  0.00    +0.350 A 
ATOM      5  N   LIG    1        3.216   4.560  -0.005  0.00  0.00    -0.510 N 
ATOM      6  C   LIG    1        2.443   5.805   0.008  0.00  0.00    +0.350 C 
ATOM      7  C   LIG    1        4.561   4.603  -0.018  0.00  0.00    +0.710 A 
ATOM      8  O   LIG    1        5.120   5.684  -0.018  0.00  0.00    -0.540 OA
ATOM      9  N   LIG    1        5.303   3.482  -0.031  0.00  0.00    -0.550 N 
ATOM     10  C   LIG    1        6.764   3.584  -0.044  0.00  0.00    +0.360 C 
ATOM     11  C   LIG    1        4.722   2.265  -0.032  0.00  0.00    +0.600 A 
ATOM     12  O   LIG    1        5.405   1.256  -0.044  0.00  0.00    -0.520 OA
ATOM     13  C   LIG    1        3.318   2.172  -0.018  0.00  0.00    -0.170 A 
ENDROOT
BRANCH   2  14
ATOM     14  N   LIG    1       -0.011   0.966   0.007  0.00  0.00    -0.550 N 
ATOM     15  H   LIG    1        0.002  -0.004   0.002  0.00  0.00    +0.400 HD
BRANCH  14  16
ATOM     16  N   LIG    1       -1.234   1.650   0.017  0.00  0.00    -0.210 NA
ATOM     17  C   LIG    1       -2.349   0.986   0.018  0.00  0.00    +0.240 C 
BRANCH  17  18
ATOM     18  C   LIG    1       -3.636   1.705   0.029  0.00  0.00    -0.100 A 
ATOM     19  C   LIG    1       -3.657   3.102   0.042  0.00  0.00    +0.110 A 
ATOM     20  C   LIG    1       -4.862   3.771   0.046  0.00  0.00    -0.080 A 
ATOM     21  C   LIG    1       -6.054   3.058   0.047  0.00  0.00    +0.150 A 
ATOM     22  C   LIG    1       -6.038   1.669   0.040  0.00  0.00    -0.020 A 
ATOM     23  C   LIG    1       -4.838   0.992   0.030  0.00  0.00    +0.090 A 
BRANCH  21  24
ATOM     24  O   LIG    1       -7.240   3.721   0.057  0.00  0.00    -0.320 OA
ATOM     25  C   LIG    1       -7.184   5.149   0.064  0.00  0.00    +0.240 C 
ENDBRANCH  21  24
ENDBRANCH  17  18
ENDBRANCH  14  16
ENDBRANCH   2  14
BRANCH   1  26
ATOM     26  C   LIG    1        2.737  -0.310  -0.026  0.00  0.00    +0.350 C 
BRANCH  26  28
ATOM     27  C   LIG    1        3.920  -1.397  -1.865  0.00  0.00    +0.090 C 
ATOM     28  C   LIG    1        2.834  -0.793  -1.450  0.00  0.00    -0.090 C 
ENDBRANCH  26  28
ENDBRANCH   1  26
TORSDOF 6
