REMARK  Name = ZINCrg00001JduQ9.0
REMARK                            x       y       z     vdW  Elec       q    Type
REMARK                         _______ _______ _______ _____ _____    ______ ____
ROOT
ATOM      1  N   LIG    1        3.421  -0.863  -0.035  0.00  0.00    -0.370 N 
ATOM      2  C   LIG    1        2.851  -2.100  -0.036  0.00  0.00    +0.410 A 
ATOM      3  N   LIG    1        1.539  -1.974  -0.023  0.00  0.00    -0.460 NA
ATOM      4  C   LIG    1        1.210  -0.684  -0.013  0.00  0.00    +0.320 A 
ATOM      5  N   LIG    1        0.002  -0.004   0.002  0.00  0.00    -0.510 N 
ATOM      6  C   LIG    1       -1.258  -0.752   0.011  0.00  0.00    +0.350 C 
ATOM      7  C   LIG    1       -0.016   1.342   0.009  0.00  0.00    +0.710 A 
ATOM      8  O   LIG    1       -1.086   1.919   0.018  0.00  0.00    -0.530 OA
ATOM      9  N   LIG    1        1.117   2.065   0.003  0.00  0.00    -0.550 N 
ATOM     10  C   LIG    1        1.038   3.528   0.011  0.00  0.00    +0.350 C 
ATOM     11  C   LIG    1        2.325   1.464  -0.013  0.00  0.00    +0.600 A 
ATOM     12  O   LIG    1        3.344   2.131  -0.019  0.00  0.00    -0.500 OA
ATOM     13  C   LIG    1        2.393   0.051  -0.021  0.00  0.00    -0.120 A 
ENDROOT
BRANCH   2  14
ATOM     14  N   LIG    1        3.533  -3.285  -0.048  0.00  0.00    -0.180 NA
ATOM     15  N   LIG    1        2.911  -4.358  -0.047  0.00  0.00    -0.140 NA
BRANCH  15  16
ATOM     16  C   LIG    1        3.641  -5.628  -0.061  0.00  0.00    +0.280 C 
BRANCH  16  17
ATOM     17  C   LIG    1        3.287  -6.423   1.169  0.00  0.00    -0.130 A 
ATOM     18  C   LIG    1        4.034  -6.278   2.324  0.00  0.00    +0.060 A 
ATOM     19  C   LIG    1        3.708  -7.002   3.455  0.00  0.00    -0.080 A 
ATOM     20  C   LIG    1        2.638  -7.884   3.428  0.00  0.00    +0.140 A 
ATOM     21  C   LIG    1        1.894  -8.033   2.266  0.00  0.00    -0.010 A 
ATOM     22  C   LIG    1        2.220  -7.302   1.140  0.00  0.00    +0.090 A 
BRANCH  20  23
ATOM     23  O   LIG    1        2.320  -8.602   4.537  0.00  0.00    -0.320 OA
ATOM     24  C   LIG    1        3.130  -8.398   5.696  0.00  0.00    +0.250 C 
ENDBRANCH  20  23
ENDBRANCH  16  17
ENDBRANCH  15  16
ENDBRANCH   2  14
BRANCH   1  25
ATOM     25  C   LIG    1        4.855  -0.563  -0.046  0.00  0.00    +0.360 C 
BRANCH  25  27
ATOM     26  C   LIG    1        5.955   0.628  -1.872  0.00  0.00    +0.080 C 
ATOM     27  C   LIG    1        5.334  -0.454  -1.471  0.00  0.00    -0.070 C 
ENDBRANCH  25  27
ENDBRANCH   1  25
TORSDOF 6
