REMARK  Name = ZINCvU000000041L.1
REMARK                            x       y       z     vdW  Elec       q    Type
REMARK                         _______ _______ _______ _____ _____    ______ ____
ROOT
ATOM      1  O   LIG    1        5.801   3.429  -0.036  0.00  0.00    -0.510 OA
ATOM      2  C   LIG    1        4.826   4.151  -0.023  0.00  0.00    +0.520 C 
ATOM      3  N   LIG    1        4.979   5.490  -0.017  0.00  0.00    -0.720 N 
ATOM      4  H   LIG    1        4.199   6.067  -0.006  0.00  0.00    +0.400 HD
ENDROOT
BRANCH   3   5
ATOM      5  C   LIG    1        6.322   6.074  -0.028  0.00  0.00    +0.240 C 
ATOM      6  C   LIG    1        6.855   6.158   1.406  0.00  0.00    +0.010 C 
ATOM      7  C   LIG    1        8.232   6.826   1.395  0.00  0.00    +0.170 C 
ATOM      8  N   LIG    1        8.122   8.170   0.814  0.00  0.00    -0.530 NA
ATOM      9  C   LIG    1        7.658   8.110  -0.579  0.00  0.00    +0.180 C 
ATOM     10  C   LIG    1        6.263   7.482  -0.626  0.00  0.00    +0.040 C 
BRANCH   8  11
ATOM     11  C   LIG    1        9.397   8.892   0.913  0.00  0.00    +0.230 C 
BRANCH  11  12
ATOM     12  C   LIG    1        9.718   9.148   2.363  0.00  0.00    -0.070 A 
ATOM     13  C   LIG    1        9.284  10.310   2.972  0.00  0.00    +0.040 A 
ATOM     14  C   LIG    1        9.573  10.543   4.303  0.00  0.00    +0.020 A 
ATOM     15  C   LIG    1       10.307   9.617   5.024  0.00  0.00    -0.030 A 
ATOM     16  C   LIG    1       10.746   8.457   4.412  0.00  0.00    +0.020 A 
ATOM     17 CL   LIG    1       10.676   9.912   6.694  0.00  0.00    -0.070 Cl
ATOM     18  C   LIG    1       10.451   8.223   3.082  0.00  0.00    +0.030 A 
ENDBRANCH  11  12
ENDBRANCH   8  11
ENDBRANCH   3   5
BRANCH   2  19
ATOM     19  C   LIG    1        3.444   3.550  -0.012  0.00  0.00    +0.220 C 
BRANCH  19  20
ATOM     20  O   LIG    1        3.545   2.124  -0.021  0.00  0.00    -0.280 OA
BRANCH  20  21
ATOM     21  C   LIG    1        2.380   1.424  -0.013  0.00  0.00    +0.140 A 
ATOM     22  C   LIG    1        1.167   2.093   0.002  0.00  0.00    -0.080 A 
ATOM     23  C   LIG    1       -0.017   1.379   0.010  0.00  0.00    +0.050 A 
ATOM     24  C   LIG    1        0.002  -0.004   0.002  0.00  0.00    -0.020 A 
ATOM     25  C   LIG    1        1.204  -0.683  -0.013  0.00  0.00    +0.060 A 
ATOM     26  C   LIG    1        2.402   0.026  -0.021  0.00  0.00    -0.070 A 
BRANCH  26  27
ATOM     27  C   LIG    1        3.697  -0.698  -0.038  0.00  0.00    -0.040 A 
ATOM     28  C   LIG    1        4.674  -0.362  -0.972  0.00  0.00    +0.040 A 
ATOM     29  C   LIG    1        5.879  -1.036  -0.980  0.00  0.00    +0.000 A 
ATOM     30  C   LIG    1        6.112  -2.051  -0.069  0.00  0.00    +0.000 A 
ATOM     31  C   LIG    1        5.144  -2.392   0.858  0.00  0.00    +0.000 A 
ATOM     32  C   LIG    1        3.938  -1.721   0.878  0.00  0.00    +0.010 A 
ENDBRANCH  26  27
ENDBRANCH  20  21
ENDBRANCH  19  20
ENDBRANCH   2  19
TORSDOF 7
