REMARK  Name = ZINCqH0000034lxA.0
REMARK                            x       y       z     vdW  Elec       q    Type
REMARK                         _______ _______ _______ _____ _____    ______ ____
ROOT
ATOM      1  C   LIG    1        5.731  -2.765  -2.107  0.00  0.00    +0.610 C 
ATOM      2  N   LIG    1        5.452  -1.601  -1.488  0.00  0.00    -0.610 N 
ATOM      3  C   LIG    1        6.505  -0.839  -0.799  0.00  0.00    +0.240 C 
ATOM      4  C   LIG    1        6.013  -0.501   0.613  0.00  0.00    +0.230 C 
ATOM      5  O   LIG    1        4.729   0.123   0.527  0.00  0.00    -0.360 OA
ATOM      6  C   LIG    1        3.711  -0.707  -0.037  0.00  0.00    +0.180 C 
ATOM      7  C   LIG    1        4.086  -1.055  -1.482  0.00  0.00    +0.280 C 
ATOM      8  O   LIG    1        4.847  -3.381  -2.671  0.00  0.00    -0.510 OA
ENDROOT
BRANCH   1  14
ATOM      9  C   LIG    1        8.188  -3.049  -3.069  0.00  0.00    +0.060 A 
ATOM     10  N   LIG    1        9.204  -3.731  -2.629  0.00  0.00    -0.350 NA
ATOM     11  O   LIG    1        8.951  -4.322  -1.609  0.00  0.00    +0.100 OA
ATOM     12  C   LIG    1        7.701  -4.127  -1.185  0.00  0.00    +0.020 A 
ATOM     13  C   LIG    1        7.065  -4.708   0.052  0.00  0.00    +0.200 C 
ATOM     14  C   LIG    1        7.108  -3.292  -2.100  0.00  0.00    -0.250 A 
BRANCH   9  16
ATOM     15  C   LIG    1        8.541  -0.762  -3.959  0.00  0.00    +0.040 C 
ATOM     16  C   LIG    1        8.129  -2.193  -4.308  0.00  0.00    +0.130 C 
ENDBRANCH   9  16
ENDBRANCH   1  14
BRANCH   6  17
ATOM     17  C   LIG    1        2.396   0.029  -0.021  0.00  0.00    -0.040 A 
ATOM     18  C   LIG    1        2.377   1.411  -0.015  0.00  0.00    +0.050 A 
ATOM     19  C   LIG    1        1.171   2.086   0.002  0.00  0.00    +0.050 A 
ATOM     20  C   LIG    1       -0.017   1.378   0.010  0.00  0.00    +0.030 A 
ATOM     21  C   LIG    1        0.002  -0.004   0.002  0.00  0.00    +0.070 A 
ATOM     22  C   LIG    1        1.208  -0.679  -0.013  0.00  0.00    -0.170 A 
BRANCH  22  23
ATOM     23  C   LIG    1        1.229  -2.186  -0.021  0.00  0.00    +0.500 C 
ATOM     24  F   LIG    1        1.906  -2.648   1.113  0.00  0.00    -0.170 F 
ATOM     25  F   LIG    1        1.883  -2.638  -1.171  0.00  0.00    -0.170 F 
ATOM     26  F   LIG    1       -0.084  -2.670  -0.010  0.00  0.00    -0.170 F 
ENDBRANCH  22  23
ENDBRANCH   6  17
TORSDOF 4
