REMARK  Name = ZINCpk00001AZiqH.0
REMARK                            x       y       z     vdW  Elec       q    Type
REMARK                         _______ _______ _______ _____ _____    ______ ____
ROOT
ATOM      1  C   LIG    1        0.080   1.034   0.014  0.00  0.00    +0.550 C 
ATOM      2  N   LIG    1       -1.043   1.779   0.032  0.00  0.00    -0.550 N 
ATOM      3  C   LIG    1       -0.969   3.244  -0.053  0.00  0.00    +0.280 C 
ATOM      4  C   LIG    1       -1.929   3.823   0.995  0.00  0.00    +0.020 C 
ATOM      5  C   LIG    1       -3.356   3.402   0.643  0.00  0.00    +0.110 C 
ATOM      6  C   LIG    1       -3.429   1.914   0.425  0.00  0.00    -0.050 A 
ATOM      7  C   LIG    1       -4.669   1.276   0.523  0.00  0.00    -0.130 A 
ATOM      8  C   LIG    1       -4.763  -0.102   0.306  0.00  0.00    +0.020 A 
ATOM      9  C   LIG    1       -3.631  -0.833   0.010  0.00  0.00    +0.020 A 
ATOM     10  C   LIG    1       -2.404  -0.204  -0.080  0.00  0.00    +0.050 A 
ATOM     11  C   LIG    1       -2.301   1.168   0.126  0.00  0.00    +0.140 A 
ATOM     12  O   LIG    1        0.005  -0.180   0.026  0.00  0.00    -0.520 OA
ENDROOT
BRANCH   7  13
ATOM     13  C   LIG    1       -5.881   2.061   0.840  0.00  0.00    +0.560 C 
ATOM     14  N   LIG    1       -7.056   1.433   1.043  0.00  0.00    -0.720 N 
ATOM     15  H   LIG    1       -7.107   0.467   0.981  0.00  0.00    +0.400 HD
ATOM     16  O   LIG    1       -5.818   3.272   0.918  0.00  0.00    -0.520 OA
BRANCH  14  17
ATOM     17  C   LIG    1       -8.258   2.211   1.357  0.00  0.00    +0.270 C 
ATOM     18  C   LIG    1       -9.495   1.423   0.937  0.00  0.00    +0.030 C 
ATOM     19  C   LIG    1      -10.743   2.298   1.017  0.00  0.00    +0.080 C 
ATOM     20  C   LIG    1      -11.084   2.590   2.480  0.00  0.00    -0.330 C 
ATOM     21  S   LIG    1       -9.733   3.551   3.223  0.00  0.00    +2.420 S 
ATOM     22  O   LIG    1       -9.924   3.592   4.630  0.00  0.00    -0.940 OA
ATOM     23  O   LIG    1       -9.592   4.768   2.503  0.00  0.00    -0.930 OA
ATOM     24  C   LIG    1       -8.302   2.492   2.861  0.00  0.00    -0.350 C 
ENDBRANCH  14  17
ENDBRANCH   7  13
BRANCH   1  26
ATOM     25  C   LIG    1        2.505   0.959   0.056  0.00  0.00    +0.160 C 
ATOM     26  C   LIG    1        1.396   1.689  -0.027  0.00  0.00    -0.100 C 
ENDBRANCH   1  26
TORSDOF 3
