REMARK  Name = ZINCvU00000008rQ.0
REMARK                            x       y       z     vdW  Elec       q    Type
REMARK                         _______ _______ _______ _____ _____    ______ ____
ROOT
ATOM      1  C   LIG    1       -0.957  -2.254  -0.001  0.00  0.00    +0.120 C 
ENDROOT
BRANCH   1   2
ATOM      2  C   LIG    1       -0.282  -2.622  -1.297  0.00  0.00    -0.160 A 
ATOM      3  C   LIG    1       -0.785  -2.466  -2.532  0.00  0.00    +0.230 A 
ATOM      4  N   LIG    1        0.114  -2.913  -3.462  0.00  0.00    -0.590 N 
ATOM      5  H   LIG    1       -0.026  -2.902  -4.422  0.00  0.00    +0.420 HD
ATOM      6  C   LIG    1        1.246  -3.379  -2.832  0.00  0.00    +0.100 A 
ATOM      7  C   LIG    1        2.439  -3.929  -3.290  0.00  0.00    -0.010 A 
ATOM      8  C   LIG    1        3.409  -4.308  -2.388  0.00  0.00    +0.020 A 
ATOM      9  C   LIG    1        3.208  -4.147  -1.024  0.00  0.00    -0.020 A 
ATOM     10  C   LIG    1        2.044  -3.609  -0.552  0.00  0.00    +0.050 A 
ATOM     11  C   LIG    1        1.051  -3.212  -1.449  0.00  0.00    -0.100 A 
ENDBRANCH   1   2
BRANCH   1  15
ATOM     12  C   LIG    1       -4.610  -4.440   0.373  0.00  0.00    +0.220 A 
ATOM     13  C   LIG    1       -3.610  -4.588   1.326  0.00  0.00    -0.080 A 
ATOM     14  C   LIG    1       -2.430  -3.880   1.202  0.00  0.00    +0.060 A 
ATOM     15  C   LIG    1       -2.245  -3.025   0.131  0.00  0.00    -0.130 A 
ATOM     16  C   LIG    1       -3.241  -2.871  -0.816  0.00  0.00    +0.060 A 
ATOM     17  C   LIG    1       -4.421  -3.580  -0.701  0.00  0.00    -0.080 A 
BRANCH  12  19
ATOM     18  C   LIG    1       -6.002  -6.062   1.629  0.00  0.00    +0.280 C 
ATOM     19  N   LIG    1       -5.804  -5.155   0.495  0.00  0.00    -0.640 N 
ATOM     20  C   LIG    1       -6.858  -4.997  -0.510  0.00  0.00    +0.280 C 
ENDBRANCH  12  19
ENDBRANCH   1  15
BRANCH   1  21
ATOM     21  C   LIG    1       -1.256  -0.754   0.010  0.00  0.00    +0.280 C 
BRANCH  21  22
ATOM     22  N   LIG    1        0.002  -0.004   0.002  0.00  0.00    -0.720 N 
ATOM     23  H   LIG    1        0.849  -0.478  -0.009  0.00  0.00    +0.400 HD
ATOM     24  C   LIG    1       -0.016   1.344   0.009  0.00  0.00    +0.530 C 
ATOM     25  O   LIG    1       -1.075   1.936   0.018  0.00  0.00    -0.520 OA
BRANCH  24  26
ATOM     26  C   LIG    1        1.278   2.115   0.001  0.00  0.00    +0.090 C 
BRANCH  26  27
ATOM     27  S   LIG    1        0.923   3.893   0.014  0.00  0.00    -0.030 S 
BRANCH  27  28
ATOM     28  C   LIG    1        2.529   4.619   0.003  0.00  0.00    -0.100 A 
ATOM     29  C   LIG    1        3.658   3.810  -0.007  0.00  0.00    -0.020 A 
ATOM     30  C   LIG    1        4.915   4.381  -0.021  0.00  0.00    +0.030 A 
ATOM     31  C   LIG    1        5.050   5.758  -0.016  0.00  0.00    +0.000 A 
ATOM     32  C   LIG    1        3.928   6.566  -0.000  0.00  0.00    +0.030 A 
ATOM     33  C   LIG    1        2.668   6.002   0.009  0.00  0.00    +0.030 A 
ENDBRANCH  27  28
ENDBRANCH  26  27
ENDBRANCH  24  26
ENDBRANCH  21  22
ENDBRANCH   1  21
TORSDOF 8
