REMARK  Name = ZINCrH000004r24u.0
REMARK                            x       y       z     vdW  Elec       q    Type
REMARK                         _______ _______ _______ _____ _____    ______ ____
ROOT
ATOM      1  C   LIG    1        1.041   3.063   0.555  0.00  0.00    +0.170 A 
ATOM      2  C   LIG    1        0.931   1.702   0.293  0.00  0.00    +0.020 A 
ATOM      3  C   LIG    1       -0.223   1.193  -0.273  0.00  0.00    +0.050 A 
ATOM      4  C   LIG    1       -1.272   2.033  -0.586  0.00  0.00    +0.020 A 
ATOM      5  C   LIG    1       -1.174   3.400  -0.321  0.00  0.00    -0.100 A 
ATOM      6  C   LIG    1       -0.010   3.914   0.249  0.00  0.00    +0.040 A 
ENDROOT
BRANCH   5   7
ATOM      7  C   LIG    1       -2.299   4.301  -0.651  0.00  0.00    +0.570 C 
ATOM      8  N   LIG    1       -3.569   3.880  -0.489  0.00  0.00    -0.550 N 
ATOM      9  C   LIG    1       -3.868   2.587   0.149  0.00  0.00    +0.250 C 
ATOM     10  C   LIG    1       -4.991   1.919  -0.650  0.00  0.00    +0.250 C 
ATOM     11  O   LIG    1       -6.125   2.788  -0.671  0.00  0.00    -0.300 OA
ATOM     12  C   LIG    1       -5.922   4.087  -1.015  0.00  0.00    +0.090 A 
ATOM     13  C   LIG    1       -6.989   4.856  -1.454  0.00  0.00    +0.050 A 
ATOM     14  C   LIG    1       -6.793   6.181  -1.799  0.00  0.00    +0.010 A 
ATOM     15  C   LIG    1       -5.534   6.747  -1.708  0.00  0.00    +0.090 A 
ATOM     16  C   LIG    1       -4.462   5.986  -1.273  0.00  0.00    +0.020 A 
ATOM     17  F   LIG    1       -5.349   8.042  -2.045  0.00  0.00    -0.130 F 
ATOM     18  C   LIG    1       -4.654   4.657  -0.928  0.00  0.00    +0.110 A 
ATOM     19  O   LIG    1       -2.079   5.422  -1.068  0.00  0.00    -0.500 OA
ENDBRANCH   5   7
BRANCH   1  20
ATOM     20  N   LIG    1        2.210   3.573   1.127  0.00  0.00    -0.660 N 
ATOM     21  H   LIG    1        2.644   3.095   1.851  0.00  0.00    +0.420 HD
BRANCH  20  26
ATOM     22  C   LIG    1        4.519   8.359  -0.601  0.00  0.00    +0.140 C 
ATOM     23  C   LIG    1        3.862   7.071  -0.176  0.00  0.00    +0.030 A 
ATOM     24  C   LIG    1        2.798   6.561  -0.908  0.00  0.00    +0.070 A 
ATOM     25  C   LIG    1        2.227   5.371  -0.484  0.00  0.00    -0.020 A 
ATOM     26  C   LIG    1        2.751   4.766   0.657  0.00  0.00    +0.320 A 
ATOM     27  N   LIG    1        3.770   5.329   1.290  0.00  0.00    -0.290 NA
ATOM     28  N   LIG    1        4.297   6.429   0.889  0.00  0.00    -0.210 NA
ENDBRANCH  20  26
ENDBRANCH   1  20
TORSDOF 3
