REMARK  Name = ZINCvU000000084O.0
REMARK                            x       y       z     vdW  Elec       q    Type
REMARK                         _______ _______ _______ _____ _____    ______ ____
ROOT
ATOM      1  C   LIG    1       -0.146  -2.028   1.427  0.00  0.00    +0.510 C 
ATOM      2  N   LIG    1       -0.201  -2.710   2.589  0.00  0.00    -0.730 N 
ATOM      3  H   LIG    1       -0.173  -2.232   3.433  0.00  0.00    +0.400 HD
ATOM      4  O   LIG    1       -0.181  -2.624   0.372  0.00  0.00    -0.500 OA
ENDROOT
BRANCH   1   5
ATOM      5  C   LIG    1       -0.043  -0.524   1.440  0.00  0.00    +0.060 C 
BRANCH   5  17
ATOM      6  C   LIG    1        2.461  -1.947  -2.201  0.00  0.00    +0.100 C 
ATOM      7  C   LIG    1        1.194  -1.478  -1.534  0.00  0.00    +0.520 C 
ATOM      8  N   LIG    1        1.234  -0.462  -0.649  0.00  0.00    -0.560 N 
ATOM      9  C   LIG    1        2.443   0.155  -0.352  0.00  0.00    +0.240 C 
ATOM     10  C   LIG    1        2.462   1.458  -0.044  0.00  0.00    -0.040 C 
ATOM     11  C   LIG    1        1.190   2.205   0.003  0.00  0.00    -0.030 A 
ATOM     12  C   LIG    1        1.184   3.599   0.029  0.00  0.00    +0.020 A 
ATOM     13  C   LIG    1       -0.020   4.276   0.052  0.00  0.00    +0.010 A 
ATOM     14  C   LIG    1       -1.213   3.575   0.048  0.00  0.00    +0.000 A 
ATOM     15  C   LIG    1       -1.212   2.191   0.031  0.00  0.00    +0.030 A 
ATOM     16  C   LIG    1       -0.018   1.504   0.010  0.00  0.00    -0.100 A 
ATOM     17  C   LIG    1        0.002  -0.004   0.002  0.00  0.00    +0.320 C 
ATOM     18  O   LIG    1        0.138  -2.016  -1.792  0.00  0.00    -0.480 OA
ENDBRANCH   5  17
ENDBRANCH   1   5
BRANCH   2  19
ATOM     19  C   LIG    1       -0.301  -4.171   2.576  0.00  0.00    +0.340 C 
BRANCH  19  20
ATOM     20  C   LIG    1       -0.944  -4.641   3.856  0.00  0.00    -0.070 A 
ATOM     21  C   LIG    1       -0.612  -4.042   5.056  0.00  0.00    +0.020 A 
ATOM     22  C   LIG    1       -1.205  -4.470   6.229  0.00  0.00    +0.050 A 
ATOM     23  C   LIG    1       -2.122  -5.505   6.203  0.00  0.00    -0.090 A 
ATOM     24  C   LIG    1       -2.450  -6.108   5.002  0.00  0.00    +0.060 A 
ATOM     25 BR   LIG    1       -2.928  -6.095   7.809  0.00  0.00    -0.050 Br
ATOM     26  C   LIG    1       -1.861  -5.676   3.829  0.00  0.00    +0.040 A 
ENDBRANCH  19  20
BRANCH  19  27
ATOM     27  C   LIG    1        1.077  -4.768   2.457  0.00  0.00    -0.090 A 
ATOM     28  C   LIG    1        2.135  -4.208   3.148  0.00  0.00    +0.010 A 
ATOM     29  C   LIG    1        3.399  -4.759   3.043  0.00  0.00    +0.000 A 
ATOM     30  C   LIG    1        3.606  -5.864   2.238  0.00  0.00    +0.000 A 
ATOM     31  C   LIG    1        2.549  -6.421   1.543  0.00  0.00    +0.000 A 
ATOM     32  C   LIG    1        1.284  -5.873   1.653  0.00  0.00    +0.020 A 
ENDBRANCH  19  27
ENDBRANCH   2  19
TORSDOF 5
