REMARK  Name = ZINCrg00000SjSmJ.0
REMARK                            x       y       z     vdW  Elec       q    Type
REMARK                         _______ _______ _______ _____ _____    ______ ____
ROOT
ATOM      1  N   LIG    1       -2.820   8.425  -0.883  0.00  0.00    -0.730 N 
ATOM      2  H   LIG    1       -2.681   8.920  -0.061  0.00  0.00    +0.400 HD
ATOM      3  C   LIG    1       -2.158   7.271  -1.095  0.00  0.00    +0.710 C 
ATOM      4  N   LIG    1       -1.302   6.804  -0.163  0.00  0.00    -0.740 N 
ATOM      5  H   LIG    1       -1.163   7.299   0.659  0.00  0.00    +0.400 HD
ATOM      6  O   LIG    1       -2.332   6.650  -2.126  0.00  0.00    -0.560 OA
ENDROOT
BRANCH   4   7
ATOM      7  C   LIG    1       -0.582   5.549  -0.393  0.00  0.00    +0.260 C 
ATOM      8  C   LIG    1        0.712   5.545   0.426  0.00  0.00    +0.040 C 
ATOM      9  C   LIG    1        1.570   4.343   0.012  0.00  0.00    +0.180 C 
ATOM     10  C   LIG    1        0.692   3.115   0.012  0.00  0.00    +0.270 A 
ATOM     11  N   LIG    1        1.063   1.865   0.002  0.00  0.00    -0.540 NA
ATOM     12  C   LIG    1       -0.013   1.076   0.008  0.00  0.00    +0.420 A 
ATOM     13  N   LIG    1       -1.089   1.822   0.017  0.00  0.00    -0.310 NA
ATOM     14  N   LIG    1       -0.654   3.150   0.024  0.00  0.00    -0.370 N 
ATOM     15  C   LIG    1       -1.463   4.369   0.035  0.00  0.00    +0.310 C 
ENDBRANCH   4   7
BRANCH   1  19
ATOM     16  N   LIG    1       -3.252  11.101  -2.634  0.00  0.00    -0.610 N 
ATOM     17  C   LIG    1       -4.125  11.262  -1.465  0.00  0.00    +0.260 C 
ATOM     18  C   LIG    1       -4.786   9.882  -1.251  0.00  0.00    +0.060 C 
ATOM     19  C   LIG    1       -3.749   8.932  -1.895  0.00  0.00    +0.250 C 
ATOM     20  C   LIG    1       -3.019   9.800  -2.897  0.00  0.00    +0.510 C 
ATOM     21  O   LIG    1       -2.327   9.384  -3.802  0.00  0.00    -0.500 OA
BRANCH  16  22
ATOM     22  C   LIG    1       -2.704  12.212  -3.416  0.00  0.00    +0.350 C 
BRANCH  22  27
ATOM     23  C   LIG    1        2.389  13.801  -1.198  0.00  0.00    +0.090 C 
ATOM     24  C   LIG    1        1.061  13.387  -1.777  0.00  0.00    -0.080 A 
ATOM     25  C   LIG    1        1.008  12.417  -2.760  0.00  0.00    +0.000 A 
ATOM     26  C   LIG    1       -0.210  12.037  -3.291  0.00  0.00    +0.030 A 
ATOM     27  C   LIG    1       -1.376  12.626  -2.838  0.00  0.00    -0.120 A 
ATOM     28  C   LIG    1       -1.322  13.600  -1.858  0.00  0.00    +0.020 A 
ATOM     29  C   LIG    1       -0.104  13.977  -1.325  0.00  0.00    -0.010 A 
ENDBRANCH  22  27
ENDBRANCH  16  22
ENDBRANCH   1  19
TORSDOF 4
