REMARK  Name = ZINCkj000005eVOZ.0
REMARK                            x       y       z     vdW  Elec       q    Type
REMARK                         _______ _______ _______ _____ _____    ______ ____
ROOT
ATOM      1  C   LIG    1       -2.712   3.382   4.745  0.00  0.00    +0.560 C 
ATOM      2  N   LIG    1       -2.758   2.603   5.843  0.00  0.00    -0.620 N 
ATOM      3  C   LIG    1       -2.029   1.351   5.842  0.00  0.00    +0.330 C 
ATOM      4  C   LIG    1       -0.598   1.577   6.384  0.00  0.00    +0.230 C 
ATOM      5  N   LIG    1       -0.637   1.842   7.771  0.00  0.00    -0.480 N 
ATOM      6  C   LIG    1       -1.333   3.072   8.144  0.00  0.00    +0.280 C 
ATOM      7  C   LIG    1       -2.806   2.777   8.324  0.00  0.00    +0.160 C 
ATOM      8  H   LIG    1        0.311   1.897   8.112  0.00  0.00    +0.440 HD
ATOM      9  H   LIG    1       -1.092   1.068   8.231  0.00  0.00    +0.420 HD
ATOM     10  C   LIG    1       -3.545   3.058   7.007  0.00  0.00    +0.270 C 
ATOM     11  O   LIG    1       -3.189   4.500   4.772  0.00  0.00    -0.500 OA
ENDROOT
BRANCH   1  15
ATOM     12  C   LIG    1       -0.898   1.934   1.188  0.00  0.00    -0.030 A 
ATOM     13  C   LIG    1       -2.115   2.588   1.123  0.00  0.00    +0.020 A 
ATOM     14  C   LIG    1       -2.712   3.057   2.275  0.00  0.00    +0.070 A 
ATOM     15  C   LIG    1       -2.080   2.878   3.507  0.00  0.00    -0.150 A 
ATOM     16  C   LIG    1       -0.850   2.222   3.565  0.00  0.00    +0.010 A 
ATOM     17  C   LIG    1       -0.266   1.754   2.406  0.00  0.00    +0.010 A 
BRANCH  12  19
ATOM     18  C   LIG    1       -0.068  -0.095   0.028  0.00  0.00    +0.050 C 
ATOM     19  C   LIG    1       -0.254   1.420  -0.074  0.00  0.00    -0.040 C 
ATOM     20  C   LIG    1       -1.149   1.745  -1.272  0.00  0.00    +0.040 C 
ATOM     21  C   LIG    1        1.109   2.090  -0.260  0.00  0.00    +0.050 C 
ENDBRANCH  12  19
ENDBRANCH   1  15
BRANCH   7  22
ATOM     22  O   LIG    1       -3.336   3.613   9.355  0.00  0.00    -0.540 OA
ATOM     23  H   LIG    1       -4.279   3.478   9.525  0.00  0.00    +0.410 HD
ENDBRANCH   7  22
TORSDOF 3
