REMARK  Name = ZINCqH0000051eD0.0
REMARK                            x       y       z     vdW  Elec       q    Type
REMARK                         _______ _______ _______ _____ _____    ______ ____
ROOT
ATOM      1  C   LIG    1       -3.528   5.559  -3.645  0.00  0.00    +0.260 A 
ATOM      2  N   LIG    1       -4.034   4.410  -3.319  0.00  0.00    -0.470 NA
ATOM      3  C   LIG    1       -3.770   3.964  -2.105  0.00  0.00    +0.260 A 
ATOM      4  C   LIG    1       -3.013   4.778  -1.367  0.00  0.00    -0.230 A 
ATOM      5  S   LIG    1       -2.626   6.195  -2.339  0.00  0.00    +0.140 S 
ENDROOT
BRANCH   1   8
ATOM      6  O   LIG    1       -4.944   4.510  -5.629  0.00  0.00    -0.430 OA
ATOM      7  C   LIG    1       -4.429   5.588  -5.838  0.00  0.00    +0.490 C 
ATOM      8  N   LIG    1       -3.695   6.181  -4.876  0.00  0.00    -0.630 N 
ATOM      9  H   LIG    1       -3.282   7.043  -5.043  0.00  0.00    +0.430 HD
BRANCH   7  10
ATOM     10  C   LIG    1       -4.609   6.263  -7.173  0.00  0.00    +0.400 C 
BRANCH  10  11
ATOM     11  N   LIG    1       -5.441   5.422  -8.037  0.00  0.00    -0.350 N 
ATOM     12  C   LIG    1       -6.579   5.801  -8.656  0.00  0.00    +0.370 A 
ATOM     13  C   LIG    1       -7.041   4.739  -9.356  0.00  0.00    -0.190 A 
ATOM     14  C   LIG    1       -6.155   3.674  -9.157  0.00  0.00    +0.320 A 
ATOM     15  N   LIG    1       -5.193   4.085  -8.371  0.00  0.00    -0.240 NA
BRANCH  13  16
ATOM     16  N   LIG    1       -8.267   4.708 -10.185  0.00  0.00    +0.070 N 
ATOM     17  O   LIG    1       -8.581   3.687 -10.770  0.00  0.00    -0.160 OA
ATOM     18  O   LIG    1       -8.962   5.704 -10.281  0.00  0.00    -0.170 OA
ENDBRANCH  13  16
ENDBRANCH  10  11
ENDBRANCH   7  10
ENDBRANCH   1   8
BRANCH   4  19
ATOM     19  C   LIG    1       -2.562   4.525   0.048  0.00  0.00    +0.190 C 
BRANCH  19  20
ATOM     20  C   LIG    1       -1.246   3.790   0.033  0.00  0.00    -0.070 A 
ATOM     21  C   LIG    1       -0.059   4.497   0.026  0.00  0.00    +0.040 A 
ATOM     22  C   LIG    1        1.148   3.824   0.011  0.00  0.00    +0.060 A 
ATOM     23  C   LIG    1        1.168   2.441   0.004  0.00  0.00    -0.030 A 
ATOM     24  C   LIG    1       -0.021   1.732   0.012  0.00  0.00    -0.030 A 
ATOM     25 CL   LIG    1        0.002  -0.004   0.002  0.00  0.00    -0.040 Cl
ATOM     26 CL   LIG    1        2.684   1.594  -0.014  0.00  0.00    -0.050 Cl
ATOM     27  C   LIG    1       -1.228   2.407   0.021  0.00  0.00    +0.050 A 
ENDBRANCH  19  20
ENDBRANCH   4  19
TORSDOF 6
