REMARK  Name = ZINCnE00000rhn46.0
REMARK                            x       y       z     vdW  Elec       q    Type
REMARK                         _______ _______ _______ _____ _____    ______ ____
ROOT
ATOM      1  C   LIG    1       -1.182  -0.866   0.008  0.00  0.00    +0.040 C 
ATOM      2  C   LIG    1       -2.413  -0.320   0.023  0.00  0.00    +0.090 C 
ENDROOT
BRANCH   2   3
ATOM      3  C   LIG    1       -3.604  -1.187   0.029  0.00  0.00    -0.010 A 
ATOM      4  C   LIG    1       -4.883  -0.622   0.045  0.00  0.00    -0.110 A 
ATOM      5  C   LIG    1       -5.995  -1.438   0.050  0.00  0.00    +0.120 A 
ATOM      6  C   LIG    1       -5.850  -2.813   0.040  0.00  0.00    -0.190 A 
ATOM      7  C   LIG    1       -4.583  -3.384   0.025  0.00  0.00    +0.300 A 
ATOM      8  O   LIG    1       -4.448  -4.736   0.016  0.00  0.00    -0.640 OA
ATOM      9  C   LIG    1       -3.459  -2.577   0.014  0.00  0.00    -0.070 A 
BRANCH   6  10
ATOM     10  N   LIG    1       -7.049  -3.681   0.045  0.00  0.00    +0.070 N 
ATOM     11  O   LIG    1       -6.924  -4.893   0.037  0.00  0.00    -0.160 OA
ATOM     12  O   LIG    1       -8.161  -3.184   0.059  0.00  0.00    -0.270 OA
ENDBRANCH   6  10
ENDBRANCH   2   3
BRANCH   1  16
ATOM     13  C   LIG    1        1.740   1.779  -0.005  0.00  0.00    -0.320 A 
ATOM     14  C   LIG    1        2.180   0.482  -0.016  0.00  0.00    +0.180 A 
ATOM     15  N   LIG    1        1.243  -0.423  -0.012  0.00  0.00    -0.480 NA
ATOM     16  C   LIG    1        0.002  -0.004   0.002  0.00  0.00    +0.150 A 
ATOM     17  C   LIG    1        3.644   0.127  -0.032  0.00  0.00    +0.160 C 
ATOM     18  S   LIG    1       -0.022   1.757   0.012  0.00  0.00    +0.160 S 
BRANCH  13  19
ATOM     19  C   LIG    1        2.586   2.974  -0.007  0.00  0.00    +0.550 C 
ATOM     20  O   LIG    1        3.797   2.862  -0.020  0.00  0.00    -0.500 OA
BRANCH  19  21
ATOM     21  O   LIG    1        2.021   4.199   0.004  0.00  0.00    -0.350 OA
BRANCH  21  23
ATOM     22  C   LIG    1        2.090   6.615   0.016  0.00  0.00    +0.070 C 
ATOM     23  C   LIG    1        2.907   5.321   0.001  0.00  0.00    +0.200 C 
ENDBRANCH  21  23
ENDBRANCH  19  21
ENDBRANCH  13  19
ENDBRANCH   1  16
TORSDOF 6
