REMARK  Name = ZINCfA000000bboZ.0
REMARK                            x       y       z     vdW  Elec       q    Type
REMARK                         _______ _______ _______ _____ _____    ______ ____
ROOT
ATOM      1  C   LIG    1       -0.756   1.594   1.261  0.00  0.00    +0.000 C 
ATOM      2  C   LIG    1       -1.544   2.821   0.724  0.00  0.00    +0.080 C 
ATOM      3  C   LIG    1       -1.919   2.353  -0.705  0.00  0.00    +0.270 C 
ATOM      4  N   LIG    1       -0.746   1.584  -1.170  0.00  0.00    -0.390 N 
ATOM      5  H   LIG    1       -0.143   2.181  -1.717  0.00  0.00    +0.420 HD
ATOM      6  C   LIG    1       -0.013   1.086   0.008  0.00  0.00    +0.250 C 
ENDROOT
BRANCH   1   7
ATOM      7  C   LIG    1        0.238   2.018   2.345  0.00  0.00    +0.040 C 
BRANCH   7   9
ATOM      8  C   LIG    1       -1.231   1.161   4.176  0.00  0.00    +0.010 C 
ATOM      9  C   LIG    1       -0.525   2.397   3.616  0.00  0.00    -0.030 C 
ATOM     10  C   LIG    1        0.457   2.939   4.657  0.00  0.00    +0.030 C 
ENDBRANCH   7   9
ENDBRANCH   1   7
BRANCH   4  11
ATOM     11  C   LIG    1       -1.194   0.450  -1.989  0.00  0.00    +0.360 C 
BRANCH  11  12
ATOM     12  C   LIG    1       -1.834   0.965  -3.253  0.00  0.00    -0.010 A 
ATOM     13  C   LIG    1       -1.162   1.102  -4.400  0.00  0.00    -0.050 A 
ATOM     14  S   LIG    1       -2.279   1.726  -5.611  0.00  0.00    +0.220 S 
ATOM     15  C   LIG    1       -3.536   1.749  -4.453  0.00  0.00    +0.240 A 
ATOM     16  N   LIG    1       -3.101   1.322  -3.316  0.00  0.00    -0.470 NA
ENDBRANCH  11  12
ENDBRANCH   4  11
TORSDOF 4
