REMARK  Name = ZINCfA000000bboZ.1
REMARK                            x       y       z     vdW  Elec       q    Type
REMARK                         _______ _______ _______ _____ _____    ______ ____
ROOT
ATOM      1  C   LIG    1       -1.948   2.439  -0.646  0.00  0.00    +0.000 C 
ATOM      2  C   LIG    1       -0.779   1.607  -1.222  0.00  0.00    +0.070 C 
ATOM      3  C   LIG    1       -0.013   1.086   0.008  0.00  0.00    +0.250 C 
ATOM      4  N   LIG    1       -0.726   1.573   1.208  0.00  0.00    -0.390 N 
ATOM      5  H   LIG    1       -1.384   0.878   1.528  0.00  0.00    +0.430 HD
ATOM      6  C   LIG    1       -1.449   2.800   0.776  0.00  0.00    +0.280 C 
ENDROOT
BRANCH   1   7
ATOM      7  C   LIG    1       -2.174   3.703  -1.478  0.00  0.00    +0.050 C 
BRANCH   7   9
ATOM      8  C   LIG    1       -4.039   2.650  -2.765  0.00  0.00    +0.010 C 
ATOM      9  C   LIG    1       -2.665   3.314  -2.874  0.00  0.00    -0.030 C 
ATOM     10  C   LIG    1       -2.771   4.567  -3.745  0.00  0.00    +0.030 C 
ENDBRANCH   7   9
ENDBRANCH   1   7
BRANCH   4  11
ATOM     11  C   LIG    1        0.234   1.894   2.273  0.00  0.00    +0.370 C 
BRANCH  11  12
ATOM     12  C   LIG    1        0.905   0.629   2.742  0.00  0.00    -0.000 A 
ATOM     13  C   LIG    1        2.080   0.213   2.261  0.00  0.00    -0.050 A 
ATOM     14  S   LIG    1        2.497  -1.292   3.076  0.00  0.00    +0.220 S 
ATOM     15  C   LIG    1        1.046  -1.217   3.976  0.00  0.00    +0.240 A 
ATOM     16  N   LIG    1        0.378  -0.161   3.656  0.00  0.00    -0.470 NA
ENDBRANCH  11  12
ENDBRANCH   4  11
TORSDOF 4
