REMARK  Name = ZINCqH0000034DFT.0
REMARK                            x       y       z     vdW  Elec       q    Type
REMARK                         _______ _______ _______ _____ _____    ______ ____
ROOT
ATOM      1  C   LIG    1        3.352  -2.155   1.556  0.00  0.00    +0.280 C 
ATOM      2  N   LIG    1        2.848  -2.418   0.206  0.00  0.00    -0.610 N 
ATOM      3  C   LIG    1        1.896  -1.625  -0.324  0.00  0.00    +0.520 C 
ATOM      4  O   LIG    1        1.408  -1.900  -1.400  0.00  0.00    -0.500 OA
ENDROOT
BRANCH   3   5
ATOM      5  C   LIG    1        1.439  -0.396   0.419  0.00  0.00    +0.000 C 
ATOM      6  C   LIG    1        2.247   0.847  -0.018  0.00  0.00    +0.090 C 
ATOM      7  C   LIG    1        1.233   1.970  -0.013  0.00  0.00    +0.530 C 
ATOM      8  N   LIG    1       -0.013   1.467   0.005  0.00  0.00    -0.580 N 
ATOM      9  O   LIG    1        1.505   3.152  -0.024  0.00  0.00    -0.510 OA
ATOM     10  C   LIG    1        0.004  -0.001   0.004  0.00  0.00    +0.310 C 
BRANCH   8  11
ATOM     11  C   LIG    1       -1.178   2.242   0.017  0.00  0.00    +0.170 A 
ATOM     12  C   LIG    1       -1.745   2.627   1.224  0.00  0.00    +0.030 A 
ATOM     13  C   LIG    1       -2.895   3.394   1.232  0.00  0.00    +0.040 A 
ATOM     14  C   LIG    1       -3.481   3.777   0.040  0.00  0.00    +0.030 A 
ATOM     15  C   LIG    1       -2.919   3.395  -1.165  0.00  0.00    +0.050 A 
ATOM     16  C   LIG    1       -1.766   2.634  -1.180  0.00  0.00    -0.090 A 
ATOM     17 BR   LIG    1       -0.994   2.118  -2.828  0.00  0.00    -0.030 Br
ENDBRANCH   8  11
ENDBRANCH   3   5
BRANCH   2  18
ATOM     18  C   LIG    1        3.378  -3.544  -0.567  0.00  0.00    +0.360 C 
BRANCH  18  19
ATOM     19  C   LIG    1        4.566  -3.084  -1.373  0.00  0.00    -0.160 A 
ATOM     20  C   LIG    1        5.844  -3.433  -0.979  0.00  0.00    +0.090 A 
ATOM     21  C   LIG    1        6.934  -3.012  -1.717  0.00  0.00    -0.030 A 
ATOM     22  C   LIG    1        6.747  -2.241  -2.852  0.00  0.00    +0.140 A 
ATOM     23  C   LIG    1        5.467  -1.892  -3.248  0.00  0.00    -0.050 A 
ATOM     24  F   LIG    1        7.813  -1.830  -3.573  0.00  0.00    -0.130 F 
ATOM     25  C   LIG    1        4.376  -2.318  -2.511  0.00  0.00    +0.150 A 
ATOM     26  F   LIG    1        3.126  -1.982  -2.898  0.00  0.00    -0.110 F 
ENDBRANCH  18  19
ENDBRANCH   2  18
TORSDOF 4
