REMARK  Name = ZINCnE000001PknX.0
REMARK                            x       y       z     vdW  Elec       q    Type
REMARK                         _______ _______ _______ _____ _____    ______ ____
ROOT
ATOM      1  C   LIG    1        1.317  -0.414  -0.013  0.00  0.00    +0.120 A 
ATOM      2  C   LIG    1        2.120   0.711  -0.014  0.00  0.00    -0.290 A 
ATOM      3  C   LIG    1        1.287   1.837  -0.000  0.00  0.00    +0.380 A 
ATOM      4  N   LIG    1       -0.017   1.397   0.010  0.00  0.00    -0.490 N 
ATOM      5  H   LIG    1       -0.809   1.957   0.017  0.00  0.00    +0.440 HD
ATOM      6  N   LIG    1        1.687   3.110   0.002  0.00  0.00    -0.680 NA
ATOM      7  C   LIG    1        3.627   0.724  -0.028  0.00  0.00    +0.100 C 
ATOM      8  N   LIG    1        0.002  -0.004   0.002  0.00  0.00    -0.350 NA
ENDROOT
BRANCH   1  13
ATOM      9  C   LIG    1        4.372  -4.380  -0.061  0.00  0.00    +0.160 C 
ATOM     10  C   LIG    1        3.117  -3.545  -0.045  0.00  0.00    -0.030 A 
ATOM     11  C   LIG    1        1.854  -4.024  -0.035  0.00  0.00    -0.070 A 
ATOM     12  C   LIG    1        0.992  -2.917  -0.022  0.00  0.00    -0.050 A 
ATOM     13  C   LIG    1        1.784  -1.802  -0.024  0.00  0.00    +0.090 A 
ATOM     14  O   LIG    1        3.071  -2.206  -0.044  0.00  0.00    -0.160 OA
ENDBRANCH   1  13
BRANCH   6  15
ATOM     15  C   LIG    1        0.783   4.093   0.016  0.00  0.00    +0.490 C 
ATOM     16  O   LIG    1       -0.406   3.828   0.027  0.00  0.00    -0.650 OA
BRANCH  15  17
ATOM     17  C   LIG    1        1.227   5.507   0.019  0.00  0.00    -0.080 A 
ATOM     18  C   LIG    1        2.589   5.812   0.013  0.00  0.00    +0.110 A 
ATOM     19  C   LIG    1        3.005   7.129   0.011  0.00  0.00    -0.010 A 
ATOM     20  C   LIG    1        2.078   8.152   0.025  0.00  0.00    +0.060 A 
ATOM     21  C   LIG    1        0.712   7.860   0.037  0.00  0.00    -0.050 A 
ATOM     22  C   LIG    1        0.286   6.533   0.034  0.00  0.00    +0.110 A 
BRANCH  21  23
ATOM     23  C   LIG    1       -0.249   8.922   0.052  0.00  0.00    +0.270 C 
ATOM     24  N   LIG    1       -1.011   9.764   0.064  0.00  0.00    -0.440 NA
ENDBRANCH  21  23
ENDBRANCH  15  17
ENDBRANCH   6  15
TORSDOF 4
