REMARK  Name = ZINCrD00000l8off.0
REMARK                            x       y       z     vdW  Elec       q    Type
REMARK                         _______ _______ _______ _____ _____    ______ ____
ROOT
ATOM      1  N   LIG    1        1.362   1.593  -0.002  0.00  0.00    -0.730 N 
ATOM      2  H   LIG    1        1.583   2.404   0.482  0.00  0.00    +0.400 HD
ATOM      3  C   LIG    1        2.318   0.933  -0.685  0.00  0.00    +0.520 C 
ATOM      4  O   LIG    1        2.042  -0.081  -1.290  0.00  0.00    -0.530 OA
ENDROOT
BRANCH   3   5
ATOM      5  C   LIG    1        3.732   1.454  -0.695  0.00  0.00    -0.010 C 
ATOM      6  C   LIG    1        3.755   2.859  -1.305  0.00  0.00    +0.050 C 
ATOM      7  C   LIG    1        5.200   3.358  -1.369  0.00  0.00    +0.210 C 
ATOM      8  N   LIG    1        6.002   2.438  -2.185  0.00  0.00    -0.470 N 
ATOM      9  C   LIG    1        6.034   1.094  -1.594  0.00  0.00    +0.220 C 
ATOM     10  C   LIG    1        4.614   0.527  -1.536  0.00  0.00    +0.060 C 
BRANCH   8  11
ATOM     11  C   LIG    1        7.289   2.930  -2.373  0.00  0.00    +0.260 A 
ATOM     12  C   LIG    1        7.481   4.197  -2.926  0.00  0.00    +0.040 A 
ATOM     13  C   LIG    1        8.783   4.641  -3.092  0.00  0.00    +0.080 A 
ATOM     14  C   LIG    1        9.815   3.800  -2.699  0.00  0.00    +0.090 A 
ATOM     15  N   LIG    1        9.542   2.616  -2.185  0.00  0.00    -0.200 NA
ATOM     16 CL   LIG    1       11.466   4.305  -2.885  0.00  0.00    -0.000 Cl
ATOM     17  N   LIG    1        8.338   2.201  -2.023  0.00  0.00    -0.260 NA
ENDBRANCH   8  11
ENDBRANCH   3   5
BRANCH   1  19
ATOM     18  C   LIG    1       -0.753   1.593  -1.232  0.00  0.00    +0.040 C 
ATOM     19  C   LIG    1       -0.013   1.086   0.008  0.00  0.00    +0.240 C 
BRANCH  19  20
ATOM     20  C   LIG    1       -0.729   1.579   1.267  0.00  0.00    +0.100 C 
BRANCH  20  21
ATOM     21  C   LIG    1       -0.074   0.981   2.485  0.00  0.00    -0.150 A 
ATOM     22  C   LIG    1       -0.523  -0.227   2.990  0.00  0.00    +0.130 A 
ATOM     23  C   LIG    1        0.083  -0.779   4.106  0.00  0.00    -0.020 A 
ATOM     24  C   LIG    1        1.129  -0.119   4.723  0.00  0.00    +0.090 A 
ATOM     25  C   LIG    1        1.575   1.090   4.222  0.00  0.00    -0.020 A 
ATOM     26  F   LIG    1       -1.550  -0.870   2.391  0.00  0.00    -0.130 F 
ATOM     27  C   LIG    1        0.974   1.641   3.103  0.00  0.00    +0.130 A 
ATOM     28  F   LIG    1        1.410   2.822   2.614  0.00  0.00    -0.130 F 
ENDBRANCH  20  21
ENDBRANCH  19  20
ENDBRANCH   1  19
TORSDOF 5
