REMARK  Name = ZINCvU0000000IUI.0
REMARK                            x       y       z     vdW  Elec       q    Type
REMARK                         _______ _______ _______ _____ _____    ______ ____
ROOT
ATOM      1  C   LIG    1       -2.475   0.793   0.133  0.00  0.00    +0.240 C 
ENDROOT
BRANCH   1   2
ATOM      2  C   LIG    1       -2.519   0.111   1.476  0.00  0.00    -0.120 A 
ATOM      3  C   LIG    1       -2.997   0.790   2.581  0.00  0.00    +0.040 A 
ATOM      4  C   LIG    1       -3.042   0.164   3.812  0.00  0.00    +0.010 A 
ATOM      5  C   LIG    1       -2.600  -1.140   3.940  0.00  0.00    +0.030 A 
ATOM      6  C   LIG    1       -2.117  -1.818   2.836  0.00  0.00    +0.010 A 
ATOM      7  C   LIG    1       -2.077  -1.192   1.604  0.00  0.00    +0.030 A 
ENDBRANCH   1   2
BRANCH   1  10
ATOM      8  N   LIG    1       -0.011   0.966   0.007  0.00  0.00    -0.660 N 
ATOM      9  H   LIG    1        0.027  -0.003   0.007  0.00  0.00    +0.410 HD
ATOM     10  C   LIG    1       -1.204   1.593   0.017  0.00  0.00    +0.530 C 
ATOM     11  O   LIG    1       -1.254   2.802  -0.067  0.00  0.00    -0.490 OA
BRANCH   8  16
ATOM     12  C   LIG    1        3.462   1.997   0.656  0.00  0.00    +0.150 A 
ATOM     13  C   LIG    1        3.511   3.196  -0.041  0.00  0.00    -0.090 A 
ATOM     14  C   LIG    1        2.396   3.651  -0.718  0.00  0.00    +0.070 A 
ATOM     15  C   LIG    1        1.230   2.911  -0.708  0.00  0.00    -0.020 A 
ATOM     16  C   LIG    1        1.172   1.713  -0.008  0.00  0.00    +0.180 A 
ATOM     17  C   LIG    1        2.291   1.254   0.673  0.00  0.00    -0.050 A 
BRANCH  12  19
ATOM     18  C   LIG    1        5.731   2.368   1.260  0.00  0.00    +0.250 C 
ATOM     19  O   LIG    1        4.560   1.551   1.321  0.00  0.00    -0.320 OA
ENDBRANCH  12  19
ENDBRANCH   8  16
ENDBRANCH   1  10
BRANCH   1  20
ATOM     20  O   LIG    1       -3.619   1.678   0.002  0.00  0.00    -0.320 OA
BRANCH  20  21
ATOM     21  C   LIG    1       -4.740   1.155  -0.530  0.00  0.00    +0.510 C 
ATOM     22  O   LIG    1       -4.763  -0.010  -0.874  0.00  0.00    -0.490 OA
BRANCH  21  23
ATOM     23  C   LIG    1       -5.943   1.997  -0.693  0.00  0.00    -0.130 A 
ATOM     24  C   LIG    1       -5.922   3.334  -0.293  0.00  0.00    +0.120 A 
ATOM     25  C   LIG    1       -7.047   4.116  -0.453  0.00  0.00    +0.020 A 
ATOM     26  C   LIG    1       -8.198   3.575  -0.999  0.00  0.00    +0.120 A 
ATOM     27  C   LIG    1       -8.227   2.249  -1.393  0.00  0.00    -0.200 A 
ATOM     28  C   LIG    1       -7.107   1.457  -1.244  0.00  0.00    +0.140 A 
BRANCH  27  29
ATOM     29  C   LIG    1       -9.485   1.668  -1.986  0.00  0.00    +0.510 C 
ATOM     30  F   LIG    1       -9.149   0.653  -2.889  0.00  0.00    -0.170 F 
ATOM     31  F   LIG    1      -10.191   2.673  -2.656  0.00  0.00    -0.170 F 
ATOM     32  F   LIG    1      -10.281   1.140  -0.965  0.00  0.00    -0.170 F 
ENDBRANCH  27  29
ENDBRANCH  21  23
ENDBRANCH  20  21
ENDBRANCH   1  20
TORSDOF 8
