REMARK  Name = ZINCkj000005kL8w.1
REMARK                            x       y       z     vdW  Elec       q    Type
REMARK                         _______ _______ _______ _____ _____    ______ ____
ROOT
ATOM      1  N   LIG    1        4.158   0.896   2.321  0.00  0.00    -0.750 N 
ATOM      2  H   LIG    1        3.736   0.261   2.920  0.00  0.00    +0.400 HD
ATOM      3  C   LIG    1        3.458   1.425   1.298  0.00  0.00    +0.700 C 
ATOM      4  N   LIG    1        2.171   1.073   1.109  0.00  0.00    -0.740 N 
ATOM      5  H   LIG    1        1.749   0.438   1.708  0.00  0.00    +0.400 HD
ATOM      6  O   LIG    1        3.987   2.222   0.547  0.00  0.00    -0.590 OA
ENDROOT
BRANCH   1   7
ATOM      7  C   LIG    1        5.557   1.279   2.527  0.00  0.00    +0.280 C 
BRANCH   7   8
ATOM      8  C   LIG    1        6.114   0.540   3.745  0.00  0.00    +0.030 C 
BRANCH   8   9
ATOM      9  C   LIG    1        7.575   0.940   3.960  0.00  0.00    +0.030 C 
BRANCH   9  10
ATOM     10  C   LIG    1        8.133   0.201   5.178  0.00  0.00    +0.340 C 
BRANCH  10  17
ATOM     11  C   LIG    1        9.106   2.693   6.741  0.00  0.00    +0.240 C 
ATOM     12  C   LIG    1        9.975   1.666   6.061  0.00  0.00    +0.310 C 
ATOM     13  N   LIG    1       11.279   1.673   6.030  0.00  0.00    -0.480 N 
ATOM     14  C   LIG    1       11.711   0.608   5.340  0.00  0.00    +0.220 C 
ATOM     15  C   LIG    1       10.634  -0.090   4.932  0.00  0.00    +0.240 C 
ATOM     16  H   LIG    1       11.847   2.344   6.442  0.00  0.00    +0.460 HD
ATOM     17  N   LIG    1        9.531   0.585   5.385  0.00  0.00    -0.410 N 
ENDBRANCH  10  17
ENDBRANCH   9  10
ENDBRANCH   8   9
ENDBRANCH   7   8
ENDBRANCH   1   7
BRANCH   4  18
ATOM     18  C   LIG    1        1.410   1.649  -0.003  0.00  0.00    +0.290 C 
BRANCH  18  19
ATOM     19  C   LIG    1       -0.013   1.086   0.008  0.00  0.00    -0.050 C 
ATOM     20  C   LIG    1       -0.833   1.634  -1.185  0.00  0.00    +0.010 C 
ATOM     21  C   LIG    1       -2.223   1.924  -0.587  0.00  0.00    +0.200 C 
ATOM     22  O   LIG    1       -2.186   1.524   0.793  0.00  0.00    -0.380 OA
ATOM     23  C   LIG    1       -0.810   1.621   1.224  0.00  0.00    +0.200 C 
ENDBRANCH  18  19
ENDBRANCH   4  18
TORSDOF 7
