REMARK  Name = ZINCtj00001UqOjq.0
REMARK                            x       y       z     vdW  Elec       q    Type
REMARK                         _______ _______ _______ _____ _____    ______ ____
ROOT
ATOM      1  C   LIG    1        4.478  -0.031  -3.143  0.00  0.00    +0.270 C 
ENDROOT
BRANCH   1   2
ATOM      2  N   LIG    1        5.439  -1.134  -3.221  0.00  0.00    -0.740 N 
ATOM      3  H   LIG    1        5.246  -1.907  -3.774  0.00  0.00    +0.400 HD
ATOM      4  C   LIG    1        6.590  -1.075  -2.523  0.00  0.00    +0.710 C 
ATOM      5  O   LIG    1        6.832  -0.107  -1.829  0.00  0.00    -0.560 OA
ATOM      6  N   LIG    1        7.474  -2.091  -2.594  0.00  0.00    -0.870 N 
ATOM      7  H   LIG    1        8.303  -2.048  -2.091  0.00  0.00    +0.420 HD
ATOM      8  H   LIG    1        7.282  -2.863  -3.147  0.00  0.00    +0.400 HD
ENDBRANCH   1   2
BRANCH   1   9
ATOM      9  C   LIG    1        4.029   0.145  -1.716  0.00  0.00    +0.490 C 
ATOM     10  N   LIG    1        2.882   0.798  -1.445  0.00  0.00    -0.730 N 
ATOM     11  H   LIG    1        2.345   1.155  -2.170  0.00  0.00    +0.400 HD
ATOM     12  O   LIG    1        4.701  -0.301  -0.809  0.00  0.00    -0.490 OA
BRANCH  10  13
ATOM     13  C   LIG    1        2.446   0.970  -0.057  0.00  0.00    +0.320 C 
BRANCH  13  14
ATOM     14  C   LIG    1        1.144   1.728  -0.030  0.00  0.00    -0.120 A 
ATOM     15  C   LIG    1       -0.056   1.041  -0.079  0.00  0.00    +0.050 A 
ATOM     16  C   LIG    1       -1.251   1.733  -0.060  0.00  0.00    -0.010 A 
ATOM     17  C   LIG    1       -1.247   3.119   0.020  0.00  0.00    +0.100 A 
ATOM     18  C   LIG    1       -0.042   3.805   0.069  0.00  0.00    +0.020 A 
ATOM     19  C   LIG    1        1.150   3.108   0.044  0.00  0.00    +0.050 A 
BRANCH  17  20
ATOM     20  O   LIG    1       -2.421   3.802   0.044  0.00  0.00    -0.260 OA
BRANCH  20  21
ATOM     21  C   LIG    1       -3.216   3.667   1.139  0.00  0.00    +0.120 A 
ATOM     22  C   LIG    1       -2.768   2.949   2.238  0.00  0.00    -0.060 A 
ATOM     23  C   LIG    1       -3.575   2.817   3.351  0.00  0.00    +0.050 A 
ATOM     24  C   LIG    1       -4.833   3.391   3.366  0.00  0.00    -0.020 A 
ATOM     25  C   LIG    1       -5.284   4.103   2.270  0.00  0.00    +0.050 A 
ATOM     26  C   LIG    1       -4.478   4.242   1.156  0.00  0.00    -0.010 A 
ENDBRANCH  20  21
ENDBRANCH  17  20
ENDBRANCH  13  14
ENDBRANCH  10  13
ENDBRANCH   1   9
BRANCH   1  27
ATOM     27  C   LIG    1        5.141   1.258  -3.632  0.00  0.00    +0.060 C 
BRANCH  27  28
ATOM     28  C   LIG    1        5.484   1.123  -5.117  0.00  0.00    +0.030 C 
BRANCH  28  29
ATOM     29  C   LIG    1        6.148   2.413  -5.606  0.00  0.00    +0.270 C 
BRANCH  29  30
ATOM     30  N   LIG    1        6.476   2.284  -7.028  0.00  0.00    -0.690 NA
ATOM     31  H   LIG    1        6.265   1.464  -7.502  0.00  0.00    +0.440 HD
BRANCH  30  32
ATOM     32  C   LIG    1        7.080   3.319  -7.687  0.00  0.00    +0.740 C 
BRANCH  32  33
ATOM     33  N   LIG    1        7.370   4.444  -7.036  0.00  0.00    -0.790 NA
ATOM     34  H   LIG    1        7.798   5.179  -7.503  0.00  0.00    +0.440 HD
ATOM     35  H   LIG    1        7.152   4.530  -6.095  0.00  0.00    +0.440 HD
ENDBRANCH  32  33
BRANCH  32  36
ATOM     36  N   LIG    1        7.379   3.202  -8.980  0.00  0.00    -0.800 NA
ATOM     37  H   LIG    1        7.168   2.382  -9.454  0.00  0.00    +0.440 HD
ATOM     38  H   LIG    1        7.807   3.936  -9.447  0.00  0.00    +0.440 HD
ENDBRANCH  32  36
ENDBRANCH  30  32
ENDBRANCH  29  30
ENDBRANCH  28  29
ENDBRANCH  27  28
ENDBRANCH   1  27
TORSDOF 13
