REMARK  Name = ZINCtV000002zcgy.0
REMARK                            x       y       z     vdW  Elec       q    Type
REMARK                         _______ _______ _______ _____ _____    ______ ____
ROOT
ATOM      1  C   LIG    1       -2.766  -0.008   0.436  0.00  0.00    +0.280 C 
ATOM      2  N   LIG    1       -2.092   1.163   1.004  0.00  0.00    -0.620 N 
ATOM      3  C   LIG    1       -2.665   1.846   2.014  0.00  0.00    +0.710 C 
ATOM      4  N   LIG    1       -3.859   1.452   2.502  0.00  0.00    -0.680 N 
ATOM      5  H   LIG    1       -4.267   0.633   2.182  0.00  0.00    +0.410 HD
ATOM      6  O   LIG    1       -2.106   2.817   2.486  0.00  0.00    -0.550 OA
ENDROOT
BRANCH   4   7
ATOM      7  C   LIG    1       -4.508   2.226   3.470  0.00  0.00    +0.170 A 
ATOM      8  C   LIG    1       -4.050   3.504   3.762  0.00  0.00    +0.020 A 
ATOM      9  C   LIG    1       -4.697   4.268   4.714  0.00  0.00    +0.020 A 
ATOM     10  C   LIG    1       -5.793   3.756   5.385  0.00  0.00    -0.020 A 
ATOM     11  C   LIG    1       -6.248   2.482   5.100  0.00  0.00    +0.030 A 
ATOM     12  C   LIG    1       -5.609   1.716   4.146  0.00  0.00    -0.110 A 
BRANCH  12  13
ATOM     13  C   LIG    1       -6.106   0.327   3.837  0.00  0.00    -0.030 C 
ATOM     14  C   LIG    1       -4.970  -0.678   4.040  0.00  0.00    +0.030 C 
ATOM     15  C   LIG    1       -6.586   0.267   2.386  0.00  0.00    +0.040 C 
ATOM     16  C   LIG    1       -7.266  -0.020   4.773  0.00  0.00    +0.040 C 
ENDBRANCH  12  13
ENDBRANCH   4   7
BRANCH   2  17
ATOM     17  C   LIG    1       -0.795   1.590   0.473  0.00  0.00    +0.360 C 
BRANCH  17  18
ATOM     18  C   LIG    1       -0.409   0.705  -0.683  0.00  0.00    -0.090 A 
ATOM     19  C   LIG    1       -0.350  -0.666  -0.514  0.00  0.00    +0.040 A 
ATOM     20  C   LIG    1       -0.001  -1.480  -1.576  0.00  0.00    +0.030 A 
ATOM     21  C   LIG    1        0.301  -0.921  -2.805  0.00  0.00    -0.030 A 
ATOM     22  C   LIG    1        0.248   0.452  -2.972  0.00  0.00    +0.030 A 
ATOM     23 CL   LIG    1        0.746  -1.941  -4.137  0.00  0.00    -0.060 Cl
ATOM     24  C   LIG    1       -0.107   1.264  -1.911  0.00  0.00    +0.050 A 
ENDBRANCH  17  18
BRANCH  17  25
ATOM     25  C   LIG    1        0.249   1.488   1.555  0.00  0.00    -0.140 A 
ATOM     26  C   LIG    1        1.273   2.419   1.633  0.00  0.00    +0.080 A 
ATOM     27  C   LIG    1        2.214   2.282   2.642  0.00  0.00    -0.030 A 
ATOM     28  C   LIG    1        2.101   1.229   3.530  0.00  0.00    +0.260 A 
ATOM     29  N   LIG    1        1.113   0.362   3.426  0.00  0.00    -0.480 NA
ATOM     30  C   LIG    1        0.200   0.461   2.479  0.00  0.00    +0.260 A 
ENDBRANCH  17  25
ENDBRANCH   2  17
TORSDOF 5
