REMARK  Name = ZINCrD000000B3Jj.0
REMARK                            x       y       z     vdW  Elec       q    Type
REMARK                         _______ _______ _______ _____ _____    ______ ____
ROOT
ATOM      1  O   LIG    1       -6.675   4.071  -2.717  0.00  0.00    -0.580 OA
ATOM      2  C   LIG    1       -5.917   4.811  -3.312  0.00  0.00    +0.710 C 
ATOM      3  N   LIG    1       -4.743   5.166  -2.753  0.00  0.00    -0.630 N 
ATOM      4  C   LIG    1       -3.760   5.967  -3.498  0.00  0.00    +0.250 C 
ATOM      5  C   LIG    1       -2.397   5.270  -3.405  0.00  0.00    +0.220 C 
ATOM      6  O   LIG    1       -2.095   5.010  -2.032  0.00  0.00    -0.370 OA
ATOM      7  C   LIG    1       -3.014   4.125  -1.387  0.00  0.00    +0.150 C 
ATOM      8  C   LIG    1       -4.408   4.764  -1.377  0.00  0.00    +0.280 C 
ATOM      9  N   LIG    1       -6.249   5.277  -4.533  0.00  0.00    -0.750 N 
ATOM     10  H   LIG    1       -5.615   5.809  -5.038  0.00  0.00    +0.390 HD
ENDROOT
BRANCH   7  11
ATOM     11  C   LIG    1       -2.558   3.873   0.051  0.00  0.00    +0.110 C 
BRANCH  11  12
ATOM     12  C   LIG    1       -1.244   3.135   0.040  0.00  0.00    -0.080 A 
ATOM     13  C   LIG    1       -1.228   1.753   0.032  0.00  0.00    +0.000 A 
ATOM     14  C   LIG    1       -0.023   1.076   0.026  0.00  0.00    +0.000 A 
ATOM     15  C   LIG    1        1.166   1.781   0.017  0.00  0.00    +0.000 A 
ATOM     16  C   LIG    1        1.150   3.163   0.019  0.00  0.00    +0.000 A 
ATOM     17  C   LIG    1       -0.055   3.840   0.031  0.00  0.00    +0.020 A 
ENDBRANCH  11  12
ENDBRANCH   7  11
BRANCH   9  18
ATOM     18  C   LIG    1       -7.569   4.981  -5.095  0.00  0.00    +0.280 C 
BRANCH  18  19
ATOM     19  C   LIG    1       -7.690   5.622  -6.479  0.00  0.00    +0.110 C 
BRANCH  19  20
ATOM     20  C   LIG    1       -9.047   5.317  -7.057  0.00  0.00    -0.170 A 
ATOM     21  C   LIG    1       -9.352   4.313  -7.894  0.00  0.00    +0.230 A 
ATOM     22  N   LIG    1      -10.684   4.351  -8.203  0.00  0.00    -0.590 N 
ATOM     23  H   LIG    1      -11.138   3.724  -8.789  0.00  0.00    +0.420 HD
ATOM     24  C   LIG    1      -11.283   5.412  -7.563  0.00  0.00    +0.090 A 
ATOM     25  C   LIG    1      -12.585   5.902  -7.533  0.00  0.00    -0.010 A 
ATOM     26  C   LIG    1      -12.880   7.015  -6.777  0.00  0.00    +0.030 A 
ATOM     27  C   LIG    1      -11.891   7.655  -6.044  0.00  0.00    -0.020 A 
ATOM     28  C   LIG    1      -10.606   7.191  -6.059  0.00  0.00    +0.050 A 
ATOM     29  C   LIG    1      -10.284   6.065  -6.818  0.00  0.00    -0.100 A 
ENDBRANCH  19  20
ENDBRANCH  18  19
ENDBRANCH   9  18
TORSDOF 5
