REMARK  Name = ZINCpk00000xSu6j.0
REMARK                            x       y       z     vdW  Elec       q    Type
REMARK                         _______ _______ _______ _____ _____    ______ ____
ROOT
ATOM      1  C   LIG    1        1.402   1.981  -4.874  0.00  0.00    +0.150 C 
ATOM      2  C   LIG    1        2.174   1.468  -3.655  0.00  0.00    +0.160 C 
ATOM      3  N   LIG    1        1.357   1.660  -2.448  0.00  0.00    -0.520 NA
ATOM      4  C   LIG    1        1.019   3.079  -2.268  0.00  0.00    +0.150 C 
ATOM      5  C   LIG    1        0.258   3.576  -3.501  0.00  0.00    +0.230 C 
ATOM      6  O   LIG    1        1.054   3.353  -4.668  0.00  0.00    -0.370 OA
ENDROOT
BRANCH   1   7
ATOM      7  C   LIG    1        2.278   1.857  -6.122  0.00  0.00    +0.310 C 
BRANCH   7   9
ATOM      8  C   LIG    1        1.624   3.760  -7.667  0.00  0.00    +0.310 C 
ATOM      9  N   LIG    1        1.538   2.348  -7.288  0.00  0.00    -0.590 N 
BRANCH   9  10
ATOM     10  C   LIG    1        0.755   1.474  -8.034  0.00  0.00    +0.340 A 
ATOM     11  C   LIG    1        0.592   0.152  -7.620  0.00  0.00    -0.050 A 
ATOM     12  C   LIG    1       -0.202  -0.677  -8.395  0.00  0.00    +0.070 A 
ATOM     13  C   LIG    1       -0.778  -0.145  -9.541  0.00  0.00    +0.150 A 
ATOM     14  N   LIG    1       -0.566   1.116  -9.860  0.00  0.00    -0.200 NA
ATOM     15  N   LIG    1        0.165   1.891  -9.144  0.00  0.00    -0.300 NA
ENDBRANCH   9  10
ENDBRANCH   7   9
ENDBRANCH   1   7
BRANCH   3  16
ATOM     16  C   LIG    1        2.040   1.127  -1.261  0.00  0.00    +0.160 C 
BRANCH  16  17
ATOM     17  C   LIG    1        1.286   1.562  -0.002  0.00  0.00    +0.260 C 
BRANCH  17  18
ATOM     18  C   LIG    1        2.052   1.121   1.219  0.00  0.00    -0.130 A 
ATOM     19  C   LIG    1        1.955  -0.186   1.660  0.00  0.00    +0.050 A 
ATOM     20  C   LIG    1        2.661  -0.593   2.776  0.00  0.00    -0.010 A 
ATOM     21  C   LIG    1        3.456   0.311   3.460  0.00  0.00    +0.100 A 
ATOM     22  C   LIG    1        3.548   1.621   3.020  0.00  0.00    -0.010 A 
ATOM     23  F   LIG    1        4.142  -0.084   4.555  0.00  0.00    -0.140 F 
ATOM     24  C   LIG    1        2.846   2.025   1.900  0.00  0.00    +0.050 A 
ENDBRANCH  17  18
BRANCH  17  25
ATOM     25  O   LIG    1       -0.011   0.963   0.007  0.00  0.00    -0.540 OA
ATOM     26  H   LIG    1        0.002  -0.004   0.002  0.00  0.00    +0.380 HD
ENDBRANCH  17  25
ENDBRANCH  16  17
ENDBRANCH   3  16
TORSDOF 7
