REMARK  Name = ZINCrD000000AfFu.0
REMARK                            x       y       z     vdW  Elec       q    Type
REMARK                         _______ _______ _______ _____ _____    ______ ____
ROOT
ATOM      1  O   LIG    1        1.653  -6.845  -0.049  0.00  0.00    -0.460 OA
ATOM      2  C   LIG    1        0.470  -6.580  -0.037  0.00  0.00    +0.510 C 
ATOM      3  N   LIG    1       -0.443  -7.572  -0.033  0.00  0.00    -0.640 N 
ATOM      4  H   LIG    1       -1.389  -7.360  -0.024  0.00  0.00    +0.420 HD
ENDROOT
BRANCH   3   5
ATOM      5  C   LIG    1       -0.028  -8.898  -0.044  0.00  0.00    +0.270 A 
ATOM      6  N   LIG    1        1.208  -9.289  -0.063  0.00  0.00    -0.470 NA
ATOM      7  C   LIG    1        1.423 -10.591  -0.066  0.00  0.00    +0.260 A 
ATOM      8  C   LIG    1        0.315 -11.336  -0.060  0.00  0.00    -0.240 A 
ATOM      9  S   LIG    1       -1.073 -10.251  -0.041  0.00  0.00    +0.130 S 
BRANCH   8  10
ATOM     10  C   LIG    1        0.261 -12.842  -0.067  0.00  0.00    +0.210 C 
BRANCH  10  11
ATOM     11  C   LIG    1        0.257 -13.352   1.351  0.00  0.00    -0.020 A 
ATOM     12  C   LIG    1        1.452 -13.633   1.988  0.00  0.00    -0.010 A 
ATOM     13  C   LIG    1        1.449 -14.097   3.292  0.00  0.00    +0.140 A 
ATOM     14  C   LIG    1        0.249 -14.287   3.956  0.00  0.00    -0.040 A 
ATOM     15  C   LIG    1       -0.946 -14.010   3.316  0.00  0.00    +0.140 A 
ATOM     16  F   LIG    1       -2.118 -14.196   3.963  0.00  0.00    -0.130 F 
ATOM     17  F   LIG    1        2.617 -14.367   3.916  0.00  0.00    -0.130 F 
ATOM     18  C   LIG    1       -0.941 -13.542   2.013  0.00  0.00    -0.020 A 
ENDBRANCH  10  11
ENDBRANCH   8  10
ENDBRANCH   3   5
BRANCH   2  19
ATOM     19  C   LIG    1        0.019  -5.142  -0.025  0.00  0.00    +0.070 C 
BRANCH  19  20
ATOM     20  C   LIG    1        1.244  -4.224  -0.032  0.00  0.00    +0.290 C 
BRANCH  20  21
ATOM     21  N   LIG    1        0.806  -2.826  -0.020  0.00  0.00    -0.720 N 
ATOM     22  H   LIG    1       -0.140  -2.614  -0.011  0.00  0.00    +0.410 HD
ATOM     23  C   LIG    1        1.719  -1.834  -0.024  0.00  0.00    +0.610 C 
ATOM     24  O   LIG    1        2.906  -2.100  -0.036  0.00  0.00    -0.510 OA
BRANCH  23  25
ATOM     25  C   LIG    1        1.281  -0.434  -0.013  0.00  0.00    -0.090 A 
ATOM     26  C   LIG    1        2.095   0.661  -0.014  0.00  0.00    +0.050 A 
ATOM     27  C   LIG    1        1.257   1.787  -0.000  0.00  0.00    -0.060 A 
ATOM     28  C   LIG    1       -0.016   1.335   0.009  0.00  0.00    +0.210 A 
ATOM     29  O   LIG    1        0.002  -0.004   0.002  0.00  0.00    -0.170 OA
ENDBRANCH  23  25
ENDBRANCH  20  21
ENDBRANCH  19  20
ENDBRANCH   2  19
TORSDOF 7
