REMARK  Name = ZINCqH0000003wrX.0
REMARK                            x       y       z     vdW  Elec       q    Type
REMARK                         _______ _______ _______ _____ _____    ______ ____
ROOT
ATOM      1  C   LIG    1       -0.060   0.363   0.915  0.00  0.00    +0.310 C 
ATOM      2  C   LIG    1       -0.303   0.295  -0.594  0.00  0.00    +0.040 C 
ENDROOT
BRANCH   1   9
ATOM      3  C   LIG    1       -1.075   6.467   2.130  0.00  0.00    +0.150 C 
ATOM      4  C   LIG    1        0.166   5.641   1.787  0.00  0.00    +0.030 C 
ATOM      5  C   LIG    1        0.084   4.285   2.494  0.00  0.00    +0.270 C 
ATOM      6  N   LIG    1       -1.187   3.641   2.136  0.00  0.00    -0.630 N 
ATOM      7  C   LIG    1       -2.437   4.386   2.335  0.00  0.00    +0.300 C 
ATOM      8  C   LIG    1       -1.204   2.392   1.628  0.00  0.00    +0.710 C 
ATOM      9  N   LIG    1       -0.047   1.763   1.345  0.00  0.00    -0.740 N 
ATOM     10  H   LIG    1        0.795   2.239   1.423  0.00  0.00    +0.390 HD
ATOM     11  O   LIG    1       -2.265   1.833   1.426  0.00  0.00    -0.590 OA
ATOM     12  C   LIG    1       -2.327   5.739   1.635  0.00  0.00    +0.000 C 
BRANCH   3  13
ATOM     13  O   LIG    1       -0.987   7.745   1.498  0.00  0.00    -0.380 OA
BRANCH  13  15
ATOM     14  C   LIG    1       -1.486  10.109   1.447  0.00  0.00    +0.040 C 
ATOM     15  C   LIG    1       -1.645   8.794   2.212  0.00  0.00    +0.160 C 
ENDBRANCH  13  15
ENDBRANCH   3  13
ENDBRANCH   1   9
BRANCH   1  16
ATOM     16  C   LIG    1        1.266  -0.275   1.240  0.00  0.00    -0.090 A 
ATOM     17  C   LIG    1        2.437   0.433   1.048  0.00  0.00    +0.010 A 
ATOM     18  C   LIG    1        3.656  -0.146   1.349  0.00  0.00    -0.030 A 
ATOM     19  C   LIG    1        3.706  -1.442   1.834  0.00  0.00    +0.110 A 
ATOM     20  C   LIG    1        2.527  -2.158   2.022  0.00  0.00    +0.100 A 
ATOM     21  C   LIG    1        1.309  -1.570   1.723  0.00  0.00    -0.020 A 
BRANCH  20  22
ATOM     22  O   LIG    1        2.571  -3.431   2.498  0.00  0.00    -0.300 OA
ATOM     23  C   LIG    1        1.322  -4.104   2.666  0.00  0.00    +0.240 C 
ENDBRANCH  20  22
BRANCH  19  24
ATOM     24  O   LIG    1        4.905  -2.015   2.125  0.00  0.00    -0.300 OA
BRANCH  24  25
ATOM     25  C   LIG    1        6.077  -1.251   1.835  0.00  0.00    +0.150 C 
ATOM     26  C   LIG    1        7.267  -2.194   1.646  0.00  0.00    +0.070 C 
ATOM     27  C   LIG    1        6.362  -0.295   2.995  0.00  0.00    +0.020 C 
ENDBRANCH  24  25
ENDBRANCH  19  24
ENDBRANCH   1  16
TORSDOF 7
