REMARK  Name = ZINCrH000004pWvn.0
REMARK                            x       y       z     vdW  Elec       q    Type
REMARK                         _______ _______ _______ _____ _____    ______ ____
ROOT
ATOM      1  C   LIG    1       -2.208   1.161   1.197  0.00  0.00    -0.010 C 
ATOM      2  C   LIG    1       -0.736   1.583   1.264  0.00  0.00    +0.030 C 
ATOM      3  C   LIG    1       -0.013   1.086   0.008  0.00  0.00    +0.280 C 
ATOM      4  N   LIG    1       -0.729   1.575  -1.178  0.00  0.00    -0.620 N 
ATOM      5  C   LIG    1       -2.168   1.303  -1.297  0.00  0.00    +0.270 C 
ATOM      6  C   LIG    1       -0.078   2.261  -2.138  0.00  0.00    +0.520 C 
ATOM      7  O   LIG    1        1.110   2.480  -2.029  0.00  0.00    -0.540 OA
ATOM      8  C   LIG    1       -2.869   1.797  -0.028  0.00  0.00    +0.060 C 
ENDROOT
BRANCH   1  11
ATOM      9  N   LIG    1       -2.506   1.183   3.652  0.00  0.00    -0.720 N 
ATOM     10  H   LIG    1       -1.753   0.575   3.718  0.00  0.00    +0.400 HD
ATOM     11  C   LIG    1       -2.918   1.619   2.445  0.00  0.00    +0.520 C 
ATOM     12  O   LIG    1       -3.860   2.379   2.363  0.00  0.00    -0.540 OA
BRANCH   9  20
ATOM     13  C   LIG    1       -3.576  -0.752   5.522  0.00  0.00    +0.020 C 
ATOM     14  C   LIG    1       -3.000   0.591   5.973  0.00  0.00    +0.000 C 
ATOM     15  C   LIG    1       -1.506   0.433   6.265  0.00  0.00    -0.020 C 
ATOM     16  C   LIG    1       -0.929   1.776   6.716  0.00  0.00    +0.000 C 
ATOM     17  C   LIG    1       -1.126   2.813   5.608  0.00  0.00    +0.000 C 
ATOM     18  C   LIG    1       -2.619   2.972   5.317  0.00  0.00    +0.010 C 
ATOM     19  C   LIG    1       -1.310  -0.604   7.372  0.00  0.00    +0.030 C 
ATOM     20  C   LIG    1       -3.196   1.628   4.866  0.00  0.00    +0.240 C 
ENDBRANCH   9  20
ENDBRANCH   1  11
BRANCH   6  21
ATOM     21  C   LIG    1       -0.827   2.757  -3.349  0.00  0.00    +0.070 C 
BRANCH  21  22
ATOM     22  C   LIG    1        0.138   3.498  -4.277  0.00  0.00    +0.090 C 
BRANCH  22  23
ATOM     23  C   LIG    1       -0.611   3.994  -5.487  0.00  0.00    -0.080 A 
ATOM     24  C   LIG    1       -0.708   3.198  -6.613  0.00  0.00    +0.000 A 
ATOM     25  C   LIG    1       -1.398   3.651  -7.722  0.00  0.00    +0.000 A 
ATOM     26  C   LIG    1       -1.983   4.903  -7.708  0.00  0.00    +0.000 A 
ATOM     27  C   LIG    1       -1.881   5.701  -6.584  0.00  0.00    +0.000 A 
ATOM     28  C   LIG    1       -1.195   5.246  -5.473  0.00  0.00    +0.000 A 
ENDBRANCH  22  23
ENDBRANCH  21  22
ENDBRANCH   6  21
TORSDOF 5
