REMARK  Name = ZINCrD00000hQ6nF.0
REMARK                            x       y       z     vdW  Elec       q    Type
REMARK                         _______ _______ _______ _____ _____    ______ ____
ROOT
ATOM      1  C   LIG    1        3.764  -4.788  -0.153  0.00  0.00    +0.100 A 
ATOM      2  C   LIG    1        4.935  -4.040  -0.159  0.00  0.00    +0.060 A 
ATOM      3  C   LIG    1        6.157  -4.674  -0.262  0.00  0.00    -0.060 A 
ATOM      4  C   LIG    1        6.216  -6.056  -0.369  0.00  0.00    +0.120 A 
ATOM      5  C   LIG    1        5.047  -6.803  -0.368  0.00  0.00    +0.010 A 
ATOM      6  C   LIG    1        3.824  -6.171  -0.261  0.00  0.00    +0.030 A 
ENDROOT
BRANCH   1   9
ATOM      7  O   LIG    1        3.357  -2.615   1.332  0.00  0.00    -0.500 OA
ATOM      8  C   LIG    1        2.409  -3.021   0.688  0.00  0.00    +0.560 C 
ATOM      9  N   LIG    1        2.524  -4.146  -0.045  0.00  0.00    -0.660 N 
ATOM     10  H   LIG    1        1.748  -4.512  -0.497  0.00  0.00    +0.410 HD
BRANCH   8  11
ATOM     11  C   LIG    1        1.131  -2.279   0.708  0.00  0.00    -0.130 A 
ATOM     12  C   LIG    1        0.041  -2.741  -0.030  0.00  0.00    +0.110 A 
ATOM     13  C   LIG    1       -1.150  -2.044  -0.007  0.00  0.00    +0.040 A 
ATOM     14  C   LIG    1       -1.266  -0.892   0.750  0.00  0.00    +0.130 A 
ATOM     15  C   LIG    1       -0.187  -0.426   1.481  0.00  0.00    -0.050 A 
ATOM     16  C   LIG    1        1.009  -1.113   1.466  0.00  0.00    +0.170 A 
BRANCH  15  17
ATOM     17  N   LIG    1       -0.319   0.811   2.284  0.00  0.00    +0.020 N 
ATOM     18  O   LIG    1       -1.372   1.422   2.293  0.00  0.00    -0.150 OA
ATOM     19  O   LIG    1        0.629   1.220   2.931  0.00  0.00    -0.150 OA
ENDBRANCH  15  17
ENDBRANCH   8  11
ENDBRANCH   1   9
BRANCH   4  20
ATOM     20  O   LIG    1        7.420  -6.679  -0.474  0.00  0.00    -0.310 OA
BRANCH  20  21
ATOM     21  C   LIG    1        8.583  -5.848  -0.468  0.00  0.00    +0.220 C 
BRANCH  21  22
ATOM     22  C   LIG    1        9.833  -6.721  -0.595  0.00  0.00    +0.090 C 
ATOM     23  C   LIG    1        9.640  -8.239  -0.615  0.00  0.00    +0.180 C 
ATOM     24  N   LIG    1       10.000  -7.497  -1.831  0.00  0.00    -0.440 NA
BRANCH  24  25
ATOM     25  C   LIG    1        8.836  -7.338  -2.714  0.00  0.00    +0.190 C 
BRANCH  25  26
ATOM     26  C   LIG    1        9.147  -7.948  -4.082  0.00  0.00    -0.030 C 
ATOM     27  C   LIG    1        9.177  -7.005  -5.286  0.00  0.00    +0.000 C 
ATOM     28  C   LIG    1        8.016  -7.986  -5.111  0.00  0.00    +0.010 C 
ENDBRANCH  25  26
ENDBRANCH  24  25
ENDBRANCH  21  22
ENDBRANCH  20  21
ENDBRANCH   4  20
TORSDOF 8
