REMARK  Name = ZINCrH000004psvt.1
REMARK                            x       y       z     vdW  Elec       q    Type
REMARK                         _______ _______ _______ _____ _____    ______ ____
ROOT
ATOM      1  C   LIG    1       -0.004   1.100   0.008  0.00  0.00    +0.220 C 
ENDROOT
BRANCH   1   2
ATOM      2  C   LIG    1       -0.739   1.590  -1.213  0.00  0.00    +0.520 C 
ATOM      3  N   LIG    1       -0.288   1.272  -2.443  0.00  0.00    -0.680 N 
ATOM      4  H   LIG    1        0.544   0.784  -2.544  0.00  0.00    +0.410 HD
ATOM      5  O   LIG    1       -1.736   2.270  -1.089  0.00  0.00    -0.500 OA
BRANCH   3   6
ATOM      6  C   LIG    1       -1.022   1.646  -3.575  0.00  0.00    +0.200 A 
ATOM      7  C   LIG    1       -1.722   2.845  -3.585  0.00  0.00    +0.030 A 
ATOM      8  C   LIG    1       -2.440   3.214  -4.706  0.00  0.00    +0.070 A 
ATOM      9  C   LIG    1       -2.471   2.386  -5.812  0.00  0.00    +0.000 A 
ATOM     10  C   LIG    1       -1.779   1.189  -5.803  0.00  0.00    +0.090 A 
ATOM     11  C   LIG    1       -1.054   0.817  -4.688  0.00  0.00    -0.220 A 
BRANCH  11  12
ATOM     12  C   LIG    1       -0.301  -0.488  -4.679  0.00  0.00    +0.510 C 
ATOM     13  F   LIG    1       -0.779  -1.296  -3.642  0.00  0.00    -0.170 F 
ATOM     14  F   LIG    1        1.062  -0.238  -4.484  0.00  0.00    -0.180 F 
ATOM     15  F   LIG    1       -0.485  -1.141  -5.902  0.00  0.00    -0.170 F 
ENDBRANCH  11  12
ENDBRANCH   3   6
ENDBRANCH   1   2
BRANCH   1  16
ATOM     16  N   LIG    1       -0.690   1.577   1.216  0.00  0.00    -0.660 NA
ATOM     17  H   LIG    1       -0.777   2.583   1.209  0.00  0.00    +0.350 HD
BRANCH  16  19
ATOM     18  C   LIG    1        1.134   2.088   2.769  0.00  0.00    +0.010 C 
ATOM     19  C   LIG    1        0.000   1.118   2.429  0.00  0.00    +0.220 C 
BRANCH  19  20
ATOM     20  C   LIG    1       -0.978   1.068   3.575  0.00  0.00    -0.070 A 
ATOM     21  C   LIG    1       -1.917   2.070   3.724  0.00  0.00    +0.040 A 
ATOM     22  C   LIG    1       -2.819   2.025   4.771  0.00  0.00    +0.020 A 
ATOM     23  C   LIG    1       -2.775   0.980   5.681  0.00  0.00    +0.050 A 
ATOM     24  O   LIG    1       -3.663   0.953   6.712  0.00  0.00    -0.310 OA
ATOM     25  C   LIG    1       -3.833  -0.300   7.383  0.00  0.00    +0.220 C 
ATOM     26  C   LIG    1       -2.444  -0.888   7.662  0.00  0.00    +0.220 C 
ATOM     27  O   LIG    1       -1.772  -1.066   6.410  0.00  0.00    -0.310 OA
ATOM     28  C   LIG    1       -1.827  -0.027   5.533  0.00  0.00    +0.050 A 
ATOM     29  C   LIG    1       -0.929   0.022   4.478  0.00  0.00    +0.020 A 
ENDBRANCH  19  20
ENDBRANCH  16  19
ENDBRANCH   1  16
TORSDOF 6
