REMARK  Name = ZINCrm000000PYAi.2
REMARK                            x       y       z     vdW  Elec       q    Type
REMARK                         _______ _______ _______ _____ _____    ______ ____
ROOT
ATOM      1  O   LIG    1        3.417   2.237  -1.038  0.00  0.00    -0.510 OA
ATOM      2  C   LIG    1        3.472   3.329  -0.506  0.00  0.00    +0.600 C 
ATOM      3  N   LIG    1        2.355   3.888   0.001  0.00  0.00    -0.680 N 
ATOM      4  H   LIG    1        2.382   4.792   0.354  0.00  0.00    +0.400 HD
ENDROOT
BRANCH   2   5
ATOM      5  C   LIG    1        4.760   4.041  -0.414  0.00  0.00    -0.290 A 
ATOM      6  C   LIG    1        4.973   5.279   0.160  0.00  0.00    +0.310 A 
ATOM      7  N   LIG    1        6.279   5.560   0.033  0.00  0.00    -0.430 N 
ATOM      8  H   LIG    1        6.718   6.367   0.346  0.00  0.00    +0.460 HD
ATOM      9  N   LIG    1        6.902   4.494  -0.626  0.00  0.00    -0.270 NA
ATOM     10  C   LIG    1        6.008   3.582  -0.891  0.00  0.00    +0.130 A 
BRANCH  10  11
ATOM     11  C   LIG    1        6.261   2.270  -1.587  0.00  0.00    +0.110 C 
ATOM     12  C   LIG    1        7.277   1.416  -0.794  0.00  0.00    +0.080 C 
ATOM     13  C   LIG    1        8.175   0.764  -1.861  0.00  0.00    +0.280 C 
ATOM     14  N   LIG    1        7.670   1.203  -3.180  0.00  0.00    -0.520 N 
ATOM     15  H   LIG    1        7.019   0.525  -3.546  0.00  0.00    +0.430 HD
ATOM     16  H   LIG    1        8.439   1.331  -3.821  0.00  0.00    +0.440 HD
ATOM     17  C   LIG    1        6.982   2.497  -2.940  0.00  0.00    +0.280 C 
ENDBRANCH  10  11
ENDBRANCH   2   5
BRANCH   3  18
ATOM     18  C   LIG    1        1.157   3.166   0.018  0.00  0.00    +0.170 A 
ATOM     19  C   LIG    1        1.182   1.778   0.018  0.00  0.00    +0.030 A 
ATOM     20  C   LIG    1       -0.003   1.068   0.035  0.00  0.00    +0.080 A 
ATOM     21  C   LIG    1       -1.212   1.738   0.047  0.00  0.00    +0.010 A 
ATOM     22  C   LIG    1       -1.240   3.121   0.053  0.00  0.00    +0.070 A 
ATOM     23  C   LIG    1       -0.059   3.837   0.036  0.00  0.00    -0.190 A 
BRANCH  23  24
ATOM     24  C   LIG    1       -0.090   5.343   0.036  0.00  0.00    +0.320 C 
BRANCH  24  25
ATOM     25  N   LIG    1        0.119   5.837  -1.331  0.00  0.00    -0.390 N 
ATOM     26  C   LIG    1       -0.867   5.224  -2.229  0.00  0.00    +0.260 C 
ATOM     27  C   LIG    1       -0.602   5.673  -3.667  0.00  0.00    +0.030 C 
ATOM     28  C   LIG    1       -0.714   7.198  -3.749  0.00  0.00    +0.180 C 
ATOM     29  C   LIG    1        0.267   7.826  -2.756  0.00  0.00    +0.070 C 
ATOM     30  C   LIG    1       -0.030   7.298  -1.351  0.00  0.00    +0.270 C 
ATOM     31  H   LIG    1        1.049   5.591  -1.638  0.00  0.00    +0.410 HD
BRANCH  28  32
ATOM     32  O   LIG    1       -0.395   7.629  -5.074  0.00  0.00    -0.550 OA
ATOM     33  H   LIG    1       -0.977   7.269  -5.756  0.00  0.00    +0.400 HD
ENDBRANCH  28  32
ENDBRANCH  24  25
ENDBRANCH  23  24
ENDBRANCH   3  18
TORSDOF 6
