REMARK  Name = ZINCrm000000PYAi.0
REMARK                            x       y       z     vdW  Elec       q    Type
REMARK                         _______ _______ _______ _____ _____    ______ ____
ROOT
ATOM      1  O   LIG    1       -2.537   4.300  -1.072  0.00  0.00    -0.520 OA
ATOM      2  C   LIG    1       -1.440   4.339  -0.547  0.00  0.00    +0.600 C 
ATOM      3  N   LIG    1       -1.014   5.475   0.038  0.00  0.00    -0.680 N 
ATOM      4  H   LIG    1       -0.168   5.488   0.513  0.00  0.00    +0.410 HD
ENDROOT
BRANCH   2   5
ATOM      5  C   LIG    1       -0.578   3.143  -0.552  0.00  0.00    -0.280 A 
ATOM      6  C   LIG    1       -0.878   1.918  -1.114  0.00  0.00    +0.160 A 
ATOM      7  N   LIG    1        0.170   1.108  -0.895  0.00  0.00    -0.450 N 
ATOM      8  H   LIG    1        0.240   0.183  -1.177  0.00  0.00    +0.450 HD
ATOM      9  N   LIG    1        1.147   1.826  -0.195  0.00  0.00    -0.250 NA
ATOM     10  C   LIG    1        0.712   3.038   0.014  0.00  0.00    +0.280 A 
BRANCH   6  11
ATOM     11  C   LIG    1       -2.150   1.556  -1.837  0.00  0.00    +0.100 C 
ATOM     12  C   LIG    1       -2.839   0.349  -1.162  0.00  0.00    +0.080 C 
ATOM     13  C   LIG    1       -3.370  -0.513  -2.323  0.00  0.00    +0.270 C 
ATOM     14  N   LIG    1       -3.025   0.190  -3.578  0.00  0.00    -0.520 N 
ATOM     15  H   LIG    1       -3.794   0.773  -3.873  0.00  0.00    +0.440 HD
ATOM     16  H   LIG    1       -2.796  -0.477  -4.299  0.00  0.00    +0.440 HD
ATOM     17  C   LIG    1       -1.839   1.032  -3.262  0.00  0.00    +0.280 C 
ENDBRANCH   6  11
ENDBRANCH   2   5
BRANCH   3  18
ATOM     18  C   LIG    1       -1.790   6.636  -0.040  0.00  0.00    +0.170 A 
ATOM     19  C   LIG    1       -3.176   6.549  -0.028  0.00  0.00    +0.040 A 
ATOM     20  C   LIG    1       -3.940   7.697  -0.098  0.00  0.00    +0.070 A 
ATOM     21  C   LIG    1       -3.326   8.933  -0.193  0.00  0.00    +0.020 A 
ATOM     22  C   LIG    1       -1.946   9.023  -0.211  0.00  0.00    +0.070 A 
ATOM     23  C   LIG    1       -1.177   7.879  -0.135  0.00  0.00    -0.180 A 
BRANCH  23  24
ATOM     24  C   LIG    1        0.327   7.978  -0.154  0.00  0.00    +0.320 C 
BRANCH  24  25
ATOM     25  N   LIG    1        0.821   7.672  -1.503  0.00  0.00    -0.380 N 
ATOM     26  C   LIG    1        0.156   8.548  -2.476  0.00  0.00    +0.260 C 
ATOM     27  C   LIG    1        0.607   8.179  -3.891  0.00  0.00    +0.030 C 
ATOM     28  C   LIG    1        2.124   8.352  -3.999  0.00  0.00    +0.180 C 
ATOM     29  C   LIG    1        2.804   7.491  -2.931  0.00  0.00    +0.070 C 
ATOM     30  C   LIG    1        2.272   7.885  -1.551  0.00  0.00    +0.270 C 
ATOM     31  H   LIG    1        0.616   6.710  -1.725  0.00  0.00    +0.420 HD
BRANCH  28  32
ATOM     32  O   LIG    1        2.561   7.939  -5.296  0.00  0.00    -0.550 OA
ATOM     33  H   LIG    1        2.169   8.443  -6.022  0.00  0.00    +0.400 HD
ENDBRANCH  28  32
ENDBRANCH  24  25
ENDBRANCH  23  24
ENDBRANCH   3  18
TORSDOF 6
