REMARK  Name = ZINCrD000000gQjN.0
REMARK                            x       y       z     vdW  Elec       q    Type
REMARK                         _______ _______ _______ _____ _____    ______ ____
ROOT
ATOM      1  N   LIG    1       -1.825   7.834  -6.482  0.00  0.00    -0.710 N 
ATOM      2  H   LIG    1       -2.787   7.871  -6.365  0.00  0.00    +0.400 HD
ATOM      3  C   LIG    1       -1.040   7.406  -5.474  0.00  0.00    +0.690 C 
ATOM      4  O   LIG    1        0.169   7.359  -5.621  0.00  0.00    -0.610 OA
ENDROOT
BRANCH   3   5
ATOM      5  N   LIG    1       -1.587   7.033  -4.311  0.00  0.00    -0.690 NA
ATOM      6  C   LIG    1       -0.812   6.612  -3.317  0.00  0.00    +0.500 A 
ATOM      7  C   LIG    1        0.595   6.503  -3.340  0.00  0.00    -0.110 A 
ATOM      8  C   LIG    1        1.003   6.038  -2.140  0.00  0.00    +0.340 A 
ATOM      9  N   LIG    1       -0.089   5.844  -1.346  0.00  0.00    -0.380 N 
ATOM     10  N   LIG    1       -1.233   6.194  -2.077  0.00  0.00    -0.480 N 
ATOM     11  H   LIG    1       -2.150   6.153  -1.764  0.00  0.00    +0.450 HD
BRANCH   9  12
ATOM     12  C   LIG    1       -0.070   5.347   0.032  0.00  0.00    +0.400 C 
BRANCH  12  13
ATOM     13  C   LIG    1       -0.050   3.840   0.023  0.00  0.00    -0.130 A 
ATOM     14  C   LIG    1        1.156   3.165   0.008  0.00  0.00    +0.030 A 
ATOM     15  C   LIG    1        1.175   1.783   0.000  0.00  0.00    +0.010 A 
ATOM     16  C   LIG    1       -0.013   1.076   0.008  0.00  0.00    +0.030 A 
ATOM     17  C   LIG    1       -1.219   1.751   0.017  0.00  0.00    +0.010 A 
ATOM     18  C   LIG    1       -1.238   3.133   0.029  0.00  0.00    +0.020 A 
ENDBRANCH  12  13
ENDBRANCH   9  12
ENDBRANCH   3   5
BRANCH   1  19
ATOM     19  C   LIG    1       -1.226   8.242  -7.755  0.00  0.00    +0.250 C 
BRANCH  19  21
ATOM     20  C   LIG    1        0.235   9.868  -6.546  0.00  0.00    +0.030 C 
ATOM     21  C   LIG    1       -0.792   9.707  -7.668  0.00  0.00    -0.080 C 
ATOM     22  C   LIG    1       -2.011  10.583  -7.374  0.00  0.00    +0.020 C 
ATOM     23  C   LIG    1       -0.166  10.133  -8.998  0.00  0.00    +0.030 C 
ENDBRANCH  19  21
BRANCH  19  24
ATOM     24  C   LIG    1       -2.253   8.081  -8.878  0.00  0.00    +0.300 C 
BRANCH  24  25
ATOM     25  N   LIG    1       -2.580   6.662  -9.040  0.00  0.00    -0.450 N 
ATOM     26  C   LIG    1       -1.948   5.772  -9.867  0.00  0.00    +0.110 A 
ATOM     27  C   LIG    1       -2.561   4.585  -9.704  0.00  0.00    +0.140 A 
ATOM     28  N   LIG    1       -3.547   4.747  -8.809  0.00  0.00    -0.500 NA
ATOM     29  C   LIG    1       -3.564   5.988  -8.407  0.00  0.00    +0.390 A 
ENDBRANCH  24  25
ENDBRANCH  19  24
ENDBRANCH   1  19
TORSDOF 7
