REMARK  Name = ZINCtV00000L6lc1.0
REMARK                            x       y       z     vdW  Elec       q    Type
REMARK                         _______ _______ _______ _____ _____    ______ ____
ROOT
ATOM      1  C   LIG    1        1.735  -2.302  -2.514  0.00  0.00    +0.480 A 
ATOM      2  C   LIG    1        1.291  -1.863  -1.284  0.00  0.00    -0.140 A 
ATOM      3  C   LIG    1        1.383  -0.507  -0.972  0.00  0.00    +0.260 A 
ATOM      4  N   LIG    1        1.896   0.341  -1.837  0.00  0.00    -0.500 NA
ATOM      5  C   LIG    1        2.336  -0.069  -3.031  0.00  0.00    +0.320 A 
ATOM      6  C   LIG    1        2.912   0.611  -4.111  0.00  0.00    -0.220 A 
ATOM      7  C   LIG    1        3.175  -0.338  -5.106  0.00  0.00    +0.320 A 
ATOM      8  N   LIG    1        2.792  -1.516  -4.679  0.00  0.00    -0.330 NA
ATOM      9  N   LIG    1        2.264  -1.390  -3.390  0.00  0.00    -0.340 N 
ENDROOT
BRANCH   6  10
ATOM     10  C   LIG    1        3.191   2.064  -4.187  0.00  0.00    +0.020 A 
ATOM     11  C   LIG    1        2.192   2.985  -3.874  0.00  0.00    +0.040 A 
ATOM     12  C   LIG    1        2.458   4.337  -3.942  0.00  0.00    +0.020 A 
ATOM     13  C   LIG    1        3.711   4.780  -4.330  0.00  0.00    -0.040 A 
ATOM     14  C   LIG    1        4.705   3.870  -4.647  0.00  0.00    +0.020 A 
ATOM     15 CL   LIG    1        4.037   6.483  -4.419  0.00  0.00    -0.080 Cl
ATOM     16  C   LIG    1        4.451   2.515  -4.578  0.00  0.00    +0.030 A 
ENDBRANCH   6  10
BRANCH   3  17
ATOM     17  C   LIG    1        0.896  -0.012   0.366  0.00  0.00    -0.020 C 
ATOM     18  C   LIG    1       -0.594  -0.323   0.514  0.00  0.00    +0.050 C 
ATOM     19  C   LIG    1        1.676  -0.709   1.482  0.00  0.00    +0.050 C 
ATOM     20  C   LIG    1        1.114   1.500   0.459  0.00  0.00    +0.050 C 
ENDBRANCH   3  17
BRANCH   1  21
ATOM     21  N   LIG    1        1.653  -3.635  -2.855  0.00  0.00    -0.650 N 
ATOM     22  H   LIG    1        1.878  -3.921  -3.754  0.00  0.00    +0.420 HD
BRANCH  21  26
ATOM     23  C   LIG    1        0.443  -6.441  -0.019  0.00  0.00    +0.130 A 
ATOM     24  C   LIG    1       -0.045  -6.511  -1.316  0.00  0.00    +0.010 A 
ATOM     25  C   LIG    1        0.355  -5.582  -2.256  0.00  0.00    +0.050 A 
ATOM     26  C   LIG    1        1.247  -4.577  -1.902  0.00  0.00    +0.110 A 
ATOM     27  C   LIG    1        1.739  -4.511  -0.605  0.00  0.00    +0.040 A 
ATOM     28  C   LIG    1        1.334  -5.438   0.335  0.00  0.00    -0.040 A 
BRANCH  23  30
ATOM     29  C   LIG    1        0.591  -7.225   2.221  0.00  0.00    +0.240 C 
ATOM     30  O   LIG    1        0.049  -7.357   0.906  0.00  0.00    -0.310 OA
ENDBRANCH  23  30
ENDBRANCH  21  26
ENDBRANCH   1  21
TORSDOF 5
