REMARK  Name = ZINCpe00000gMRvu.0
REMARK                            x       y       z     vdW  Elec       q    Type
REMARK                         _______ _______ _______ _____ _____    ______ ____
ROOT
ATOM      1  C   LIG    1       -0.008   1.096   0.024  0.00  0.00    +0.180 C 
ATOM      2  C   LIG    1       -0.480   1.908   1.232  0.00  0.00    +0.070 C 
ENDROOT
BRANCH   1   3
ATOM      3  C   LIG    1       -0.605   1.674  -1.234  0.00  0.00    +0.520 C 
ATOM      4  N   LIG    1       -1.901   1.452  -1.529  0.00  0.00    -0.610 N 
ATOM      5  C   LIG    1       -2.768   0.724  -0.592  0.00  0.00    +0.260 C 
ATOM      6  C   LIG    1       -4.011   1.581  -0.310  0.00  0.00    +0.030 C 
ATOM      7  C   LIG    1       -4.684   1.945  -1.636  0.00  0.00    +0.030 C 
ATOM      8  C   LIG    1       -3.717   2.765  -2.493  0.00  0.00    -0.020 C 
ATOM      9  C   LIG    1       -2.472   1.926  -2.797  0.00  0.00    +0.310 C 
ATOM     10  O   LIG    1        0.082   2.340  -1.980  0.00  0.00    -0.510 OA
BRANCH   8  11
ATOM     11  C   LIG    1       -4.392   3.150  -3.784  0.00  0.00    +0.530 C 
ATOM     12  O   LIG    1       -3.924   2.789  -4.844  0.00  0.00    -0.540 OA
ATOM     13  N   LIG    1       -5.515   3.895  -3.762  0.00  0.00    -0.850 N 
ATOM     14  H   LIG    1       -5.949   4.142  -4.593  0.00  0.00    +0.400 HD
ATOM     15  H   LIG    1       -5.889   4.183  -2.915  0.00  0.00    +0.400 HD
ENDBRANCH   8  11
ENDBRANCH   1   3
BRANCH   1  16
ATOM     16  O   LIG    1        1.440   1.149  -0.059  0.00  0.00    -0.330 OA
BRANCH  16  17
ATOM     17  C   LIG    1        2.123   0.195   0.592  0.00  0.00    +0.460 C 
ATOM     18  O   LIG    1        1.530  -0.657   1.211  0.00  0.00    -0.490 OA
BRANCH  17  19
ATOM     19  C   LIG    1        3.630   0.185   0.552  0.00  0.00    +0.170 C 
BRANCH  19  24
ATOM     20  C   LIG    1        5.613  -4.291   3.628  0.00  0.00    +0.090 C 
ATOM     21  C   LIG    1        5.096  -3.124   2.827  0.00  0.00    -0.100 A 
ATOM     22  C   LIG    1        4.827  -3.274   1.481  0.00  0.00    +0.030 A 
ATOM     23  C   LIG    1        4.353  -2.203   0.746  0.00  0.00    +0.020 A 
ATOM     24  C   LIG    1        4.147  -0.980   1.356  0.00  0.00    -0.070 A 
ATOM     25  C   LIG    1        4.419  -0.823   2.701  0.00  0.00    +0.010 A 
ATOM     26  C   LIG    1        4.890  -1.897   3.442  0.00  0.00    +0.100 A 
BRANCH  26  27
ATOM     27  O   LIG    1        5.154  -1.747   4.767  0.00  0.00    -0.490 OA
ATOM     28  H   LIG    1        6.059  -1.468   4.959  0.00  0.00    +0.390 HD
ENDBRANCH  26  27
ENDBRANCH  19  24
ENDBRANCH  17  19
ENDBRANCH  16  17
ENDBRANCH   1  16
TORSDOF 7
