REMARK  Name = ZINCpk00000eaoPQ.0
REMARK                            x       y       z     vdW  Elec       q    Type
REMARK                         _______ _______ _______ _____ _____    ______ ____
ROOT
ATOM      1  C   LIG    1        2.399   0.024  -0.020  0.00  0.00    +0.110 A 
ATOM      2  C   LIG    1        1.207  -0.682  -0.013  0.00  0.00    -0.020 A 
ATOM      3  C   LIG    1        0.002  -0.004   0.002  0.00  0.00    -0.100 A 
ATOM      4  C   LIG    1       -0.017   1.378   0.010  0.00  0.00    +0.060 A 
ATOM      5  C   LIG    1        1.170   2.089   0.002  0.00  0.00    -0.040 A 
ATOM      6  C   LIG    1        2.380   1.415  -0.013  0.00  0.00    +0.110 A 
ENDROOT
BRANCH   3   7
ATOM      7  C   LIG    1       -1.294  -0.774   0.010  0.00  0.00    +0.470 C 
ATOM      8  N   LIG    1       -1.090  -2.061  -0.653  0.00  0.00    -0.750 N 
ATOM      9  H   LIG    1       -0.199  -2.439  -0.722  0.00  0.00    +0.400 HD
ATOM     10  C   LIG    1       -2.152  -2.724  -1.170  0.00  0.00    +0.570 C 
ATOM     11  C   LIG    1       -3.471  -2.065  -1.082  0.00  0.00    -0.180 A 
ATOM     12  C   LIG    1       -4.653  -2.780  -1.247  0.00  0.00    +0.090 A 
ATOM     13  C   LIG    1       -5.864  -2.125  -1.147  0.00  0.00    +0.000 A 
ATOM     14  C   LIG    1       -5.904  -0.765  -0.885  0.00  0.00    +0.050 A 
ATOM     15  C   LIG    1       -4.737  -0.044  -0.722  0.00  0.00    +0.030 A 
ATOM     16  C   LIG    1       -3.510  -0.685  -0.821  0.00  0.00    +0.130 A 
ATOM     17  O   LIG    1       -2.025  -3.818  -1.685  0.00  0.00    -0.520 OA
ATOM     18  N   LIG    1       -2.324   0.015  -0.667  0.00  0.00    -0.490 N 
ATOM     19  C   LIG    1       -1.839   0.517  -1.960  0.00  0.00    +0.220 C 
ENDBRANCH   3   7
BRANCH   1  21
ATOM     20  C   LIG    1        3.528  -2.070  -0.041  0.00  0.00    +0.250 C 
ATOM     21  O   LIG    1        3.585  -0.642  -0.034  0.00  0.00    -0.300 OA
ENDBRANCH   1  21
BRANCH   6  22
ATOM     22  O   LIG    1        3.548   2.113  -0.020  0.00  0.00    -0.280 OA
BRANCH  22  23
ATOM     23  C   LIG    1        3.452   3.539  -0.012  0.00  0.00    +0.240 C 
BRANCH  23  24
ATOM     24  C   LIG    1        4.835   4.135  -0.022  0.00  0.00    +0.520 C 
ATOM     25  O   LIG    1        5.808   3.411  -0.034  0.00  0.00    -0.510 OA
ATOM     26  N   LIG    1        4.992   5.474  -0.016  0.00  0.00    -0.850 N 
ATOM     27  H   LIG    1        5.883   5.858  -0.022  0.00  0.00    +0.410 HD
ATOM     28  H   LIG    1        4.214   6.053  -0.006  0.00  0.00    +0.400 HD
ENDBRANCH  23  24
ENDBRANCH  22  23
ENDBRANCH   6  22
TORSDOF 5
