REMARK  Name = ZINCrg000000tcBc.0
REMARK                            x       y       z     vdW  Elec       q    Type
REMARK                         _______ _______ _______ _____ _____    ______ ____
ROOT
ATOM      1  O   LIG    1       -0.772  -2.575  -0.009  0.00  0.00    -0.500 OA
ATOM      2  C   LIG    1        0.344  -3.050  -0.017  0.00  0.00    +0.520 C 
ATOM      3  N   LIG    1        1.420  -2.240  -0.085  0.00  0.00    -0.660 N 
ATOM      4  H   LIG    1        2.308  -2.621  -0.173  0.00  0.00    +0.430 HD
ENDROOT
BRANCH   3   5
ATOM      5  C   LIG    1        1.257  -0.858  -0.027  0.00  0.00    +0.220 A 
ATOM      6  C   LIG    1        0.145  -0.313   0.600  0.00  0.00    +0.010 A 
ATOM      7  C   LIG    1       -0.016   1.057   0.655  0.00  0.00    +0.070 A 
ATOM      8  C   LIG    1        0.929   1.897   0.088  0.00  0.00    -0.020 A 
ATOM      9  C   LIG    1        2.040   1.373  -0.537  0.00  0.00    +0.070 A 
ATOM     10  C   LIG    1        2.215  -0.011  -0.602  0.00  0.00    -0.180 A 
BRANCH  10  11
ATOM     11  C   LIG    1        3.402  -0.578  -1.271  0.00  0.00    +0.570 C 
ATOM     12  N   LIG    1        4.372   0.238  -1.728  0.00  0.00    -0.690 N 
ATOM     13  H   LIG    1        4.291   1.199  -1.617  0.00  0.00    +0.400 HD
ATOM     14  O   LIG    1        3.504  -1.781  -1.410  0.00  0.00    -0.550 OA
BRANCH  12  15
ATOM     15  C   LIG    1        5.550  -0.325  -2.392  0.00  0.00    +0.220 C 
ATOM     16  C   LIG    1        6.917   0.248  -2.012  0.00  0.00    +0.010 C 
ATOM     17  C   LIG    1        6.303   0.573  -3.376  0.00  0.00    +0.020 C 
ENDBRANCH  12  15
ENDBRANCH  10  11
ENDBRANCH   3   5
BRANCH   2  18
ATOM     18  C   LIG    1        0.528  -4.544   0.047  0.00  0.00    +0.220 C 
BRANCH  18  19
ATOM     19  N   LIG    1       -0.786  -5.197   0.114  0.00  0.00    -0.520 NA
ATOM     20  C   LIG    1       -1.474  -4.868   1.369  0.00  0.00    +0.180 C 
ATOM     21  C   LIG    1       -2.905  -5.415   1.321  0.00  0.00    +0.290 C 
ATOM     22  N   LIG    1       -2.846  -6.849   1.002  0.00  0.00    -0.610 N 
ATOM     23  C   LIG    1       -2.059  -7.270  -0.167  0.00  0.00    +0.300 C 
ATOM     24  C   LIG    1       -3.497  -7.754   1.760  0.00  0.00    +0.550 C 
ATOM     25  O   LIG    1       -3.437  -8.933   1.482  0.00  0.00    -0.540 OA
ATOM     26  C   LIG    1       -0.661  -6.650  -0.061  0.00  0.00    +0.170 C 
BRANCH  24  27
ATOM     27  C   LIG    1       -4.298  -7.300   2.953  0.00  0.00    -0.070 C 
ATOM     28  C   LIG    1       -3.776  -7.678   4.340  0.00  0.00    +0.060 C 
ATOM     29  C   LIG    1       -5.014  -8.376   3.773  0.00  0.00    +0.060 C 
ENDBRANCH  24  27
ENDBRANCH  18  19
ENDBRANCH   2  18
TORSDOF 6
