REMARK  Name = ZINCkj000018RBZz.0
REMARK                            x       y       z     vdW  Elec       q    Type
REMARK                         _______ _______ _______ _____ _____    ______ ____
ROOT
ATOM      1  C   LIG    1       -1.087   4.875   0.038  0.00  0.00    +0.640 C 
ATOM      2  N   LIG    1       -0.298   5.964  -0.057  0.00  0.00    -0.630 N 
ATOM      3  C   LIG    1        1.137   6.217  -0.260  0.00  0.00    +0.320 C 
ATOM      4  C   LIG    1        0.751   7.567  -0.874  0.00  0.00    +0.010 C 
ATOM      5  C   LIG    1        0.463   7.513  -2.371  0.00  0.00    +0.100 C 
ATOM      6  C   LIG    1       -0.125   8.858  -2.816  0.00  0.00    +0.040 C 
ATOM      7  C   LIG    1        0.828   9.981  -2.398  0.00  0.00    +0.050 C 
ATOM      8  C   LIG    1        1.020   9.949  -0.880  0.00  0.00    +0.260 C 
ATOM      9  N   LIG    1        1.629   8.671  -0.487  0.00  0.00    -0.490 N 
ATOM     10  H   LIG    1        2.521   8.568  -0.947  0.00  0.00    +0.430 HD
ATOM     11  H   LIG    1        1.764   8.658   0.513  0.00  0.00    +0.430 HD
ATOM     12  C   LIG    1       -0.494   7.421   0.004  0.00  0.00    +0.330 C 
ATOM     13  O   LIG    1       -2.293   5.003   0.122  0.00  0.00    -0.510 OA
ENDROOT
BRANCH   1  17
ATOM     14  C   LIG    1        0.922   1.827   0.047  0.00  0.00    +0.030 A 
ATOM     15  N   LIG    1       -0.305   1.372   0.034  0.00  0.00    -0.260 NA
ATOM     16  N   LIG    1       -1.153   2.337   0.029  0.00  0.00    -0.250 N 
ATOM     17  C   LIG    1       -0.488   3.530   0.039  0.00  0.00    -0.050 A 
ATOM     18  C   LIG    1       -2.609   2.182   0.015  0.00  0.00    +0.380 C 
ATOM     19  C   LIG    1        0.861   3.222   0.057  0.00  0.00    -0.020 A 
BRANCH  14  20
ATOM     20  C   LIG    1        2.177   0.993   0.056  0.00  0.00    +0.120 C 
BRANCH  20  22
ATOM     21  C   LIG    1        3.408  -0.829   1.243  0.00  0.00    +0.020 C 
ATOM     22  C   LIG    1        2.133   0.018   1.234  0.00  0.00    +0.010 C 
ENDBRANCH  20  22
ENDBRANCH  14  20
ENDBRANCH   1  17
TORSDOF 3
