REMARK  Name = ZINCrH000004sGQA.0
REMARK                            x       y       z     vdW  Elec       q    Type
REMARK                         _______ _______ _______ _____ _____    ______ ____
ROOT
ATOM      1  C   LIG    1       -0.707   1.464   0.152  0.00  0.00    +0.170 C 
ATOM      2  C   LIG    1       -0.568  -0.036   0.119  0.00  0.00    +0.110 A 
ATOM      3  N   LIG    1       -0.825  -0.801  -0.903  0.00  0.00    -0.230 NA
ATOM      4  N   LIG    1       -0.579  -2.138  -0.567  0.00  0.00    -0.370 N 
ATOM      5  C   LIG    1       -0.158  -2.181   0.737  0.00  0.00    +0.330 A 
ATOM      6  N   LIG    1        0.200  -3.167   1.546  0.00  0.00    -0.480 NA
ATOM      7  C   LIG    1        0.575  -2.947   2.787  0.00  0.00    +0.230 A 
ATOM      8  C   LIG    1        0.618  -1.668   3.320  0.00  0.00    -0.030 A 
ATOM      9  C   LIG    1        0.256  -0.584   2.522  0.00  0.00    -0.000 A 
ATOM     10  C   LIG    1       -0.144  -0.847   1.193  0.00  0.00    -0.190 A 
ENDROOT
BRANCH   9  11
ATOM     11  C   LIG    1        0.287   0.797   3.050  0.00  0.00    +0.550 C 
ATOM     12  N   LIG    1       -0.089   1.041   4.321  0.00  0.00    -0.650 N 
ATOM     13  H   LIG    1       -0.380   0.311   4.889  0.00  0.00    +0.420 HD
ATOM     14  O   LIG    1        0.653   1.712   2.338  0.00  0.00    -0.440 OA
BRANCH  12  15
ATOM     15  C   LIG    1       -0.059   2.343   4.819  0.00  0.00    +0.340 A 
ATOM     16  N   LIG    1        0.340   3.334   4.040  0.00  0.00    -0.460 NA
ATOM     17  C   LIG    1        0.383   4.581   4.471  0.00  0.00    +0.300 A 
ATOM     18  C   LIG    1        0.012   4.899   5.762  0.00  0.00    -0.050 A 
ATOM     19  C   LIG    1       -0.413   3.891   6.616  0.00  0.00    +0.080 A 
ATOM     20  C   LIG    1       -0.454   2.590   6.134  0.00  0.00    +0.020 A 
BRANCH  20  21
ATOM     21  O   LIG    1       -0.869   1.571   6.933  0.00  0.00    -0.490 OA
ATOM     22  H   LIG    1       -0.158   1.153   7.438  0.00  0.00    +0.390 HD
ENDBRANCH  20  21
ENDBRANCH  12  15
ENDBRANCH   9  11
BRANCH   4  23
ATOM     23  C   LIG    1       -0.747  -3.291  -1.454  0.00  0.00    +0.190 C 
ATOM     24  C   LIG    1        0.592  -4.014  -1.611  0.00  0.00    +0.050 C 
ATOM     25  C   LIG    1       -1.233  -2.814  -2.825  0.00  0.00    +0.080 C 
ATOM     26  C   LIG    1       -1.777  -4.250  -0.854  0.00  0.00    +0.050 C 
ENDBRANCH   4  23
BRANCH   7  27
ATOM     27  C   LIG    1        0.969  -4.116   3.653  0.00  0.00    +0.020 C 
ATOM     28  C   LIG    1        1.750  -3.815   4.934  0.00  0.00    +0.040 C 
ATOM     29  C   LIG    1        2.457  -4.462   3.740  0.00  0.00    +0.040 C 
ENDBRANCH   7  27
TORSDOF 5
