REMARK  Name = ZINCrH000004kMA1.0
REMARK                            x       y       z     vdW  Elec       q    Type
REMARK                         _______ _______ _______ _____ _____    ______ ____
ROOT
ATOM      1  N   LIG    1       -1.979   4.633   0.047  0.00  0.00    -0.610 N 
ATOM      2  H   LIG    1       -2.915   4.376   0.054  0.00  0.00    +0.430 HD
ATOM      3  C   LIG    1       -1.639   5.937   0.052  0.00  0.00    +0.570 C 
ATOM      4  O   LIG    1       -0.467   6.259   0.043  0.00  0.00    -0.460 OA
ENDROOT
BRANCH   3   5
ATOM      5  C   LIG    1       -2.693   6.977   0.068  0.00  0.00    +0.090 A 
ATOM      6  C   LIG    1       -2.319   8.281   0.078  0.00  0.00    -0.020 A 
ATOM      7  C   LIG    1       -3.374   9.308   0.106  0.00  0.00    +0.420 A 
ATOM      8  C   LIG    1       -4.734   8.829   0.422  0.00  0.00    -0.220 A 
ATOM      9  C   LIG    1       -5.763   9.713   0.741  0.00  0.00    +0.120 A 
ATOM     10  C   LIG    1       -7.013   9.219   1.042  0.00  0.00    +0.000 A 
ATOM     11  C   LIG    1       -7.246   7.851   1.029  0.00  0.00    +0.090 A 
ATOM     12  C   LIG    1       -6.238   6.967   0.711  0.00  0.00    +0.010 A 
ATOM     13  C   LIG    1       -4.969   7.442   0.399  0.00  0.00    +0.150 A 
ATOM     14  O   LIG    1       -3.138  10.483  -0.112  0.00  0.00    -0.430 OA
ATOM     15  O   LIG    1       -3.976   6.591   0.078  0.00  0.00    -0.230 OA
ENDBRANCH   3   5
BRANCH   1  17
ATOM     16  C   LIG    1       -1.232   2.313   0.033  0.00  0.00    -0.180 A 
ATOM     17  C   LIG    1       -0.995   3.661   0.032  0.00  0.00    +0.040 A 
ATOM     18  S   LIG    1        0.678   3.978   0.018  0.00  0.00    +0.310 S 
ATOM     19  C   LIG    1        1.087   2.270   0.004  0.00  0.00    -0.240 A 
ATOM     20  C   LIG    1        2.499   1.716  -0.013  0.00  0.00    +0.120 C 
ATOM     21  C   LIG    1        2.454   0.241   0.395  0.00  0.00    +0.020 C 
ATOM     22  C   LIG    1        1.389  -0.475  -0.441  0.00  0.00    +0.020 C 
ATOM     23  C   LIG    1        0.002  -0.004   0.002  0.00  0.00    +0.100 C 
ATOM     24  C   LIG    1       -0.018   1.516   0.010  0.00  0.00    -0.050 A 
BRANCH  16  25
ATOM     25  C   LIG    1       -2.576   1.732   0.049  0.00  0.00    +0.530 C 
ATOM     26  O   LIG    1       -3.119   1.485   1.109  0.00  0.00    -0.490 OA
BRANCH  25  28
ATOM     27  C   LIG    1       -4.542   0.896  -1.020  0.00  0.00    +0.270 C 
ATOM     28  O   LIG    1       -3.212   1.471  -1.112  0.00  0.00    -0.350 OA
ENDBRANCH  25  28
ENDBRANCH  16  25
ENDBRANCH   1  17
TORSDOF 4
