REMARK  Name = ZINCqH0000051jSz.0
REMARK                            x       y       z     vdW  Elec       q    Type
REMARK                         _______ _______ _______ _____ _____    ______ ____
ROOT
ATOM      1  C   LIG    1        3.755  -1.020  -0.021  0.00  0.00    +0.290 C 
ENDROOT
BRANCH   1   2
ATOM      2  C   LIG    1        3.484  -2.526  -0.040  0.00  0.00    +0.000 C 
ATOM      3  C   LIG    1        2.817  -2.985   1.278  0.00  0.00    +0.080 C 
ATOM      4  C   LIG    1        3.427  -4.343   1.549  0.00  0.00    +0.520 C 
ATOM      5  N   LIG    1        4.535  -4.509   0.806  0.00  0.00    -0.560 N 
ATOM      6  O   LIG    1        2.981  -5.162   2.324  0.00  0.00    -0.500 OA
ATOM      7  C   LIG    1        4.806  -3.326  -0.019  0.00  0.00    +0.290 C 
BRANCH   5   8
ATOM      8  C   LIG    1        5.329  -5.662   0.818  0.00  0.00    +0.170 A 
ATOM      9  C   LIG    1        5.062  -6.681   1.723  0.00  0.00    +0.020 A 
ATOM     10  C   LIG    1        5.843  -7.819   1.730  0.00  0.00    +0.060 A 
ATOM     11  C   LIG    1        6.898  -7.941   0.842  0.00  0.00    -0.060 A 
ATOM     12  C   LIG    1        7.169  -6.925  -0.058  0.00  0.00    +0.060 A 
ATOM     13 CL   LIG    1        7.882  -9.371   0.857  0.00  0.00    -0.070 Cl
ATOM     14  C   LIG    1        6.388  -5.787  -0.072  0.00  0.00    -0.010 A 
ENDBRANCH   5   8
ENDBRANCH   1   2
BRANCH   1  17
ATOM     15  O   LIG    1        3.522   1.666   0.012  0.00  0.00    -0.520 OA
ATOM     16  C   LIG    1        2.473   1.052   0.003  0.00  0.00    +0.560 C 
ATOM     17  N   LIG    1        2.481  -0.296  -0.013  0.00  0.00    -0.720 N 
ATOM     18  H   LIG    1        1.644  -0.786  -0.020  0.00  0.00    +0.400 HD
BRANCH  16  19
ATOM     19  C   LIG    1        1.191   1.781   0.011  0.00  0.00    -0.070 A 
ATOM     20  C   LIG    1        1.182   3.206   0.028  0.00  0.00    -0.090 A 
ATOM     21  C   LIG    1        2.246   4.119   0.040  0.00  0.00    +0.330 A 
ATOM     22  N   LIG    1        1.984   5.382   0.056  0.00  0.00    -0.430 NA
ATOM     23  S   LIG    1        0.300   5.578   0.057  0.00  0.00    +0.200 S 
ATOM     24  C   LIG    1       -0.070   3.851   0.035  0.00  0.00    -0.140 A 
ATOM     25  C   LIG    1       -1.252   3.127   0.025  0.00  0.00    +0.090 A 
ATOM     26  C   LIG    1       -1.219   1.748   0.002  0.00  0.00    +0.060 A 
ATOM     27  C   LIG    1       -0.005   1.081   0.001  0.00  0.00    +0.060 A 
ENDBRANCH  16  19
ENDBRANCH   1  17
TORSDOF 4
