REMARK  Name = ZINCtj00000vxGlV.1
REMARK                            x       y       z     vdW  Elec       q    Type
REMARK                         _______ _______ _______ _____ _____    ______ ____
ROOT
ATOM      1  C   LIG    1       -8.085   2.437   0.869  0.00  0.00    +0.160 A 
ATOM      2  C   LIG    1       -8.596   2.746  -0.385  0.00  0.00    +0.060 A 
ATOM      3  C   LIG    1       -7.900   2.383  -1.521  0.00  0.00    +0.050 A 
ATOM      4  C   LIG    1       -6.695   1.713  -1.412  0.00  0.00    +0.020 A 
ATOM      5  C   LIG    1       -6.183   1.404  -0.165  0.00  0.00    -0.140 A 
ATOM      6  C   LIG    1       -6.877   1.759   0.975  0.00  0.00    +0.000 A 
ENDROOT
BRANCH   1   8
ATOM      7  C   LIG    1       -9.485   3.956   2.049  0.00  0.00    +0.530 C 
ATOM      8  N   LIG    1       -8.788   2.803   2.022  0.00  0.00    -0.680 N 
ATOM      9  H   LIG    1       -8.773   2.226   2.802  0.00  0.00    +0.420 HD
ATOM     10  O   LIG    1       -9.572   4.635   1.048  0.00  0.00    -0.510 OA
BRANCH   7  19
ATOM     11  C   LIG    1      -13.102   7.907   3.675  0.00  0.00    +0.360 C 
ATOM     12  N   LIG    1      -12.279   7.210   4.667  0.00  0.00    -0.360 N 
ATOM     13  N   LIG    1      -12.334   7.385   6.059  0.00  0.00    -0.270 NA
ATOM     14  C   LIG    1      -11.448   6.591   6.613  0.00  0.00    +0.200 A 
ATOM     15  C   LIG    1      -10.804   5.888   5.600  0.00  0.00    +0.040 A 
ATOM     16  N   LIG    1       -9.777   4.922   5.684  0.00  0.00    -0.740 N 
ATOM     17  H   LIG    1       -9.531   4.506   6.525  0.00  0.00    +0.410 HD
ATOM     18  C   LIG    1       -9.098   4.580   4.418  0.00  0.00    +0.290 C 
ATOM     19  C   LIG    1      -10.155   4.401   3.323  0.00  0.00    -0.010 C 
ATOM     20  C   LIG    1      -10.884   5.728   3.078  0.00  0.00    +0.160 C 
ATOM     21  C   LIG    1      -11.332   6.283   4.406  0.00  0.00    +0.010 A 
ENDBRANCH   7  19
ENDBRANCH   1   8
BRANCH   5  22
ATOM     22  C   LIG    1       -4.870   0.674  -0.050  0.00  0.00    +0.330 C 
BRANCH  22  23
ATOM     23  N   LIG    1       -3.772   1.648   0.012  0.00  0.00    -0.380 N 
ATOM     24  C   LIG    1       -3.888   2.436   1.245  0.00  0.00    +0.240 C 
ATOM     25  C   LIG    1       -2.793   3.504   1.277  0.00  0.00    +0.070 C 
ATOM     26  C   LIG    1       -1.422   2.824   1.231  0.00  0.00    +0.060 C 
ATOM     27  C   LIG    1       -1.340   1.946  -0.021  0.00  0.00    -0.010 C 
ATOM     28  C   LIG    1       -2.489   0.935  -0.005  0.00  0.00    +0.290 C 
ATOM     29  H   LIG    1       -3.825   2.263  -0.785  0.00  0.00    +0.420 HD
BRANCH  27  30
ATOM     30  C   LIG    1       -0.024   1.212  -0.036  0.00  0.00    +0.530 C 
ATOM     31  O   LIG    1       -0.006  -0.000  -0.038  0.00  0.00    -0.530 OA
ATOM     32  N   LIG    1        1.133   1.903  -0.053  0.00  0.00    -0.840 N 
ATOM     33  H   LIG    1        1.118   2.873  -0.052  0.00  0.00    +0.410 HD
ATOM     34  H   LIG    1        1.980   1.431  -0.067  0.00  0.00    +0.420 HD
ENDBRANCH  27  30
ENDBRANCH  22  23
ENDBRANCH   5  22
TORSDOF 5
