REMARK  Name = ZINCtj00000vxGlV.0
REMARK                            x       y       z     vdW  Elec       q    Type
REMARK                         _______ _______ _______ _____ _____    ______ ____
ROOT
ATOM      1  C   LIG    1       -0.125   0.631  -4.793  0.00  0.00    +0.160 A 
ATOM      2  C   LIG    1        0.901  -0.290  -4.631  0.00  0.00    +0.060 A 
ATOM      3  C   LIG    1        1.488  -0.869  -5.739  0.00  0.00    +0.050 A 
ATOM      4  C   LIG    1        1.063  -0.524  -7.009  0.00  0.00    +0.020 A 
ATOM      5  C   LIG    1        0.045   0.398  -7.173  0.00  0.00    -0.140 A 
ATOM      6  C   LIG    1       -0.550   0.976  -6.069  0.00  0.00    +0.000 A 
ENDROOT
BRANCH   1   8
ATOM      7  C   LIG    1       -0.856   0.509  -2.532  0.00  0.00    +0.530 C 
ATOM      8  N   LIG    1       -0.725   1.216  -3.672  0.00  0.00    -0.680 N 
ATOM      9  H   LIG    1       -1.047   2.130  -3.716  0.00  0.00    +0.410 HD
ATOM     10  O   LIG    1       -0.541  -0.662  -2.506  0.00  0.00    -0.500 OA
BRANCH   7  19
ATOM     11  C   LIG    1       -1.448  -0.703   2.901  0.00  0.00    +0.360 C 
ATOM     12  N   LIG    1       -2.212   0.396   2.305  0.00  0.00    -0.360 N 
ATOM     13  N   LIG    1       -3.080   1.265   2.985  0.00  0.00    -0.270 NA
ATOM     14  C   LIG    1       -3.579   2.116   2.119  0.00  0.00    +0.200 A 
ATOM     15  C   LIG    1       -3.049   1.819   0.867  0.00  0.00    +0.040 A 
ATOM     16  N   LIG    1       -3.277   2.442  -0.381  0.00  0.00    -0.740 N 
ATOM     17  H   LIG    1       -3.721   3.301  -0.451  0.00  0.00    +0.410 HD
ATOM     18  C   LIG    1       -2.801   1.710  -1.571  0.00  0.00    +0.290 C 
ATOM     19  C   LIG    1       -1.393   1.173  -1.291  0.00  0.00    -0.010 C 
ATOM     20  C   LIG    1       -1.440   0.153  -0.147  0.00  0.00    +0.160 C 
ATOM     21  C   LIG    1       -2.202   0.754   1.006  0.00  0.00    +0.010 A 
ENDBRANCH   7  19
ENDBRANCH   1   8
BRANCH   5  22
ATOM     22  C   LIG    1       -0.415   0.771  -8.559  0.00  0.00    +0.320 C 
BRANCH  22  23
ATOM     23  N   LIG    1        0.368   1.916  -9.043  0.00  0.00    -0.380 N 
ATOM     24  C   LIG    1        0.090   3.087  -8.203  0.00  0.00    +0.240 C 
ATOM     25  C   LIG    1        0.964   4.260  -8.652  0.00  0.00    +0.050 C 
ATOM     26  C   LIG    1        0.651   4.593 -10.114  0.00  0.00    +0.070 C 
ATOM     27  C   LIG    1        0.873   3.342 -10.970  0.00  0.00    +0.010 C 
ATOM     28  C   LIG    1        0.003   2.203 -10.435  0.00  0.00    +0.290 C 
ATOM     29  H   LIG    1        1.351   1.694  -8.993  0.00  0.00    +0.430 HD
BRANCH  27  30
ATOM     30  C   LIG    1        2.324   2.940 -10.906  0.00  0.00    +0.520 C 
ATOM     31  O   LIG    1        2.632   1.849 -10.475  0.00  0.00    -0.560 OA
ATOM     32  N   LIG    1        3.279   3.792 -11.328  0.00  0.00    -0.830 N 
ATOM     33  H   LIG    1        4.213   3.533 -11.287  0.00  0.00    +0.420 HD
ATOM     34  H   LIG    1        3.032   4.665 -11.673  0.00  0.00    +0.410 HD
ENDBRANCH  27  30
ENDBRANCH  22  23
ENDBRANCH   5  22
TORSDOF 5
