REMARK  Name = ZINCrD00000F5Ls7.0
REMARK                            x       y       z     vdW  Elec       q    Type
REMARK                         _______ _______ _______ _____ _____    ______ ____
ROOT
ATOM      1  C   LIG    1        2.342   4.263  -0.100  0.00  0.00    +0.470 C 
ATOM      2  O   LIG    1        1.304   3.654   0.089  0.00  0.00    -0.420 OA
ENDROOT
BRANCH   1   7
ATOM      3  C   LIG    1        1.624   7.825  -0.558  0.00  0.00    -0.220 A 
ATOM      4  C   LIG    1        3.001   7.790  -0.685  0.00  0.00    +0.130 A 
ATOM      5  N   LIG    1        3.409   6.521  -0.530  0.00  0.00    -0.530 N 
ATOM      6  H   LIG    1        4.330   6.218  -0.568  0.00  0.00    +0.420 HD
ATOM      7  C   LIG    1        2.313   5.715  -0.312  0.00  0.00    -0.090 A 
ATOM      8  C   LIG    1        3.892   8.977  -0.946  0.00  0.00    +0.160 C 
ATOM      9  C   LIG    1        1.196   6.499  -0.321  0.00  0.00    -0.010 A 
ATOM     10  C   LIG    1       -0.224   6.038  -0.118  0.00  0.00    +0.140 C 
BRANCH   3  11
ATOM     11  C   LIG    1        0.766   9.018  -0.653  0.00  0.00    +0.550 C 
ATOM     12  O   LIG    1        0.511   9.664   0.344  0.00  0.00    -0.500 OA
BRANCH  11  13
ATOM     13  O   LIG    1        0.263   9.393  -1.846  0.00  0.00    -0.350 OA
BRANCH  13  15
ATOM     14  C   LIG    1       -1.048  10.847  -3.294  0.00  0.00    +0.070 C 
ATOM     15  C   LIG    1       -0.574  10.579  -1.864  0.00  0.00    +0.200 C 
ENDBRANCH  13  15
ENDBRANCH  11  13
ENDBRANCH   3  11
ENDBRANCH   1   7
BRANCH   1  16
ATOM     16  C   LIG    1        3.625   3.542  -0.116  0.00  0.00    -0.160 C 
ATOM     17  C   LIG    1        3.672   2.209   0.232  0.00  0.00    +0.260 C 
BRANCH  17  18
ATOM     18  C   LIG    1        2.506   1.572   0.846  0.00  0.00    -0.090 A 
ATOM     19  C   LIG    1        2.052   0.331   0.376  0.00  0.00    +0.090 A 
ATOM     20  C   LIG    1        0.955  -0.265   0.956  0.00  0.00    +0.030 A 
ATOM     21  C   LIG    1        0.294   0.358   2.008  0.00  0.00    +0.060 A 
ATOM     22  O   LIG    1       -0.794  -0.020   2.736  0.00  0.00    -0.310 OA
ATOM     23  C   LIG    1       -1.259   1.178   3.386  0.00  0.00    +0.430 C 
ATOM     24  O   LIG    1       -0.072   1.984   3.509  0.00  0.00    -0.310 OA
ATOM     25  C   LIG    1        0.741   1.594   2.483  0.00  0.00    +0.030 A 
ATOM     26  C   LIG    1        1.838   2.199   1.908  0.00  0.00    +0.100 A 
ENDBRANCH  17  18
BRANCH  16  27
ATOM     27  C   LIG    1        4.826   4.227  -0.492  0.00  0.00    +0.260 C 
ATOM     28  N   LIG    1        5.778   4.769  -0.790  0.00  0.00    -0.400 NA
ENDBRANCH  16  27
ENDBRANCH   1  16
TORSDOF 7
