REMARK  Name = ZINCvU0000000Gr8.0
REMARK                            x       y       z     vdW  Elec       q    Type
REMARK                         _______ _______ _______ _____ _____    ______ ____
ROOT
ATOM      1  C   LIG    1       -2.230  -4.980  -1.619  0.00  0.00    +0.240 A 
ATOM      2  N   LIG    1       -2.889  -4.646  -0.533  0.00  0.00    -0.270 NA
ATOM      3  N   LIG    1       -2.770  -3.384  -0.319  0.00  0.00    -0.280 NA
ATOM      4  C   LIG    1       -2.035  -2.834  -1.259  0.00  0.00    +0.150 A 
ATOM      5  N   LIG    1       -1.663  -3.830  -2.117  0.00  0.00    -0.450 N 
ENDROOT
BRANCH   1   9
ATOM      6  C   LIG    1       -1.910  -8.878  -3.279  0.00  0.00    +0.150 A 
ATOM      7  C   LIG    1       -1.899  -7.767  -4.112  0.00  0.00    -0.010 A 
ATOM      8  C   LIG    1       -2.002  -6.501  -3.578  0.00  0.00    +0.060 A 
ATOM      9  C   LIG    1       -2.119  -6.336  -2.196  0.00  0.00    -0.060 A 
ATOM     10  C   LIG    1       -2.125  -7.455  -1.361  0.00  0.00    +0.110 A 
ATOM     11  C   LIG    1       -2.027  -8.718  -1.905  0.00  0.00    -0.070 A 
BRANCH   6  13
ATOM     12  C   LIG    1       -1.826 -11.223  -2.896  0.00  0.00    +0.240 C 
ATOM     13  O   LIG    1       -1.807 -10.125  -3.810  0.00  0.00    -0.310 OA
ENDBRANCH   6  13
ENDBRANCH   1   9
BRANCH   5  14
ATOM     14  C   LIG    1       -0.833  -3.700  -3.317  0.00  0.00    +0.240 C 
ATOM     15  C   LIG    1        0.492  -3.030  -2.951  0.00  0.00    +0.070 C 
ATOM     16  C   LIG    1       -1.567  -2.847  -4.354  0.00  0.00    +0.070 C 
ENDBRANCH   5  14
BRANCH   4  17
ATOM     17  S   LIG    1       -1.604  -1.130  -1.385  0.00  0.00    +0.040 S 
BRANCH  17  18
ATOM     18  C   LIG    1       -2.451  -0.482   0.077  0.00  0.00    +0.150 C 
BRANCH  18  19
ATOM     19  C   LIG    1       -2.216   1.003   0.177  0.00  0.00    +0.040 A 
ATOM     20  C   LIG    1       -3.195   1.887  -0.142  0.00  0.00    -0.050 A 
ATOM     21  C   LIG    1       -2.949   3.273  -0.040  0.00  0.00    +0.510 A 
ATOM     22  O   LIG    1       -1.764   3.751   0.369  0.00  0.00    -0.270 OA
ATOM     23  C   LIG    1       -0.748   2.925   0.702  0.00  0.00    +0.150 A 
ATOM     24  C   LIG    1        0.473   3.435   1.123  0.00  0.00    -0.100 A 
ATOM     25  C   LIG    1        1.496   2.573   1.459  0.00  0.00    -0.030 A 
ATOM     26  C   LIG    1        1.320   1.200   1.379  0.00  0.00    +0.010 A 
ATOM     27  C   LIG    1        0.127   0.676   0.966  0.00  0.00    +0.080 A 
ATOM     28  C   LIG    1        2.820   3.130   1.916  0.00  0.00    +0.100 C 
ATOM     29  C   LIG    1        0.679   4.925   1.214  0.00  0.00    +0.110 C 
ATOM     30  O   LIG    1       -3.836   4.056  -0.330  0.00  0.00    -0.460 OA
ATOM     31  C   LIG    1       -0.922   1.533   0.617  0.00  0.00    -0.150 A 
ENDBRANCH  18  19
ENDBRANCH  17  18
ENDBRANCH   4  17
TORSDOF 6
