REMARK  Name = ZINCrH000004k2T8.0
REMARK                            x       y       z     vdW  Elec       q    Type
REMARK                         _______ _______ _______ _____ _____    ______ ____
ROOT
ATOM      1  C   LIG    1       -4.447  -0.666   0.127  0.00  0.00    +0.140 A 
ATOM      2  C   LIG    1       -4.650   0.707   0.094  0.00  0.00    +0.050 A 
ATOM      3  C   LIG    1       -3.568   1.564   0.064  0.00  0.00    +0.040 A 
ATOM      4  C   LIG    1       -2.278   1.053   0.067  0.00  0.00    +0.080 A 
ATOM      5  C   LIG    1       -2.075  -0.319   0.096  0.00  0.00    +0.040 A 
ATOM      6  C   LIG    1       -3.156  -1.177   0.131  0.00  0.00    +0.040 A 
ENDROOT
BRANCH   1   8
ATOM      7  C   LIG    1       -5.729  -2.442   1.292  0.00  0.00    +0.320 C 
ATOM      8  N   LIG    1       -5.543  -1.535   0.157  0.00  0.00    -0.950 N 
BRANCH   8   9
ATOM      9  S   LIG    1       -6.631  -1.538  -1.091  0.00  0.00    +2.690 S 
ATOM     10  O   LIG    1       -6.609  -0.230  -1.646  0.00  0.00    -0.940 OA
ATOM     11  O   LIG    1       -7.813  -2.151  -0.593  0.00  0.00    -0.940 OA
BRANCH   9  12
ATOM     12  C   LIG    1       -5.998  -2.616  -2.333  0.00  0.00    -0.680 A 
ATOM     13  C   LIG    1       -5.178  -2.118  -3.328  0.00  0.00    +0.150 A 
ATOM     14  C   LIG    1       -4.676  -2.964  -4.299  0.00  0.00    +0.020 A 
ATOM     15  C   LIG    1       -5.005  -4.308  -4.282  0.00  0.00    +0.020 A 
ATOM     16  C   LIG    1       -5.830  -4.805  -3.289  0.00  0.00    +0.020 A 
ATOM     17 CL   LIG    1       -4.382  -5.370  -5.505  0.00  0.00    -0.050 Cl
ATOM     18  C   LIG    1       -6.326  -3.959  -2.315  0.00  0.00    +0.140 A 
ENDBRANCH   9  12
ENDBRANCH   8   9
ENDBRANCH   1   8
BRANCH   4  19
ATOM     19  O   LIG    1       -1.212   1.897   0.038  0.00  0.00    -0.280 OA
BRANCH  19  20
ATOM     20  C   LIG    1       -0.891   2.517   1.189  0.00  0.00    +0.510 C 
ATOM     21  O   LIG    1       -1.595   2.380   2.170  0.00  0.00    -0.470 OA
BRANCH  20  22
ATOM     22  C   LIG    1        0.324   3.360   1.262  0.00  0.00    -0.080 A 
ATOM     23  C   LIG    1        1.151   3.527   0.147  0.00  0.00    +0.030 A 
ATOM     24  C   LIG    1        2.272   4.327   0.258  0.00  0.00    +0.270 A 
ATOM     25  N   LIG    1        2.570   4.920   1.397  0.00  0.00    -0.460 NA
ATOM     26  C   LIG    1        1.821   4.785   2.473  0.00  0.00    +0.270 A 
ATOM     27  C   LIG    1        0.679   4.008   2.450  0.00  0.00    +0.040 A 
ENDBRANCH  20  22
ENDBRANCH  19  20
ENDBRANCH   4  19
TORSDOF 6
