REMARK  Name = ZINCpk00000ebHjp.0
REMARK                            x       y       z     vdW  Elec       q    Type
REMARK                         _______ _______ _______ _____ _____    ______ ____
ROOT
ATOM      1  O   LIG    1       -5.049   0.885   0.033  0.00  0.00    -0.480 OA
ATOM      2  C   LIG    1       -4.793   2.072   0.038  0.00  0.00    +0.520 C 
ENDROOT
BRANCH   2   3
ATOM      3  C   LIG    1       -5.888   3.064   0.049  0.00  0.00    -0.040 A 
ATOM      4  C   LIG    1       -6.421   3.555  -1.137  0.00  0.00    -0.100 A 
ATOM      5  C   LIG    1       -6.066   3.244  -2.574  0.00  0.00    +0.090 C 
ATOM      6  C   LIG    1       -6.674   4.398  -3.399  0.00  0.00    +0.050 C 
ATOM      7  C   LIG    1       -7.860   4.849  -2.514  0.00  0.00    +0.120 C 
ATOM      8  C   LIG    1       -7.459   4.486  -1.098  0.00  0.00    +0.160 A 
ATOM      9  N   LIG    1       -7.940   4.921   0.046  0.00  0.00    -0.450 NA
ATOM     10  C   LIG    1       -7.474   4.498   1.222  0.00  0.00    +0.140 A 
ATOM     11  C   LIG    1       -8.010   4.981   2.431  0.00  0.00    +0.060 A 
ATOM     12  C   LIG    1       -7.514   4.533   3.616  0.00  0.00    +0.040 A 
ATOM     13  C   LIG    1       -6.480   3.600   3.656  0.00  0.00    +0.030 A 
ATOM     14  C   LIG    1       -5.937   3.110   2.506  0.00  0.00    +0.020 A 
ATOM     15  C   LIG    1       -6.424   3.549   1.269  0.00  0.00    -0.070 A 
ENDBRANCH   2   3
BRANCH   2  16
ATOM     16  O   LIG    1       -3.510   2.485   0.033  0.00  0.00    -0.330 OA
BRANCH  16  17
ATOM     17  C   LIG    1       -2.487   1.456   0.023  0.00  0.00    +0.300 C 
BRANCH  17  18
ATOM     18  C   LIG    1       -1.125   2.101   0.019  0.00  0.00    +0.550 C 
ATOM     19  N   LIG    1       -0.016   1.335   0.009  0.00  0.00    -0.580 N 
ATOM     20  C   LIG    1        1.366   1.837  -0.001  0.00  0.00    +0.280 C 
ATOM     21  C   LIG    1        2.224   0.557  -0.016  0.00  0.00    +0.290 C 
ATOM     22  N   LIG    1        1.234  -0.530  -0.013  0.00  0.00    -0.720 N 
ATOM     23  H   LIG    1        1.440  -1.478  -0.020  0.00  0.00    +0.440 HD
ATOM     24  C   LIG    1        0.002  -0.004   0.002  0.00  0.00    +0.700 C 
ATOM     25  O   LIG    1       -1.008  -0.681   0.008  0.00  0.00    -0.550 OA
ATOM     26  O   LIG    1       -1.027   3.309   0.025  0.00  0.00    -0.470 OA
ENDBRANCH  17  18
ENDBRANCH  16  17
ENDBRANCH   2  16
TORSDOF 4
