REMARK  Name = ZINCrD000000CWy8.0
REMARK                            x       y       z     vdW  Elec       q    Type
REMARK                         _______ _______ _______ _____ _____    ______ ____
ROOT
ATOM      1  C   LIG    1       -2.271   6.648  -0.687  0.00  0.00    +0.210 A 
ATOM      2  N   LIG    1       -1.441   6.310  -1.639  0.00  0.00    -0.370 NA
ATOM      3  O   LIG    1       -1.019   5.190  -1.446  0.00  0.00    +0.090 OA
ATOM      4  C   LIG    1       -1.557   4.684  -0.332  0.00  0.00    +0.190 A 
ATOM      5  N   LIG    1       -2.352   5.600   0.164  0.00  0.00    -0.460 NA
ENDROOT
BRANCH   4   6
ATOM      6  C   LIG    1       -1.294   3.318   0.249  0.00  0.00    +0.150 C 
ATOM      7  C   LIG    1       -1.570   2.214  -0.791  0.00  0.00    +0.120 C 
ATOM      8  C   LIG    1       -0.529   1.150  -0.526  0.00  0.00    -0.150 A 
ATOM      9  C   LIG    1       -0.472  -0.179  -0.920  0.00  0.00    +0.080 A 
ATOM     10  C   LIG    1        0.615  -0.942  -0.523  0.00  0.00    -0.030 A 
ATOM     11  C   LIG    1        1.599  -0.355   0.249  0.00  0.00    +0.270 A 
ATOM     12  N   LIG    1        1.513   0.910   0.605  0.00  0.00    -0.480 NA
ATOM     13  C   LIG    1        0.492   1.671   0.246  0.00  0.00    +0.120 A 
ATOM     14  C   LIG    1        0.208   3.129   0.546  0.00  0.00    +0.130 C 
ENDBRANCH   4   6
BRANCH   1  18
ATOM     15  C   LIG    1       -4.333  10.352  -0.330  0.00  0.00    +0.160 A 
ATOM     16  C   LIG    1       -3.478  10.135  -1.403  0.00  0.00    +0.020 A 
ATOM     17  C   LIG    1       -2.808   8.935  -1.521  0.00  0.00    +0.070 A 
ATOM     18  C   LIG    1       -2.990   7.940  -0.562  0.00  0.00    -0.020 A 
ATOM     19  C   LIG    1       -3.853   8.158   0.511  0.00  0.00    +0.080 A 
ATOM     20  C   LIG    1       -4.516   9.361   0.627  0.00  0.00    +0.020 A 
BRANCH  15  27
ATOM     21  O   LIG    1       -3.325  12.368   0.943  0.00  0.00    -0.510 OA
ATOM     22  C   LIG    1       -4.433  12.556   0.481  0.00  0.00    +0.660 C 
ATOM     23  O   LIG    1       -5.017  13.747   0.684  0.00  0.00    -0.340 OA
ATOM     24  C   LIG    1       -6.148  14.088  -0.165  0.00  0.00    +0.260 C 
ATOM     25  C   LIG    1       -7.084  12.873  -0.222  0.00  0.00    +0.030 C 
ATOM     26  C   LIG    1       -6.319  11.703  -0.847  0.00  0.00    +0.280 C 
ATOM     27  N   LIG    1       -5.010  11.569  -0.212  0.00  0.00    -0.580 N 
ENDBRANCH  15  27
ENDBRANCH   1  18
TORSDOF 3
