REMARK  Name = ZINCkj000005dmHo.0
REMARK                            x       y       z     vdW  Elec       q    Type
REMARK                         _______ _______ _______ _____ _____    ______ ____
ROOT
ATOM      1  C   LIG    1        0.142   0.970   2.384  0.00  0.00    +0.230 C 
ATOM      2  C   LIG    1       -0.594   1.228   3.716  0.00  0.00    +0.040 C 
ATOM      3  C   LIG    1       -0.268  -0.042   4.545  0.00  0.00    +0.060 C 
ATOM      4  C   LIG    1       -0.258  -1.136   3.447  0.00  0.00    +0.270 C 
ATOM      5  N   LIG    1        0.340  -0.482   2.269  0.00  0.00    -0.600 N 
ATOM      6  C   LIG    1        0.965  -1.111   1.254  0.00  0.00    +0.630 C 
ATOM      7  O   LIG    1        1.505  -0.465   0.379  0.00  0.00    -0.510 OA
ENDROOT
BRANCH   6   8
ATOM      8  C   LIG    1        0.995  -2.594   1.207  0.00  0.00    -0.030 A 
ATOM      9  N   LIG    1        0.460  -3.419   2.074  0.00  0.00    -0.320 NA
ATOM     10  O   LIG    1        0.647  -4.573   1.768  0.00  0.00    +0.140 OA
ATOM     11  C   LIG    1        1.351  -4.679   0.627  0.00  0.00    +0.030 A 
ATOM     12  C   LIG    1        1.602  -3.402   0.210  0.00  0.00    +0.030 A 
BRANCH  11  13
ATOM     13  C   LIG    1        1.765  -5.929  -0.046  0.00  0.00    +0.010 A 
ATOM     14  C   LIG    1        2.495  -5.895  -1.239  0.00  0.00    +0.000 A 
ATOM     15  C   LIG    1        2.865  -7.085  -1.831  0.00  0.00    +0.280 A 
ATOM     16  N   LIG    1        2.531  -8.242  -1.292  0.00  0.00    -0.470 NA
ATOM     17  C   LIG    1        1.840  -8.319  -0.171  0.00  0.00    +0.280 A 
ATOM     18  C   LIG    1        1.433  -7.178   0.490  0.00  0.00    +0.000 A 
ENDBRANCH  11  13
ENDBRANCH   6   8
BRANCH   1  19
ATOM     19  C   LIG    1       -0.706   1.474   1.215  0.00  0.00    +0.250 C 
BRANCH  19  20
ATOM     20  N   LIG    1       -0.786   2.940   1.264  0.00  0.00    -0.630 N 
ATOM     21  H   LIG    1       -1.276   3.278   0.449  0.00  0.00    +0.440 HD
ATOM     22  H   LIG    1       -1.284   3.222   2.095  0.00  0.00    +0.430 HD
ATOM     23  H   LIG    1        0.145   3.328   1.282  0.00  0.00    +0.440 HD
ENDBRANCH  19  20
ENDBRANCH   1  19
TORSDOF 4
