REMARK  Name = ZINCrg000000rZc4.0
REMARK                            x       y       z     vdW  Elec       q    Type
REMARK                         _______ _______ _______ _____ _____    ______ ____
ROOT
ATOM      1  C   LIG    1       -2.818  -2.498  -5.915  0.00  0.00    +0.130 C 
ATOM      2  C   LIG    1       -2.998  -2.019  -4.497  0.00  0.00    +0.030 A 
ATOM      3  C   LIG    1       -2.014  -1.593  -3.685  0.00  0.00    -0.010 A 
ATOM      4  C   LIG    1       -2.654  -1.230  -2.416  0.00  0.00    -0.240 A 
ATOM      5  C   LIG    1       -3.990  -1.479  -2.578  0.00  0.00    +0.130 A 
ATOM      6  C   LIG    1       -5.059  -1.264  -1.538  0.00  0.00    +0.150 C 
ATOM      7  N   LIG    1       -4.186  -1.945  -3.828  0.00  0.00    -0.390 N 
ENDROOT
BRANCH   7   8
ATOM      8  C   LIG    1       -5.432  -2.308  -4.362  0.00  0.00    +0.110 A 
ATOM      9  C   LIG    1       -6.131  -3.380  -3.826  0.00  0.00    +0.040 A 
ATOM     10  C   LIG    1       -7.358  -3.738  -4.352  0.00  0.00    +0.050 A 
ATOM     11  C   LIG    1       -7.894  -3.027  -5.415  0.00  0.00    +0.060 A 
ATOM     12  O   LIG    1       -9.102  -3.397  -5.923  0.00  0.00    -0.300 OA
ATOM     13  C   LIG    1       -9.778  -2.436  -6.741  0.00  0.00    +0.230 C 
ATOM     14  C   LIG    1       -8.765  -1.855  -7.737  0.00  0.00    +0.230 C 
ATOM     15  O   LIG    1       -7.708  -1.239  -6.994  0.00  0.00    -0.300 OA
ATOM     16  C   LIG    1       -7.196  -1.951  -5.953  0.00  0.00    +0.070 A 
ATOM     17  C   LIG    1       -5.968  -1.591  -5.423  0.00  0.00    +0.040 A 
ENDBRANCH   7   8
BRANCH   4  18
ATOM     18  C   LIG    1       -1.992  -0.710  -1.208  0.00  0.00    +0.600 C 
ATOM     19  N   LIG    1       -0.657  -0.522  -1.199  0.00  0.00    -0.720 N 
ATOM     20  H   LIG    1       -0.133  -0.730  -1.989  0.00  0.00    +0.410 HD
ATOM     21  O   LIG    1       -2.649  -0.449  -0.218  0.00  0.00    -0.530 OA
BRANCH  19  22
ATOM     22  C   LIG    1        0.002  -0.004   0.002  0.00  0.00    +0.260 C 
ATOM     23  C   LIG    1        1.506  -0.345  -0.014  0.00  0.00    +0.110 C 
ATOM     24  C   LIG    1        2.177   1.011  -0.013  0.00  0.00    +0.530 C 
ATOM     25  N   LIG    1        1.240   1.966   0.001  0.00  0.00    -0.680 N 
ATOM     26  H   LIG    1        1.454   2.913   0.004  0.00  0.00    +0.420 HD
ATOM     27  O   LIG    1        3.374   1.202  -0.024  0.00  0.00    -0.480 OA
ATOM     28  C   LIG    1       -0.018   1.509   0.010  0.00  0.00    +0.510 C 
ATOM     29  O   LIG    1       -1.016   2.198   0.019  0.00  0.00    -0.450 OA
ENDBRANCH  19  22
ENDBRANCH   4  18
TORSDOF 3
