REMARK  Name = ZINCHm0000000sQy.0
REMARK                            x       y       z     vdW  Elec       q    Type
REMARK                         _______ _______ _______ _____ _____    ______ ____
ROOT
ATOM      1  C   LIG    1        5.128   0.840   0.778  0.00  0.00    +0.320 C 
ATOM      2  O   LIG    1        4.057   0.131   1.404  0.00  0.00    -0.370 OA
ATOM      3  C   LIG    1        2.818   0.843   1.423  0.00  0.00    +0.180 C 
ATOM      4  C   LIG    1        2.367   1.117  -0.015  0.00  0.00    +0.170 C 
ATOM      5  C   LIG    1        3.460   1.905  -0.743  0.00  0.00    +0.210 C 
ATOM      6  C   LIG    1        4.770   1.114  -0.685  0.00  0.00    +0.270 C 
ENDROOT
BRANCH   6   7
ATOM      7  N   LIG    1        5.840   1.891  -1.315  0.00  0.00    -0.730 N 
ATOM      8  H   LIG    1        5.777   2.858  -1.357  0.00  0.00    +0.400 HD
ATOM      9  C   LIG    1        6.912   1.263  -1.837  0.00  0.00    +0.500 C 
ATOM     10  O   LIG    1        6.991   0.054  -1.784  0.00  0.00    -0.480 OA
ATOM     11  C   LIG    1        8.013   2.063  -2.485  0.00  0.00    +0.080 C 
ENDBRANCH   6   7
BRANCH   1  12
ATOM     12  O   LIG    1        6.320   0.054   0.838  0.00  0.00    -0.240 OA
BRANCH  12  18
ATOM     13  C   LIG    1        8.001  -0.962   2.205  0.00  0.00    -0.190 A 
ATOM     14  C   LIG    1        8.524  -1.202   3.481  0.00  0.00    +0.100 A 
ATOM     15  C   LIG    1        7.888  -0.691   4.591  0.00  0.00    -0.040 A 
ATOM     16  C   LIG    1        6.734   0.064   4.451  0.00  0.00    +0.080 A 
ATOM     17  C   LIG    1        6.209   0.313   3.198  0.00  0.00    -0.070 A 
ATOM     18  C   LIG    1        6.834  -0.191   2.068  0.00  0.00    +0.180 A 
BRANCH  13  19
ATOM     19  C   LIG    1        8.670  -1.506   1.018  0.00  0.00    +0.390 C 
ATOM     20  O   LIG    1        8.216  -1.292  -0.086  0.00  0.00    -0.380 OA
BRANCH  19  24
ATOM     21  C   LIG    1        9.757  -3.806   1.549  0.00  0.00    +0.150 C 
ATOM     22  N   LIG    1       10.157  -3.400   0.188  0.00  0.00    -0.580 NA
ATOM     23  H   LIG    1        9.384  -3.476  -0.456  0.00  0.00    +0.350 HD
ATOM     24  C   LIG    1        9.921  -2.333   1.170  0.00  0.00    +0.080 C 
BRANCH  21  28
ATOM     25  C   LIG    1       12.741  -5.549   4.063  0.00  0.00    +0.130 A 
ATOM     26  C   LIG    1       11.534  -5.133   4.604  0.00  0.00    -0.020 A 
ATOM     27  C   LIG    1       10.570  -4.569   3.789  0.00  0.00    +0.060 A 
ATOM     28  C   LIG    1       10.809  -4.421   2.436  0.00  0.00    -0.090 A 
ATOM     29  C   LIG    1       12.010  -4.840   1.893  0.00  0.00    +0.080 A 
ATOM     30  C   LIG    1       12.978  -5.399   2.704  0.00  0.00    -0.080 A 
BRANCH  25  32
ATOM     31  C   LIG    1       14.909  -6.509   4.237  0.00  0.00    +0.250 C 
ATOM     32  O   LIG    1       13.690  -6.104   4.862  0.00  0.00    -0.320 OA
ENDBRANCH  25  32
ENDBRANCH  21  28
ENDBRANCH  19  24
ENDBRANCH  13  19
ENDBRANCH  12  18
ENDBRANCH   1  12
BRANCH   5  33
ATOM     33  O   LIG    1        3.073   2.107  -2.127  0.00  0.00    -0.340 OA
BRANCH  33  34
ATOM     34  C   LIG    1        2.371   3.216  -2.409  0.00  0.00    +0.460 C 
ATOM     35  O   LIG    1        2.089   3.993  -1.527  0.00  0.00    -0.490 OA
ATOM     36  C   LIG    1        1.934   3.493  -3.824  0.00  0.00    +0.160 C 
ENDBRANCH  33  34
ENDBRANCH   5  33
BRANCH   4  37
ATOM     37  O   LIG    1        1.139   1.891   0.001  0.00  0.00    -0.330 OA
BRANCH  37  38
ATOM     38  C   LIG    1       -0.014   1.204   0.009  0.00  0.00    +0.450 C 
ATOM     39  O   LIG    1        0.002  -0.004   0.002  0.00  0.00    -0.500 OA
ATOM     40  C   LIG    1       -1.329   1.940   0.019  0.00  0.00    +0.160 C 
ENDBRANCH  37  38
ENDBRANCH   4  37
BRANCH   3  41
ATOM     41  C   LIG    1        1.758   0.004   2.139  0.00  0.00    +0.260 C 
BRANCH  41  42
ATOM     42  O   LIG    1        2.128  -0.156   3.534  0.00  0.00    -0.350 OA
BRANCH  42  43
ATOM     43  C   LIG    1        1.297  -0.872   4.307  0.00  0.00    +0.460 C 
ATOM     44  O   LIG    1        0.293  -1.350   3.833  0.00  0.00    -0.510 OA
ATOM     45  C   LIG    1        1.615  -1.081   5.765  0.00  0.00    +0.160 C 
ENDBRANCH  42  43
ENDBRANCH  41  42
ENDBRANCH   3  41
TORSDOF 14
