REMARK  Name = ZINCrg000000s13a.0
REMARK                            x       y       z     vdW  Elec       q    Type
REMARK                         _______ _______ _______ _____ _____    ______ ____
ROOT
ATOM      1  N   LIG    1        1.710   3.655  -1.381  0.00  0.00    -0.530 NA
ATOM      2  C   LIG    1        2.824   3.002  -2.079  0.00  0.00    +0.170 C 
ATOM      3  C   LIG    1        2.793   3.391  -3.561  0.00  0.00    +0.280 C 
ATOM      4  N   LIG    1        2.773   4.858  -3.658  0.00  0.00    -0.610 N 
ATOM      5  C   LIG    1        1.768   5.594  -2.876  0.00  0.00    +0.300 C 
ATOM      6  C   LIG    1        3.652   5.512  -4.443  0.00  0.00    +0.510 C 
ATOM      7  O   LIG    1        3.621   6.722  -4.511  0.00  0.00    -0.530 OA
ATOM      8  C   LIG    1        1.839   5.118  -1.421  0.00  0.00    +0.190 C 
ENDROOT
BRANCH   1   9
ATOM      9  C   LIG    1        1.601   3.174   0.003  0.00  0.00    +0.300 C 
BRANCH   9  14
ATOM     10  C   LIG    1        1.633  -1.916  -0.023  0.00  0.00    +0.160 C 
ATOM     11  C   LIG    1        1.219  -0.467  -0.012  0.00  0.00    +0.020 A 
ATOM     12  N   LIG    1        0.002  -0.004   0.002  0.00  0.00    -0.360 NA
ATOM     13  O   LIG    1       -0.014   1.205   0.009  0.00  0.00    +0.110 OA
ATOM     14  C   LIG    1        1.225   1.715  -0.000  0.00  0.00    -0.020 A 
ATOM     15  C   LIG    1        2.074   0.659  -0.014  0.00  0.00    -0.060 A 
ENDBRANCH   9  14
ENDBRANCH   1   9
BRANCH   6  16
ATOM     16  C   LIG    1        4.673   4.738  -5.236  0.00  0.00    +0.370 C 
BRANCH  16  17
ATOM     17  N   LIG    1        5.505   5.670  -6.003  0.00  0.00    -0.420 N 
ATOM     18  N   LIG    1        5.110   6.030  -7.291  0.00  0.00    -0.230 NA
ATOM     19  C   LIG    1        5.794   6.850  -8.032  0.00  0.00    +0.320 A 
ATOM     20  C   LIG    1        7.033   7.438  -7.521  0.00  0.00    -0.070 A 
ATOM     21  C   LIG    1        7.797   8.323  -8.283  0.00  0.00    +0.050 A 
ATOM     22  C   LIG    1        8.956   8.848  -7.756  0.00  0.00    +0.050 A 
ATOM     23  C   LIG    1        9.372   8.507  -6.476  0.00  0.00    +0.030 A 
ATOM     24  C   LIG    1        8.635   7.635  -5.705  0.00  0.00    +0.080 A 
ATOM     25  C   LIG    1        7.458   7.091  -6.218  0.00  0.00    -0.120 A 
ATOM     26  C   LIG    1        6.629   6.162  -5.441  0.00  0.00    +0.540 A 
ATOM     27  O   LIG    1        6.951   5.838  -4.312  0.00  0.00    -0.520 OA
ENDBRANCH  16  17
ENDBRANCH   6  16
TORSDOF 4
