REMARK  Name = ZINCrH000004jduw.0
REMARK                            x       y       z     vdW  Elec       q    Type
REMARK                         _______ _______ _______ _____ _____    ______ ____
ROOT
ATOM      1  N   LIG    1        2.339   3.898   0.019  0.00  0.00    -0.570 N 
ATOM      2  C   LIG    1        3.047   4.314  -1.197  0.00  0.00    +0.310 C 
ATOM      3  C   LIG    1        4.036   5.413  -0.741  0.00  0.00    +0.020 C 
ATOM      4  C   LIG    1        4.252   5.042   0.745  0.00  0.00    +0.080 C 
ATOM      5  C   LIG    1        2.999   4.285   1.125  0.00  0.00    +0.520 C 
ATOM      6  O   LIG    1        2.641   4.061   2.262  0.00  0.00    -0.510 OA
ENDROOT
BRANCH   1  12
ATOM      7  C   LIG    1        1.150   1.795   0.029  0.00  0.00    -0.070 A 
ATOM      8  C   LIG    1       -0.039   1.094   0.037  0.00  0.00    +0.020 A 
ATOM      9  C   LIG    1       -1.244   1.773   0.039  0.00  0.00    +0.020 A 
ATOM     10  C   LIG    1       -1.262   3.155   0.043  0.00  0.00    +0.010 A 
ATOM     11  C   LIG    1       -0.075   3.863   0.035  0.00  0.00    +0.030 A 
ATOM     12  C   LIG    1        1.136   3.184   0.028  0.00  0.00    +0.140 A 
BRANCH   7  14
ATOM     13  C   LIG    1        2.978   0.915   1.456  0.00  0.00    +0.030 C 
ATOM     14  C   LIG    1        2.463   1.055   0.021  0.00  0.00    +0.060 C 
ENDBRANCH   7  14
ENDBRANCH   1  12
BRANCH   3  15
ATOM     15  C   LIG    1        3.424   6.784  -0.871  0.00  0.00    +0.520 C 
ATOM     16  N   LIG    1        4.084   7.863  -0.406  0.00  0.00    -0.650 N 
ATOM     17  H   LIG    1        4.922   7.751   0.069  0.00  0.00    +0.420 HD
ATOM     18  O   LIG    1        2.337   6.916  -1.393  0.00  0.00    -0.510 OA
BRANCH  16  19
ATOM     19  C   LIG    1        3.562   9.143  -0.610  0.00  0.00    +0.160 A 
ATOM     20  C   LIG    1        2.200   9.346  -0.596  0.00  0.00    +0.040 A 
ATOM     21  C   LIG    1        1.666  10.616  -0.798  0.00  0.00    +0.040 A 
ATOM     22  C   LIG    1        2.475  11.690  -1.014  0.00  0.00    +0.020 A 
ATOM     23  C   LIG    1        3.869  11.523  -1.035  0.00  0.00    -0.090 A 
ATOM     24  C   LIG    1        4.733  12.613  -1.255  0.00  0.00    +0.080 A 
ATOM     25  C   LIG    1        6.079  12.381  -1.245  0.00  0.00    -0.030 A 
ATOM     26  C   LIG    1        6.560  11.090  -1.038  0.00  0.00    +0.290 A 
ATOM     27  N   LIG    1        5.752  10.077  -0.839  0.00  0.00    -0.480 NA
ATOM     28  C   LIG    1        4.427  10.238  -0.826  0.00  0.00    +0.110 A 
ENDBRANCH  16  19
ENDBRANCH   3  15
TORSDOF 4
