REMARK  Name = ZINCqH0000033K1i.0
REMARK                            x       y       z     vdW  Elec       q    Type
REMARK                         _______ _______ _______ _____ _____    ______ ____
ROOT
ATOM      1  C   LIG    1        1.108   1.181  -0.312  0.00  0.00    +0.520 C 
ATOM      2  N   LIG    1       -0.125   0.652  -0.188  0.00  0.00    -0.720 N 
ATOM      3  H   LIG    1       -0.242  -0.311  -0.182  0.00  0.00    +0.400 HD
ATOM      4  O   LIG    1        1.254   2.385  -0.320  0.00  0.00    -0.510 OA
ENDROOT
BRANCH   1   5
ATOM      5  C   LIG    1        2.307   0.276  -0.440  0.00  0.00    +0.220 C 
BRANCH   5   6
ATOM      6  O   LIG    1        3.491   1.067  -0.557  0.00  0.00    -0.290 OA
BRANCH   6  10
ATOM      7  C   LIG    1        7.068  -0.958  -0.933  0.00  0.00    +0.100 A 
ATOM      8  C   LIG    1        7.054   0.429  -0.925  0.00  0.00    +0.030 A 
ATOM      9  C   LIG    1        5.857   1.107  -0.799  0.00  0.00    +0.040 A 
ATOM     10  C   LIG    1        4.669   0.400  -0.681  0.00  0.00    +0.090 A 
ATOM     11  C   LIG    1        4.684  -0.987  -0.684  0.00  0.00    -0.040 A 
ATOM     12  C   LIG    1        5.881  -1.664  -0.815  0.00  0.00    -0.040 A 
BRANCH   7  13
ATOM     13  O   LIG    1        8.247  -1.625  -1.057  0.00  0.00    -0.320 OA
BRANCH  13  15
ATOM     14  C   LIG    1        9.600  -3.622  -1.205  0.00  0.00    +0.070 C 
ATOM     15  C   LIG    1        8.187  -3.052  -1.058  0.00  0.00    +0.170 C 
ENDBRANCH  13  15
ENDBRANCH   7  13
ENDBRANCH   6  10
ENDBRANCH   5   6
ENDBRANCH   1   5
BRANCH   2  16
ATOM     16  C   LIG    1       -1.291   1.532  -0.070  0.00  0.00    +0.260 C 
BRANCH  16  17
ATOM     17  C   LIG    1       -2.559   0.684   0.050  0.00  0.00    +0.240 C 
BRANCH  17  18
ATOM     18  C   LIG    1       -3.761   1.598   0.297  0.00  0.00    -0.020 C 
ATOM     19  C   LIG    1       -5.015   0.746   0.506  0.00  0.00    +0.030 C 
ATOM     20  C   LIG    1       -3.963   2.515  -0.911  0.00  0.00    +0.030 C 
ENDBRANCH  17  18
BRANCH  17  21
ATOM     21  N   LIG    1       -2.418  -0.251   1.168  0.00  0.00    -0.740 N 
ATOM     22  H   LIG    1       -2.205   0.081   2.054  0.00  0.00    +0.400 HD
BRANCH  21  23
ATOM     23  C   LIG    1       -2.589  -1.621   0.958  0.00  0.00    +0.220 A 
ATOM     24  C   LIG    1       -2.752  -2.113  -0.331  0.00  0.00    -0.080 A 
ATOM     25  C   LIG    1       -2.916  -3.469  -0.535  0.00  0.00    +0.050 A 
ATOM     26  C   LIG    1       -2.928  -4.336   0.543  0.00  0.00    -0.060 A 
ATOM     27  C   LIG    1       -2.771  -3.849   1.827  0.00  0.00    +0.050 A 
ATOM     28  C   LIG    1       -2.601  -2.495   2.038  0.00  0.00    -0.070 A 
ENDBRANCH  21  23
ENDBRANCH  17  21
ENDBRANCH  16  17
ENDBRANCH   2  16
TORSDOF 10
