REMARK  Name = ZINC650000002oJj.0
REMARK                            x       y       z     vdW  Elec       q    Type
REMARK                         _______ _______ _______ _____ _____    ______ ____
ROOT
ATOM      1  C   LIG    1        0.041   0.972   2.456  0.00  0.00    +0.200 C 
ENDROOT
BRANCH   1   3
ATOM      2  C   LIG    1        0.132   1.065   4.951  0.00  0.00    +0.040 C 
ATOM      3  C   LIG    1       -0.675   1.465   3.715  0.00  0.00    +0.010 C 
ENDBRANCH   1   3
BRANCH   1   4
ATOM      4  O   LIG    1        0.060  -0.457   2.448  0.00  0.00    -0.550 OA
ATOM      5  H   LIG    1       -0.818  -0.862   2.454  0.00  0.00    +0.390 HD
ENDBRANCH   1   4
BRANCH   1   6
ATOM      6  C   LIG    1       -0.699   1.479   1.216  0.00  0.00    +0.230 C 
BRANCH   6   7
ATOM      7  N   LIG    1       -0.012   1.005   0.008  0.00  0.00    -0.630 N 
ATOM      8  H   LIG    1       -0.500   1.339  -0.810  0.00  0.00    +0.440 HD
ATOM      9  H   LIG    1        0.935   1.354   0.000  0.00  0.00    +0.440 HD
ATOM     10  H   LIG    1        0.002  -0.004   0.002  0.00  0.00    +0.440 HD
ENDBRANCH   6   7
ENDBRANCH   1   6
TORSDOF 4
