REMARK  Name = ZINCqH0000007izo.0
REMARK                            x       y       z     vdW  Elec       q    Type
REMARK                         _______ _______ _______ _____ _____    ______ ____
ROOT
ATOM      1  N   LIG    1        1.192   4.915   4.225  0.00  0.00    -0.660 N 
ATOM      2  H   LIG    1        1.559   4.217   4.789  0.00  0.00    +0.410 HD
ATOM      3  C   LIG    1        1.510   4.960   2.916  0.00  0.00    +0.520 C 
ATOM      4  O   LIG    1        0.974   5.769   2.189  0.00  0.00    -0.510 OA
ENDROOT
BRANCH   1   8
ATOM      5  C   LIG    1       -1.376   7.779   5.848  0.00  0.00    +0.150 A 
ATOM      6  C   LIG    1       -0.646   8.067   4.704  0.00  0.00    -0.090 A 
ATOM      7  C   LIG    1        0.207   7.120   4.169  0.00  0.00    +0.110 A 
ATOM      8  C   LIG    1        0.329   5.877   4.770  0.00  0.00    +0.080 A 
ATOM      9  C   LIG    1       -0.403   5.586   5.920  0.00  0.00    +0.140 A 
ATOM     10  C   LIG    1       -1.254   6.538   6.456  0.00  0.00    -0.080 A 
BRANCH   5  12
ATOM     11  C   LIG    1       -2.288   9.970   5.697  0.00  0.00    +0.250 C 
ATOM     12  O   LIG    1       -2.211   8.714   6.374  0.00  0.00    -0.320 OA
ENDBRANCH   5  12
BRANCH   9  13
ATOM     13  O   LIG    1       -0.281   4.369   6.514  0.00  0.00    -0.320 OA
ATOM     14  C   LIG    1       -1.062   4.141   7.689  0.00  0.00    +0.250 C 
ENDBRANCH   9  13
ENDBRANCH   1   8
BRANCH   3  15
ATOM     15  C   LIG    1        2.533   4.005   2.356  0.00  0.00    +0.100 C 
BRANCH  15  16
ATOM     16  C   LIG    1        2.707   4.265   0.858  0.00  0.00    +0.070 C 
ATOM     17  S   LIG    1        1.168   3.851  -0.017  0.00  0.00    -0.030 S 
ATOM     18  C   LIG    1        1.206   2.087   0.003  0.00  0.00    -0.140 A 
ATOM     19  C   LIG    1        0.021   1.369   0.007  0.00  0.00    +0.110 A 
ATOM     20  C   LIG    1        0.051  -0.014  -0.000  0.00  0.00    +0.030 A 
ATOM     21  C   LIG    1        1.265  -0.677  -0.015  0.00  0.00    -0.000 A 
ATOM     22  C   LIG    1        2.450   0.035  -0.017  0.00  0.00    +0.010 A 
ATOM     23 CL   LIG    1        1.300  -2.413  -0.032  0.00  0.00    -0.050 Cl
ATOM     24  C   LIG    1        2.435   1.425   0.001  0.00  0.00    +0.170 A 
ATOM     25  N   LIG    1        3.641   2.119  -0.001  0.00  0.00    -0.650 N 
ATOM     26  H   LIG    1        4.432   1.622  -0.262  0.00  0.00    +0.420 HD
ATOM     27  C   LIG    1        3.814   3.397   0.320  0.00  0.00    +0.530 C 
ATOM     28  O   LIG    1        4.914   3.887   0.173  0.00  0.00    -0.500 OA
ENDBRANCH  15  16
ENDBRANCH   3  15
TORSDOF 5
