REMARK  Name = ZINCrg000000oHON.0
REMARK                            x       y       z     vdW  Elec       q    Type
REMARK                         _______ _______ _______ _____ _____    ______ ____
ROOT
ATOM      1  C   LIG    1        1.455   1.625   2.821  0.00  0.00    +0.300 C 
ATOM      2  N   LIG    1        0.084   1.207   2.519  0.00  0.00    -0.580 N 
ATOM      3  C   LIG    1       -0.657   0.595   3.464  0.00  0.00    +0.500 C 
ATOM      4  O   LIG    1       -1.757   0.163   3.187  0.00  0.00    -0.520 OA
ENDROOT
BRANCH   2   5
ATOM      5  C   LIG    1       -0.482   1.455   1.191  0.00  0.00    +0.290 C 
ATOM      6  C   LIG    1        0.364   0.739   0.141  0.00  0.00    +0.010 C 
ATOM      7  C   LIG    1       -0.109   1.182  -1.248  0.00  0.00    +0.030 C 
ATOM      8  C   LIG    1        0.295   2.641  -1.451  0.00  0.00    +0.080 C 
ATOM      9  C   LIG    1       -0.156   3.483  -0.286  0.00  0.00    -0.060 A 
ATOM     10  C   LIG    1       -0.213   4.859  -0.466  0.00  0.00    +0.000 A 
ATOM     11  C   LIG    1       -0.613   5.684   0.565  0.00  0.00    +0.010 A 
ATOM     12  C   LIG    1       -0.960   5.138   1.786  0.00  0.00    +0.000 A 
ATOM     13  C   LIG    1       -0.906   3.772   1.966  0.00  0.00    +0.010 A 
ATOM     14  C   LIG    1       -0.506   2.939   0.929  0.00  0.00    -0.100 A 
ENDBRANCH   2   5
BRANCH   3  15
ATOM     15  C   LIG    1       -0.125   0.449   4.853  0.00  0.00    +0.510 C 
ATOM     16  N   LIG    1       -0.812  -0.267   5.766  0.00  0.00    -0.700 N 
ATOM     17  H   LIG    1       -1.651  -0.687   5.521  0.00  0.00    +0.410 HD
ATOM     18  O   LIG    1        0.924   0.975   5.159  0.00  0.00    -0.510 OA
BRANCH  16  19
ATOM     19  C   LIG    1       -0.290  -0.410   7.127  0.00  0.00    +0.250 C 
ATOM     20  C   LIG    1        0.701  -1.575   7.173  0.00  0.00    +0.000 C 
ATOM     21  C   LIG    1        1.271  -1.700   8.590  0.00  0.00    +0.300 C 
ATOM     22  N   LIG    1        0.155  -1.819   9.539  0.00  0.00    -1.000 NA
ATOM     23  C   LIG    1       -0.902  -0.799   9.517  0.00  0.00    +0.310 C 
ATOM     24  C   LIG    1       -1.447  -0.684   8.090  0.00  0.00    +0.020 C 
BRANCH  22  25
ATOM     25  S   LIG    1        0.092  -3.078  10.613  0.00  0.00    +2.610 S 
ATOM     26  O   LIG    1       -0.676  -2.574  11.698  0.00  0.00    -0.950 OA
ATOM     27  O   LIG    1        1.450  -3.456  10.790  0.00  0.00    -0.950 OA
ATOM     28  C   LIG    1       -0.821  -4.376   9.735  0.00  0.00    -0.280 C 
ENDBRANCH  22  25
ENDBRANCH  16  19
ENDBRANCH   3  15
TORSDOF 4
