REMARK  Name = ZINCvU0000000GVt.0
REMARK                            x       y       z     vdW  Elec       q    Type
REMARK                         _______ _______ _______ _____ _____    ______ ____
ROOT
ATOM      1  C   LIG    1       -5.925   2.300  -0.156  0.00  0.00    +0.200 A 
ATOM      2  C   LIG    1       -5.657   0.938  -0.161  0.00  0.00    +0.010 A 
ATOM      3  C   LIG    1       -6.699   0.031  -0.164  0.00  0.00    +0.140 A 
ATOM      4  C   LIG    1       -8.007   0.479  -0.172  0.00  0.00    -0.690 A 
ATOM      5  C   LIG    1       -8.277   1.835  -0.172  0.00  0.00    +0.140 A 
ATOM      6  C   LIG    1       -7.240   2.747  -0.164  0.00  0.00    -0.030 A 
ENDROOT
BRANCH   1   8
ATOM      7  C   LIG    1       -3.740   2.946   0.531  0.00  0.00    +0.520 C 
ATOM      8  N   LIG    1       -4.872   3.222  -0.147  0.00  0.00    -0.680 N 
ATOM      9  H   LIG    1       -4.956   4.059  -0.629  0.00  0.00    +0.410 HD
ATOM     10  O   LIG    1       -3.601   1.865   1.065  0.00  0.00    -0.500 OA
BRANCH   7  11
ATOM     11  C   LIG    1       -2.647   3.979   0.626  0.00  0.00    -0.030 C 
ATOM     12  C   LIG    1       -2.243   4.425  -0.781  0.00  0.00    +0.070 C 
ATOM     13  C   LIG    1       -3.155   5.186   1.417  0.00  0.00    +0.080 C 
BRANCH  11  17
ATOM     14  C   LIG    1       -0.558   2.050   4.744  0.00  0.00    +0.090 C 
ATOM     15  C   LIG    1       -0.454   2.461   3.297  0.00  0.00    -0.120 A 
ATOM     16  C   LIG    1       -1.548   3.007   2.654  0.00  0.00    +0.070 A 
ATOM     17  C   LIG    1       -1.453   3.384   1.327  0.00  0.00    -0.080 A 
ATOM     18  C   LIG    1       -0.262   3.222   0.645  0.00  0.00    +0.050 A 
ATOM     19  C   LIG    1        0.832   2.671   1.285  0.00  0.00    -0.010 A 
ATOM     20  C   LIG    1        0.738   2.292   2.613  0.00  0.00    +0.100 A 
ATOM     21  F   LIG    1        1.808   1.758   3.241  0.00  0.00    -0.140 F 
ENDBRANCH  11  17
ENDBRANCH   7  11
ENDBRANCH   1   8
BRANCH   4  22
ATOM     22  S   LIG    1       -9.333  -0.682  -0.183  0.00  0.00    +2.690 S 
ATOM     23  O   LIG    1      -10.462  -0.006   0.355  0.00  0.00    -0.950 OA
ATOM     24  O   LIG    1       -8.816  -1.887   0.363  0.00  0.00    -0.950 OA
BRANCH  22  25
ATOM     25  N   LIG    1       -9.691  -1.002  -1.768  0.00  0.00    -1.000 NA
ATOM     26  C   LIG    1      -10.685  -0.189  -2.473  0.00  0.00    +0.300 C 
BRANCH  25  27
ATOM     27  C   LIG    1       -9.014  -2.099  -2.464  0.00  0.00    +0.250 C 
ATOM     28  C   LIG    1       -8.251  -1.544  -3.668  0.00  0.00    +0.010 C 
ATOM     29  C   LIG    1       -7.544  -2.690  -4.396  0.00  0.00    +0.020 C 
ATOM     30  C   LIG    1       -8.581  -3.707  -4.874  0.00  0.00    +0.000 C 
ATOM     31  C   LIG    1       -9.345  -4.262  -3.670  0.00  0.00    +0.020 C 
ATOM     32  C   LIG    1      -10.052  -3.116  -2.943  0.00  0.00    +0.010 C 
ENDBRANCH  25  27
ENDBRANCH  22  25
ENDBRANCH   4  22
TORSDOF 6
