REMARK  Name = ZINCpk00000e94RD.0
REMARK                            x       y       z     vdW  Elec       q    Type
REMARK                         _______ _______ _______ _____ _____    ______ ____
ROOT
ATOM      1  C   LIG    1       -1.490  -3.711   1.753  0.00  0.00    +0.450 C 
ATOM      2  O   LIG    1       -1.050  -3.128   2.716  0.00  0.00    -0.490 OA
ENDROOT
BRANCH   1   3
ATOM      3  O   LIG    1       -2.158  -4.864   1.914  0.00  0.00    -0.330 OA
BRANCH   3   4
ATOM      4  C   LIG    1       -2.315  -5.351   3.273  0.00  0.00    +0.250 C 
BRANCH   4   6
ATOM      5  N   LIG    1       -3.352  -7.285   4.413  0.00  0.00    -0.600 N 
ATOM      6  C   LIG    1       -3.085  -6.646   3.257  0.00  0.00    +0.520 C 
ATOM      7  O   LIG    1       -3.465  -7.112   2.204  0.00  0.00    -0.510 OA
BRANCH   5   9
ATOM      8  C   LIG    1       -5.481  -8.309   3.780  0.00  0.00    +0.030 C 
ATOM      9  C   LIG    1       -4.101  -8.544   4.397  0.00  0.00    +0.240 C 
ATOM     10  C   LIG    1       -3.340  -9.580   3.567  0.00  0.00    +0.030 C 
ENDBRANCH   5   9
BRANCH   5  11
ATOM     11  C   LIG    1       -2.893  -6.722   5.685  0.00  0.00    +0.210 C 
ATOM     12  C   LIG    1       -1.874  -7.667   6.324  0.00  0.00    +0.020 C 
ATOM     13  C   LIG    1       -4.087  -6.548   6.626  0.00  0.00    +0.030 C 
ENDBRANCH   5  11
ENDBRANCH   4   6
ENDBRANCH   3   4
ENDBRANCH   1   3
BRANCH   1  14
ATOM     14  C   LIG    1       -1.288  -3.144   0.372  0.00  0.00    +0.420 C 
BRANCH  14  15
ATOM     15  N   LIG    1       -0.535  -1.890   0.464  0.00  0.00    -0.570 N 
ATOM     16  C   LIG    1       -1.094  -0.675   0.605  0.00  0.00    +0.580 C 
ATOM     17  C   LIG    1       -0.017   0.336   0.661  0.00  0.00    -0.140 A 
ATOM     18  C   LIG    1        0.010   1.714   0.795  0.00  0.00    +0.100 A 
ATOM     19  C   LIG    1        1.227   2.379   0.812  0.00  0.00    +0.060 A 
ATOM     20  C   LIG    1        2.411   1.676   0.697  0.00  0.00    +0.060 A 
ATOM     21  C   LIG    1        2.399   0.296   0.562  0.00  0.00    +0.100 A 
ATOM     22  C   LIG    1        1.191  -0.381   0.543  0.00  0.00    -0.140 A 
ATOM     23  O   LIG    1       -2.285  -0.447   0.676  0.00  0.00    -0.450 OA
ATOM     24  C   LIG    1        0.807  -1.803   0.419  0.00  0.00    +0.580 C 
ATOM     25  O   LIG    1        1.574  -2.737   0.296  0.00  0.00    -0.460 OA
ENDBRANCH  14  15
ENDBRANCH   1  14
TORSDOF 7
