REMARK  Name = ZINCrH000004rE6N.0
REMARK                            x       y       z     vdW  Elec       q    Type
REMARK                         _______ _______ _______ _____ _____    ______ ____
ROOT
ATOM      1  C   LIG    1       -8.022   9.875  -1.341  0.00  0.00    +0.080 C 
ATOM      2  C   LIG    1       -6.601   9.616  -1.771  0.00  0.00    -0.110 A 
ATOM      3  C   LIG    1       -6.063  10.374  -2.797  0.00  0.00    +0.020 A 
ATOM      4  C   LIG    1       -4.766  10.194  -3.247  0.00  0.00    +0.000 A 
ATOM      5  C   LIG    1       -4.011   9.206  -2.618  0.00  0.00    +0.100 A 
ATOM      6  N   LIG    1       -2.730   8.774  -2.805  0.00  0.00    -0.580 N 
ATOM      7  H   LIG    1       -2.112   9.131  -3.462  0.00  0.00    +0.420 HD
ATOM      8  C   LIG    1       -2.448   7.760  -1.926  0.00  0.00    +0.080 A 
ATOM      9  C   LIG    1       -3.527   7.517  -1.152  0.00  0.00    -0.190 A 
ATOM     10  C   LIG    1       -3.574   6.466  -0.069  0.00  0.00    +0.370 C 
ATOM     11  N   LIG    1       -2.370   5.629  -0.214  0.00  0.00    -0.610 N 
ATOM     12  C   LIG    1       -1.083   6.300  -0.454  0.00  0.00    +0.290 C 
ATOM     13  C   LIG    1       -2.444   4.286  -0.124  0.00  0.00    +0.590 C 
ATOM     14  O   LIG    1       -3.527   3.744  -0.016  0.00  0.00    -0.510 OA
ATOM     15  C   LIG    1       -1.141   7.011  -1.817  0.00  0.00    +0.100 C 
ATOM     16  C   LIG    1       -4.569   8.432  -1.567  0.00  0.00    -0.090 A 
ATOM     17  C   LIG    1       -5.882   8.635  -1.134  0.00  0.00    +0.060 A 
ENDROOT
BRANCH  13  18
ATOM     18  C   LIG    1       -1.215   3.477  -0.158  0.00  0.00    -0.250 A 
ATOM     19  C   LIG    1       -0.367   3.403   0.939  0.00  0.00    +0.190 A 
ATOM     20  C   LIG    1        0.813   2.625   0.816  0.00  0.00    -0.160 A 
ATOM     21  C   LIG    1        1.606   2.351   1.939  0.00  0.00    +0.090 A 
ATOM     22  C   LIG    1        2.720   1.571   1.810  0.00  0.00    +0.000 A 
ATOM     23  C   LIG    1        3.080   1.056   0.573  0.00  0.00    +0.090 A 
ATOM     24  C   LIG    1        2.328   1.333  -0.550  0.00  0.00    +0.020 A 
ATOM     25  C   LIG    1        1.196   2.130  -0.445  0.00  0.00    +0.140 A 
ATOM     26  O   LIG    1        0.480   2.447  -1.550  0.00  0.00    -0.270 OA
ATOM     27  C   LIG    1       -0.832   2.711  -1.359  0.00  0.00    +0.520 A 
ATOM     28  O   LIG    1       -1.671   2.329  -2.153  0.00  0.00    -0.420 OA
ENDBRANCH  13  18
TORSDOF 1
