REMARK  Name = ZINCpe00000MJKko.2
REMARK                            x       y       z     vdW  Elec       q    Type
REMARK                         _______ _______ _______ _____ _____    ______ ____
ROOT
ATOM      1  C   LIG    1       -4.575  -2.303  -3.382  0.00  0.00    +0.120 C 
ATOM      2  C   LIG    1       -3.059  -2.516  -3.450  0.00  0.00    +0.300 C 
ATOM      3  N   LIG    1       -2.465  -2.057  -2.185  0.00  0.00    -0.610 N 
ATOM      4  C   LIG    1       -3.031  -2.565  -0.926  0.00  0.00    +0.280 C 
ATOM      5  C   LIG    1       -4.551  -2.345  -0.958  0.00  0.00    +0.190 C 
ATOM      6  C   LIG    1       -1.427  -1.197  -2.180  0.00  0.00    +0.500 C 
ATOM      7  O   LIG    1       -0.970  -0.792  -3.228  0.00  0.00    -0.520 OA
ATOM      8  N   LIG    1       -5.104  -2.952  -2.176  0.00  0.00    -0.530 NA
ENDROOT
BRANCH   1  10
ATOM      9  C   LIG    1       -4.700  -2.219  -5.876  0.00  0.00    +0.010 C 
ATOM     10  C   LIG    1       -5.232  -2.914  -4.621  0.00  0.00    +0.030 C 
ENDBRANCH   1  10
BRANCH   6  11
ATOM     11  C   LIG    1       -0.834  -0.740  -0.873  0.00  0.00    +0.360 C 
BRANCH  11  12
ATOM     12  N   LIG    1        0.273   0.184  -1.135  0.00  0.00    -0.520 N 
ATOM     13  C   LIG    1        0.172   1.521  -1.254  0.00  0.00    +0.690 A 
ATOM     14  N   LIG    1        1.388   2.048  -1.493  0.00  0.00    -0.640 N 
ATOM     15  H   LIG    1        1.584   2.989  -1.618  0.00  0.00    +0.440 HD
ATOM     16  C   LIG    1        2.316   1.010  -1.531  0.00  0.00    +0.090 A 
ATOM     17  C   LIG    1        3.687   0.966  -1.736  0.00  0.00    +0.030 A 
ATOM     18  C   LIG    1        4.346  -0.247  -1.715  0.00  0.00    +0.020 A 
ATOM     19  C   LIG    1        3.645  -1.419  -1.490  0.00  0.00    +0.020 A 
ATOM     20  C   LIG    1        2.280  -1.386  -1.284  0.00  0.00    +0.030 A 
ATOM     21  O   LIG    1       -0.862   2.156  -1.165  0.00  0.00    -0.550 OA
ATOM     22  C   LIG    1        1.609  -0.173  -1.303  0.00  0.00    +0.100 A 
ENDBRANCH  11  12
ENDBRANCH   6  11
BRANCH   8  23
ATOM     23  C   LIG    1       -6.572  -2.920  -2.161  0.00  0.00    +0.190 C 
BRANCH  23  24
ATOM     24  C   LIG    1       -7.095  -3.943  -1.151  0.00  0.00    +0.180 C 
BRANCH  24  25
ATOM     25  O   LIG    1       -6.726  -3.542   0.169  0.00  0.00    -0.390 OA
ATOM     26  C   LIG    1       -7.168  -4.435   1.194  0.00  0.00    +0.200 C 
ENDBRANCH  24  25
ENDBRANCH  23  24
ENDBRANCH   8  23
TORSDOF 6
