REMARK  Name = ZINCqH0000034LSg.0
REMARK                            x       y       z     vdW  Elec       q    Type
REMARK                         _______ _______ _______ _____ _____    ______ ____
ROOT
ATOM      1  N   LIG    1       -3.007   4.102  -1.329  0.00  0.00    -0.740 N 
ATOM      2  H   LIG    1       -2.462   3.802  -2.073  0.00  0.00    +0.410 HD
ENDROOT
BRANCH   1   7
ATOM      3  C   LIG    1       -6.198   5.859  -0.755  0.00  0.00    -0.130 A 
ATOM      4  C   LIG    1       -6.612   6.087  -2.070  0.00  0.00    +0.030 A 
ATOM      5  C   LIG    1       -5.832   5.658  -3.123  0.00  0.00    -0.030 A 
ATOM      6  C   LIG    1       -4.635   4.999  -2.881  0.00  0.00    +0.080 A 
ATOM      7  C   LIG    1       -4.215   4.768  -1.570  0.00  0.00    +0.190 A 
ATOM      8  C   LIG    1       -4.995   5.191  -0.510  0.00  0.00    +0.030 A 
BRANCH   3  12
ATOM      9  C   LIG    1       -9.024   7.412   1.254  0.00  0.00    +0.290 C 
ATOM     10  N   LIG    1       -8.195   6.957   0.134  0.00  0.00    -0.730 N 
ATOM     11  H   LIG    1       -8.483   7.115  -0.778  0.00  0.00    +0.400 HD
ATOM     12  C   LIG    1       -7.033   6.318   0.372  0.00  0.00    +0.560 C 
ATOM     13  O   LIG    1       -6.671   6.119   1.516  0.00  0.00    -0.540 OA
ENDBRANCH   3  12
BRANCH   6  14
ATOM     14  O   LIG    1       -3.871   4.578  -3.922  0.00  0.00    -0.320 OA
ATOM     15  C   LIG    1       -4.361   4.848  -5.237  0.00  0.00    +0.250 C 
ENDBRANCH   6  14
ENDBRANCH   1   7
BRANCH   1  16
ATOM     16  C   LIG    1       -2.567   3.860   0.047  0.00  0.00    +0.310 C 
BRANCH  16  17
ATOM     17  C   LIG    1       -1.247   3.133   0.031  0.00  0.00    -0.100 A 
ATOM     18  C   LIG    1       -1.221   1.750   0.017  0.00  0.00    +0.040 A 
ATOM     19  C   LIG    1       -0.013   1.076   0.008  0.00  0.00    +0.010 A 
ATOM     20  C   LIG    1        1.174   1.781   0.000  0.00  0.00    +0.040 A 
ATOM     21  C   LIG    1        1.153   3.174   0.008  0.00  0.00    -0.060 A 
ATOM     22  C   LIG    1       -0.066   3.848   0.023  0.00  0.00    +0.050 A 
BRANCH  21  23
ATOM     23  C   LIG    1        2.425   3.938  -0.000  0.00  0.00    +0.000 A 
ATOM     24  C   LIG    1        2.424   5.335   0.001  0.00  0.00    -0.030 A 
ATOM     25  C   LIG    1        3.630   6.006  -0.002  0.00  0.00    +0.260 A 
ATOM     26  N   LIG    1        4.772   5.346  -0.017  0.00  0.00    -0.490 NA
ATOM     27  C   LIG    1        4.817   4.027  -0.024  0.00  0.00    +0.260 A 
ATOM     28  C   LIG    1        3.658   3.279  -0.016  0.00  0.00    -0.030 A 
ENDBRANCH  21  23
ENDBRANCH  16  17
ENDBRANCH   1  16
TORSDOF 6
