REMARK  Name = ZINCqH0000034HHM.0
REMARK                            x       y       z     vdW  Elec       q    Type
REMARK                         _______ _______ _______ _____ _____    ______ ____
ROOT
ATOM      1  C   LIG    1       -4.210  -1.775  -3.389  0.00  0.00    +0.210 C 
ATOM      2  N   LIG    1       -4.764  -1.063  -2.229  0.00  0.00    -0.500 N 
ATOM      3  C   LIG    1       -6.135  -1.492  -1.958  0.00  0.00    +0.190 C 
ATOM      4  C   LIG    1       -6.967  -0.358  -1.373  0.00  0.00    +0.030 C 
ATOM      5  C   LIG    1       -6.552   0.019   0.032  0.00  0.00    +0.300 C 
ATOM      6  N   LIG    1       -5.168   0.523   0.029  0.00  0.00    -0.540 N 
ATOM      7  C   LIG    1       -4.133  -0.420   0.014  0.00  0.00    +0.150 A 
ATOM      8  C   LIG    1       -3.299  -0.554   1.120  0.00  0.00    +0.070 A 
ATOM      9  C   LIG    1       -2.300  -1.512   1.112  0.00  0.00    -0.020 A 
ATOM     10  C   LIG    1       -2.131  -2.337   0.014  0.00  0.00    +0.060 A 
ATOM     11  C   LIG    1       -2.952  -2.199  -1.092  0.00  0.00    -0.020 A 
ATOM     12 CL   LIG    1       -1.253  -1.681   2.487  0.00  0.00    -0.080 Cl
ATOM     13  C   LIG    1       -4.907   1.845   0.034  0.00  0.00    +0.610 C 
ATOM     14  O   LIG    1       -5.822   2.646   0.042  0.00  0.00    -0.520 OA
ATOM     15  C   LIG    1       -3.944  -1.233  -1.093  0.00  0.00    +0.110 A 
ENDROOT
BRANCH  13  16
ATOM     16  C   LIG    1       -3.512   2.321   0.031  0.00  0.00    +0.010 A 
ATOM     17  C   LIG    1       -3.188   3.645   0.036  0.00  0.00    +0.000 A 
ATOM     18  S   LIG    1       -1.486   3.802   0.029  0.00  0.00    +0.210 S 
ATOM     19  C   LIG    1       -1.305   2.051   0.019  0.00  0.00    +0.080 A 
ATOM     20  N   LIG    1       -2.477   1.494   0.017  0.00  0.00    -0.380 NA
BRANCH  19  21
ATOM     21  C   LIG    1       -0.016   1.327   0.009  0.00  0.00    +0.150 A 
ATOM     22  C   LIG    1        1.186   2.036   0.002  0.00  0.00    +0.240 A 
ATOM     23  N   LIG    1        2.334   1.384  -0.014  0.00  0.00    -0.430 NA
ATOM     24  C   LIG    1        2.345   0.062  -0.021  0.00  0.00    +0.240 A 
ATOM     25  C   LIG    1        1.155  -0.646  -0.012  0.00  0.00    +0.230 A 
ATOM     26  N   LIG    1        0.002  -0.004   0.002  0.00  0.00    -0.380 NA
ENDBRANCH  19  21
ENDBRANCH  13  16
TORSDOF 2
