REMARK  Name = ZINCqH0000038UpM.0
REMARK                            x       y       z     vdW  Elec       q    Type
REMARK                         _______ _______ _______ _____ _____    ______ ____
ROOT
ATOM      1  N   LIG    1       -5.534   3.225   0.084  0.00  0.00    -0.650 N 
ATOM      2  H   LIG    1       -4.713   3.741   0.079  0.00  0.00    +0.410 HD
ATOM      3  C   LIG    1       -6.726   3.854   0.104  0.00  0.00    +0.730 C 
ATOM      4  N   LIG    1       -6.777   5.201   0.117  0.00  0.00    -0.630 N 
ATOM      5  C   LIG    1       -5.615   6.102   0.112  0.00  0.00    +0.260 C 
ATOM      6  C   LIG    1       -6.155   7.547   0.158  0.00  0.00    +0.050 C 
ATOM      7  C   LIG    1       -7.575   7.367   0.758  0.00  0.00    +0.280 C 
ATOM      8  C   LIG    1       -8.006   6.014   0.133  0.00  0.00    +0.300 C 
ATOM      9  O   LIG    1       -7.755   3.207   0.109  0.00  0.00    -0.570 OA
ENDROOT
BRANCH   1  13
ATOM     10  C   LIG    1       -6.872  -1.518   0.062  0.00  0.00    +0.370 C 
ATOM     11  N   LIG    1       -6.068  -0.293   0.059  0.00  0.00    -0.380 N 
ATOM     12  C   LIG    1       -6.548   0.978   0.071  0.00  0.00    +0.250 A 
ATOM     13  C   LIG    1       -5.482   1.817   0.070  0.00  0.00    +0.010 A 
ATOM     14  C   LIG    1       -4.318   1.035   0.049  0.00  0.00    +0.070 A 
ATOM     15  N   LIG    1       -4.669  -0.225   0.046  0.00  0.00    -0.270 NA
BRANCH  14  16
ATOM     16  C   LIG    1       -2.904   1.556   0.038  0.00  0.00    +0.080 C 
ATOM     17  C   LIG    1       -2.188   1.063  -1.221  0.00  0.00    +0.020 C 
ATOM     18  C   LIG    1       -0.753   1.593  -1.232  0.00  0.00    +0.000 C 
ATOM     19  C   LIG    1       -0.013   1.086   0.008  0.00  0.00    +0.000 C 
ATOM     20  C   LIG    1       -0.729   1.579   1.267  0.00  0.00    +0.000 C 
ATOM     21  C   LIG    1       -2.164   1.050   1.278  0.00  0.00    +0.020 C 
ENDBRANCH  14  16
ENDBRANCH   1  13
BRANCH   7  22
ATOM     22  N   LIG    1       -8.466   8.448   0.330  0.00  0.00    -0.360 N 
ATOM     23  C   LIG    1       -9.172   8.488  -0.821  0.00  0.00    +0.250 A 
ATOM     24  C   LIG    1       -9.867   9.649  -0.839  0.00  0.00    -0.180 A 
ATOM     25  C   LIG    1       -9.577  10.342   0.342  0.00  0.00    +0.260 A 
ATOM     26 CL   LIG    1      -10.932  10.183  -2.102  0.00  0.00    -0.040 Cl
ATOM     27  N   LIG    1       -8.742   9.621   1.045  0.00  0.00    -0.280 NA
ENDBRANCH   7  22
TORSDOF 3
