REMARK  Name = ZINCqH0000051GSC.0
REMARK                            x       y       z     vdW  Elec       q    Type
REMARK                         _______ _______ _______ _____ _____    ______ ____
ROOT
ATOM      1  O   LIG    1       -3.684   4.414  -3.527  0.00  0.00    -0.930 OA
ATOM      2  S   LIG    1       -2.735   4.677  -2.502  0.00  0.00    +2.610 S 
ATOM      3  O   LIG    1       -2.629   5.967  -1.915  0.00  0.00    -0.940 OA
ENDROOT
BRANCH   2   4
ATOM      4  N   LIG    1       -3.202   3.696  -1.252  0.00  0.00    -0.970 NA
BRANCH   4   5
ATOM      5  C   LIG    1       -3.804   2.390  -1.531  0.00  0.00    +0.210 C 
ATOM      6  C   LIG    1       -4.255   1.550  -0.335  0.00  0.00    +0.030 C 
ATOM      7  C   LIG    1       -3.010   1.146  -1.127  0.00  0.00    +0.000 C 
ENDBRANCH   4   5
BRANCH   4   8
ATOM      8  C   LIG    1       -3.014   4.135   0.133  0.00  0.00    +0.360 C 
BRANCH   8   9
ATOM      9  C   LIG    1       -4.353   4.457   0.745  0.00  0.00    -0.150 A 
ATOM     10  C   LIG    1       -4.883   3.633   1.719  0.00  0.00    +0.100 A 
ATOM     11  C   LIG    1       -6.111   3.927   2.282  0.00  0.00    -0.020 A 
ATOM     12  C   LIG    1       -6.811   5.048   1.869  0.00  0.00    +0.140 A 
ATOM     13  C   LIG    1       -6.281   5.874   0.893  0.00  0.00    -0.050 A 
ATOM     14  F   LIG    1       -8.011   5.335   2.420  0.00  0.00    -0.130 F 
ATOM     15  C   LIG    1       -5.054   5.575   0.326  0.00  0.00    +0.150 A 
ATOM     16  F   LIG    1       -4.539   6.377  -0.631  0.00  0.00    -0.110 F 
ENDBRANCH   8   9
ENDBRANCH   4   8
ENDBRANCH   2   4
BRANCH   2  17
ATOM     17  C   LIG    1       -1.098   4.056  -2.977  0.00  0.00    -0.350 C 
BRANCH  17  18
ATOM     18  C   LIG    1       -0.553   4.891  -4.138  0.00  0.00    +0.180 C 
ATOM     19  C   LIG    1        0.832   4.355  -4.582  0.00  0.00    +0.030 C 
ATOM     20  C   LIG    1        0.875   4.839  -6.059  0.00  0.00    +0.020 C 
ATOM     21  C   LIG    1       -0.603   4.744  -6.476  0.00  0.00    +0.100 C 
ATOM     22  C   LIG    1       -0.969   5.928  -7.386  0.00  0.00    +0.020 C 
ATOM     23  C   LIG    1       -0.826   5.359  -8.820  0.00  0.00    +0.020 C 
ATOM     24  C   LIG    1       -1.354   3.910  -8.670  0.00  0.00    +0.020 C 
ATOM     25  C   LIG    1       -0.842   3.462  -7.284  0.00  0.00    +0.020 C 
ATOM     26  O   LIG    1       -1.400   4.754  -5.292  0.00  0.00    -0.360 OA
ENDBRANCH  17  18
ENDBRANCH   2  17
TORSDOF 6
