REMARK  Name = ZINCqH0000007Yb8.0
REMARK                            x       y       z     vdW  Elec       q    Type
REMARK                         _______ _______ _______ _____ _____    ______ ____
ROOT
ATOM      1  N   LIG    1       -2.999   0.902   6.460  0.00  0.00    -0.730 N 
ATOM      2  H   LIG    1       -3.300   1.729   6.051  0.00  0.00    +0.400 HD
ATOM      3  C   LIG    1       -3.025   0.765   7.801  0.00  0.00    +0.590 C 
ATOM      4  O   LIG    1       -2.648  -0.272   8.314  0.00  0.00    -0.510 OA
ENDROOT
BRANCH   3   5
ATOM      5  C   LIG    1       -3.507   1.863   8.639  0.00  0.00    -0.270 A 
ATOM      6  C   LIG    1       -3.587   1.843  10.015  0.00  0.00    +0.030 A 
ATOM      7  C   LIG    1       -4.079   3.027  10.542  0.00  0.00    +0.010 A 
ATOM      8  C   LIG    1       -4.393   3.959   9.641  0.00  0.00    -0.050 A 
ATOM      9  S   LIG    1       -4.085   3.417   8.054  0.00  0.00    +0.210 S 
BRANCH   6  10
ATOM     10  C   LIG    1       -3.187   0.682  10.843  0.00  0.00    -0.050 A 
ATOM     11  C   LIG    1       -3.667  -0.592  10.542  0.00  0.00    +0.070 A 
ATOM     12  C   LIG    1       -3.287  -1.671  11.314  0.00  0.00    -0.010 A 
ATOM     13  C   LIG    1       -2.438  -1.489  12.391  0.00  0.00    +0.010 A 
ATOM     14  C   LIG    1       -1.962  -0.226  12.698  0.00  0.00    -0.010 A 
ATOM     15  C   LIG    1       -2.332   0.859  11.931  0.00  0.00    +0.020 A 
ENDBRANCH   6  10
ENDBRANCH   3   5
BRANCH   1  16
ATOM     16  C   LIG    1       -2.517  -0.197   5.621  0.00  0.00    +0.320 C 
BRANCH  16  21
ATOM     17  C   LIG    1       -1.580   1.205   2.238  0.00  0.00    +0.120 A 
ATOM     18  C   LIG    1       -2.735   0.955   1.508  0.00  0.00    +0.050 A 
ATOM     19  C   LIG    1       -3.808   0.327   2.110  0.00  0.00    +0.020 A 
ATOM     20  C   LIG    1       -3.737  -0.043   3.441  0.00  0.00    +0.040 A 
ATOM     21  C   LIG    1       -2.590   0.209   4.171  0.00  0.00    -0.110 A 
ATOM     22  C   LIG    1       -1.512   0.832   3.574  0.00  0.00    +0.030 A 
BRANCH  17  23
ATOM     23  N   LIG    1       -0.492   1.836   1.631  0.00  0.00    -1.070 N 
ATOM     24  H   LIG    1       -0.303   2.768   1.822  0.00  0.00    +0.430 HD
BRANCH  23  26
ATOM     25  C   LIG    1        1.213  -0.315   1.603  0.00  0.00    -0.280 C 
ATOM     26  S   LIG    1        0.476   0.993   0.584  0.00  0.00    +2.610 S 
ATOM     27  O   LIG    1       -0.429   0.438  -0.360  0.00  0.00    -0.950 OA
ATOM     28  O   LIG    1        1.465   1.933   0.187  0.00  0.00    -0.950 OA
ENDBRANCH  23  26
ENDBRANCH  17  23
ENDBRANCH  16  21
ENDBRANCH   1  16
TORSDOF 6
