REMARK  Name = ZINCpk00000xSqdB.0
REMARK                            x       y       z     vdW  Elec       q    Type
REMARK                         _______ _______ _______ _____ _____    ______ ____
ROOT
ATOM      1  C   LIG    1       -2.429   0.206  -2.050  0.00  0.00    +0.520 C 
ATOM      2  N   LIG    1       -1.975   0.942  -1.016  0.00  0.00    -0.600 N 
ATOM      3  C   LIG    1       -2.794   1.123   0.190  0.00  0.00    +0.270 C 
ATOM      4  C   LIG    1       -1.967   0.712   1.413  0.00  0.00    +0.010 C 
ATOM      5  C   LIG    1       -0.652   1.495   1.422  0.00  0.00    +0.020 C 
ATOM      6  C   LIG    1        0.150   1.163   0.162  0.00  0.00    +0.020 C 
ATOM      7  C   LIG    1       -0.652   1.579  -1.075  0.00  0.00    +0.230 C 
ATOM      8  O   LIG    1       -1.709  -0.013  -3.001  0.00  0.00    -0.510 OA
ENDROOT
BRANCH   1   9
ATOM      9  C   LIG    1       -3.832  -0.343  -2.025  0.00  0.00    +0.240 C 
BRANCH   9  10
ATOM     10  O   LIG    1       -4.075  -1.082  -3.224  0.00  0.00    -0.290 OA
BRANCH  10  15
ATOM     11  C   LIG    1       -6.868  -2.958  -4.635  0.00  0.00    -0.100 A 
ATOM     12  C   LIG    1       -7.817  -2.798  -3.624  0.00  0.00    +0.010 A 
ATOM     13  C   LIG    1       -7.505  -2.068  -2.495  0.00  0.00    +0.060 A 
ATOM     14  C   LIG    1       -6.254  -1.495  -2.361  0.00  0.00    -0.050 A 
ATOM     15  C   LIG    1       -5.303  -1.649  -3.361  0.00  0.00    +0.120 A 
ATOM     16  C   LIG    1       -5.608  -2.374  -4.501  0.00  0.00    +0.060 A 
BRANCH  11  20
ATOM     17  N   LIG    1       -8.418  -4.296  -5.976  0.00  0.00    -0.850 N 
ATOM     18  H   LIG    1       -8.635  -4.809  -6.771  0.00  0.00    +0.410 HD
ATOM     19  H   LIG    1       -9.079  -4.186  -5.275  0.00  0.00    +0.400 HD
ATOM     20  C   LIG    1       -7.198  -3.738  -5.846  0.00  0.00    +0.560 C 
ATOM     21  O   LIG    1       -6.370  -3.877  -6.725  0.00  0.00    -0.530 OA
ENDBRANCH  11  20
ENDBRANCH  10  15
ENDBRANCH   9  10
ENDBRANCH   1   9
BRANCH   7  22
ATOM     22  C   LIG    1        0.081   1.124  -2.338  0.00  0.00    +0.360 C 
BRANCH  22  23
ATOM     23  N   LIG    1        1.396   1.767  -2.398  0.00  0.00    -0.370 N 
ATOM     24  C   LIG    1        2.582   1.137  -2.531  0.00  0.00    +0.230 A 
ATOM     25  C   LIG    1        3.551   2.081  -2.548  0.00  0.00    -0.130 A 
ATOM     26  C   LIG    1        2.937   3.330  -2.410  0.00  0.00    +0.220 A 
ATOM     27  N   LIG    1        1.645   3.143  -2.320  0.00  0.00    -0.300 NA
ENDBRANCH  22  23
ENDBRANCH   7  22
TORSDOF 6
