REMARK  Name = ZINCvU00000007Q2.0
REMARK                            x       y       z     vdW  Elec       q    Type
REMARK                         _______ _______ _______ _____ _____    ______ ____
ROOT
ATOM      1  O   LIG    1        3.882   3.328   0.201  0.00  0.00    -0.520 OA
ATOM      2  C   LIG    1        4.920   3.941   0.034  0.00  0.00    +0.560 C 
ATOM      3  N   LIG    1        6.077   3.271  -0.140  0.00  0.00    -0.580 N 
ENDROOT
BRANCH   3   4
ATOM      4  C   LIG    1        6.067   1.811  -0.258  0.00  0.00    +0.210 C 
ATOM      5  C   LIG    1        4.729   1.135  -0.563  0.00  0.00    +0.050 C 
ATOM      6  C   LIG    1        5.344   1.018   0.833  0.00  0.00    +0.010 C 
ENDBRANCH   3   4
BRANCH   2   7
ATOM      7  C   LIG    1        4.913   5.403   0.022  0.00  0.00    -0.100 C 
ATOM      8  C   LIG    1        3.742   6.073   0.094  0.00  0.00    +0.160 C 
BRANCH   8   9
ATOM      9  C   LIG    1        3.735   7.540   0.082  0.00  0.00    -0.050 A 
ATOM     10  C   LIG    1        4.925   8.256  -0.002  0.00  0.00    +0.050 A 
ATOM     11  C   LIG    1        4.917   9.643  -0.013  0.00  0.00    +0.010 A 
ATOM     12  C   LIG    1        3.758  10.354   0.062  0.00  0.00    +0.050 A 
ATOM     13  C   LIG    1        2.519   9.697   0.144  0.00  0.00    -0.110 A 
ATOM     14  C   LIG    1        1.311  10.415   0.218  0.00  0.00    +0.090 A 
ATOM     15  C   LIG    1        0.145   9.708   0.301  0.00  0.00    -0.030 A 
ATOM     16  C   LIG    1        0.175   8.317   0.311  0.00  0.00    +0.300 A 
ATOM     17  N   LIG    1        1.305   7.651   0.241  0.00  0.00    -0.470 NA
ATOM     18  C   LIG    1        2.475   8.282   0.159  0.00  0.00    +0.150 A 
ENDBRANCH   8   9
ENDBRANCH   2   7
BRANCH   3  19
ATOM     19  C   LIG    1        7.343   4.003  -0.211  0.00  0.00    +0.470 C 
BRANCH  19  20
ATOM     20  C   LIG    1        7.924   4.139   1.173  0.00  0.00    +0.140 A 
ATOM     21  N   LIG    1        8.733   3.299   1.754  0.00  0.00    -0.260 NA
ATOM     22  N   LIG    1        9.030   3.731   2.929  0.00  0.00    -0.270 NA
ATOM     23  C   LIG    1        8.408   4.867   3.143  0.00  0.00    +0.210 A 
ATOM     24  O   LIG    1        7.696   5.147   2.033  0.00  0.00    -0.200 OA
BRANCH  23  25
ATOM     25  C   LIG    1        8.476   5.686   4.371  0.00  0.00    -0.020 A 
ATOM     26  C   LIG    1        9.260   5.271   5.448  0.00  0.00    +0.090 A 
ATOM     27  C   LIG    1        9.320   6.041   6.592  0.00  0.00    +0.030 A 
ATOM     28  C   LIG    1        8.605   7.223   6.673  0.00  0.00    +0.060 A 
ATOM     29  C   LIG    1        7.826   7.641   5.609  0.00  0.00    +0.030 A 
ATOM     30  C   LIG    1        7.761   6.883   4.456  0.00  0.00    -0.010 A 
ATOM     31 CL   LIG    1        6.789   7.414   3.120  0.00  0.00    -0.040 Cl
ENDBRANCH  23  25
ENDBRANCH  19  20
ENDBRANCH   3  19
TORSDOF 6
