REMARK  Name = ZINCrg00000SjSuK.0
REMARK                            x       y       z     vdW  Elec       q    Type
REMARK                         _______ _______ _______ _____ _____    ______ ____
ROOT
ATOM      1  N   LIG    1       -1.166   1.915  -0.008  0.00  0.00    -0.490 N 
ATOM      2  C   LIG    1       -1.240   3.181   0.561  0.00  0.00    +0.450 A 
ATOM      3  C   LIG    1       -0.090   4.085   0.343  0.00  0.00    -0.280 A 
ATOM      4  C   LIG    1        1.143   3.509   0.052  0.00  0.00    +0.220 A 
ATOM      5  C   LIG    1        1.238   2.113  -0.056  0.00  0.00    -0.360 A 
ATOM      6  C   LIG    1        2.500   1.474  -0.160  0.00  0.00    +0.550 A 
ATOM      7  O   LIG    1        3.527   2.127  -0.207  0.00  0.00    -0.500 OA
ATOM      8  N   LIG    1        2.536   0.123  -0.206  0.00  0.00    -0.440 N 
ATOM      9  C   LIG    1        3.743  -0.506  -0.292  0.00  0.00    +0.300 A 
ATOM     10  C   LIG    1        3.819  -1.856  -0.324  0.00  0.00    +0.000 A 
ATOM     11  C   LIG    1        2.650  -2.627  -0.271  0.00  0.00    +0.150 A 
ATOM     12  C   LIG    1        1.438  -2.007  -0.191  0.00  0.00    +0.020 A 
ATOM     13  C   LIG    1        1.378  -0.602  -0.162  0.00  0.00    +0.440 A 
ATOM     14  N   LIG    1        0.185  -0.007  -0.091  0.00  0.00    -0.570 NA
ATOM     15  N   LIG    1       -2.281   3.556   1.260  0.00  0.00    -0.700 NA
ATOM     16  H   LIG    1       -2.340   4.466   1.592  0.00  0.00    +0.370 HD
ATOM     17  C   LIG    1        0.073   1.310  -0.047  0.00  0.00    +0.500 A 
ENDROOT
BRANCH   3  18
ATOM     18  C   LIG    1       -0.244   5.541   0.430  0.00  0.00    +0.580 C 
ATOM     19  N   LIG    1        0.838   6.339   0.346  0.00  0.00    -0.730 N 
ATOM     20  H   LIG    1        1.709   5.957   0.155  0.00  0.00    +0.400 HD
ATOM     21  O   LIG    1       -1.350   6.028   0.578  0.00  0.00    -0.540 OA
BRANCH  19  22
ATOM     22  C   LIG    1        0.700   7.784   0.544  0.00  0.00    +0.260 C 
BRANCH  22  23
ATOM     23  C   LIG    1        2.068   8.453   0.397  0.00  0.00    +0.030 C 
BRANCH  23  24
ATOM     24  C   LIG    1        1.924   9.962   0.604  0.00  0.00    +0.160 C 
BRANCH  24  25
ATOM     25  O   LIG    1        3.202  10.586   0.467  0.00  0.00    -0.390 OA
ATOM     26  C   LIG    1        3.178  12.004   0.642  0.00  0.00    +0.200 C 
ENDBRANCH  24  25
ENDBRANCH  23  24
ENDBRANCH  22  23
ENDBRANCH  19  22
ENDBRANCH   3  18
BRANCH   1  27
ATOM     27  C   LIG    1       -2.356   1.251  -0.546  0.00  0.00    +0.350 C 
BRANCH  27  29
ATOM     28  C   LIG    1       -4.273   0.628   0.831  0.00  0.00    +0.040 C 
ATOM     29  C   LIG    1       -3.010   0.436   0.540  0.00  0.00    -0.060 C 
ENDBRANCH  27  29
ENDBRANCH   1  27
TORSDOF 7
