REMARK  Name = ZINCvU00000006Ba.0
REMARK                            x       y       z     vdW  Elec       q    Type
REMARK                         _______ _______ _______ _____ _____    ______ ____
ROOT
ATOM      1  N   LIG    1       -0.218   1.533   0.838  0.00  0.00    -0.450 N 
ATOM      2  C   LIG    1        1.112   1.782   0.651  0.00  0.00    +0.150 A 
ATOM      3  N   LIG    1        1.740   0.631   0.741  0.00  0.00    -0.290 NA
ATOM      4  N   LIG    1        0.899  -0.313   0.971  0.00  0.00    -0.250 NA
ATOM      5  C   LIG    1       -0.317   0.176   1.041  0.00  0.00    +0.240 A 
ENDROOT
BRANCH   5   6
ATOM      6  C   LIG    1       -1.558  -0.587   1.291  0.00  0.00    -0.060 A 
ATOM      7  C   LIG    1       -2.674  -0.397   0.476  0.00  0.00    +0.070 A 
ATOM      8  C   LIG    1       -3.828  -1.115   0.712  0.00  0.00    -0.020 A 
ATOM      9  C   LIG    1       -3.887  -2.017   1.760  0.00  0.00    +0.070 A 
ATOM     10  C   LIG    1       -2.788  -2.209   2.578  0.00  0.00    -0.070 A 
ATOM     11  C   LIG    1       -1.621  -1.500   2.351  0.00  0.00    +0.170 A 
BRANCH  11  12
ATOM     12  O   LIG    1       -0.541  -1.688   3.154  0.00  0.00    -0.300 OA
ATOM     13  C   LIG    1       -0.680  -2.636   4.215  0.00  0.00    +0.240 C 
ENDBRANCH  11  12
ENDBRANCH   5   6
BRANCH   1  14
ATOM     14  C   LIG    1       -1.312   2.508   0.821  0.00  0.00    +0.340 C 
BRANCH  14  16
ATOM     15  C   LIG    1       -1.607   4.213   2.543  0.00  0.00    +0.060 C 
ATOM     16  C   LIG    1       -1.621   2.941   2.230  0.00  0.00    -0.070 C 
ENDBRANCH  14  16
ENDBRANCH   1  14
BRANCH   2  17
ATOM     17  S   LIG    1        1.849   3.353   0.344  0.00  0.00    +0.040 S 
BRANCH  17  18
ATOM     18  C   LIG    1        3.587   2.865   0.214  0.00  0.00    +0.010 C 
ATOM     19  C   LIG    1        3.774   1.965  -1.009  0.00  0.00    +0.100 C 
BRANCH  18  20
ATOM     20  C   LIG    1        4.444   4.096   0.068  0.00  0.00    +0.470 C 
ATOM     21  O   LIG    1        3.978   5.107  -0.416  0.00  0.00    -0.430 OA
BRANCH  20  22
ATOM     22  C   LIG    1        5.796   4.073   0.494  0.00  0.00    -0.270 A 
ATOM     23  C   LIG    1        6.265   4.296   1.772  0.00  0.00    +0.150 A 
ATOM     24  N   LIG    1        7.607   4.187   1.786  0.00  0.00    -0.570 N 
ATOM     25  H   LIG    1        8.161   4.300   2.574  0.00  0.00    +0.420 HD
ATOM     26  C   LIG    1        8.087   3.896   0.525  0.00  0.00    +0.090 A 
ATOM     27  C   LIG    1        9.367   3.693   0.020  0.00  0.00    +0.000 A 
ATOM     28  C   LIG    1        9.541   3.411  -1.318  0.00  0.00    +0.030 A 
ATOM     29  C   LIG    1        8.451   3.328  -2.171  0.00  0.00    +0.000 A 
ATOM     30  C   LIG    1        7.175   3.526  -1.689  0.00  0.00    +0.040 A 
ATOM     31  C   LIG    1        5.406   4.611   2.969  0.00  0.00    +0.150 C 
ATOM     32  C   LIG    1        6.985   3.811  -0.340  0.00  0.00    -0.060 A 
ENDBRANCH  20  22
ENDBRANCH  18  20
ENDBRANCH  17  18
ENDBRANCH   2  17
TORSDOF 8
