REMARK  Name = ZINCpk00000kPRPS.0
REMARK                            x       y       z     vdW  Elec       q    Type
REMARK                         _______ _______ _______ _____ _____    ______ ____
ROOT
ATOM      1  C   LIG    1        7.894  -0.626  -4.093  0.00  0.00    +0.570 C 
ATOM      2  N   LIG    1        7.253  -0.449  -2.921  0.00  0.00    -0.720 N 
ATOM      3  H   LIG    1        7.694  -0.679  -2.088  0.00  0.00    +0.400 HD
ATOM      4  O   LIG    1        7.341  -0.338  -5.138  0.00  0.00    -0.510 OA
ENDROOT
BRANCH   1   9
ATOM      5  C   LIG    1       11.951  -1.996  -7.763  0.00  0.00    +0.160 C 
ATOM      6  C   LIG    1       12.154  -2.173  -6.280  0.00  0.00    +0.050 A 
ATOM      7  C   LIG    1       11.237  -1.875  -5.286  0.00  0.00    -0.030 A 
ATOM      8  C   LIG    1        9.933  -1.356  -5.309  0.00  0.00    +0.180 A 
ATOM      9  C   LIG    1        9.263  -1.169  -4.110  0.00  0.00    -0.170 A 
ATOM     10  C   LIG    1        9.945  -1.515  -2.859  0.00  0.00    +0.040 A 
ATOM     11  C   LIG    1       11.190  -2.014  -2.894  0.00  0.00    +0.220 A 
ATOM     12  N   LIG    1       11.846  -2.195  -4.088  0.00  0.00    -0.370 N 
ATOM     13  C   LIG    1       13.075  -2.663  -4.386  0.00  0.00    +0.390 A 
ATOM     14  N   LIG    1       13.247  -2.645  -5.685  0.00  0.00    -0.460 NA
ENDBRANCH   1   9
BRANCH   2  15
ATOM     15  C   LIG    1        5.891   0.090  -2.904  0.00  0.00    +0.260 C 
ATOM     16  C   LIG    1        5.565   0.698  -1.516  0.00  0.00    +0.050 C 
ATOM     17  C   LIG    1        4.018   0.639  -1.474  0.00  0.00    -0.010 C 
ATOM     18  C   LIG    1        3.668  -0.695  -2.166  0.00  0.00    +0.000 C 
ATOM     19  C   LIG    1        4.860  -1.044  -3.075  0.00  0.00    +0.150 C 
BRANCH  19  20
ATOM     20  O   LIG    1        4.432  -1.115  -4.436  0.00  0.00    -0.550 OA
ATOM     21  H   LIG    1        3.766  -1.796  -4.604  0.00  0.00    +0.380 HD
ENDBRANCH  19  20
BRANCH  17  22
ATOM     22  C   LIG    1        3.521   0.638  -0.027  0.00  0.00    +0.310 C 
BRANCH  22  23
ATOM     23  N   LIG    1        2.056   0.658  -0.014  0.00  0.00    -0.460 N 
ATOM     24  C   LIG    1        1.259   1.771  -0.000  0.00  0.00    +0.110 A 
ATOM     25  C   LIG    1       -0.016   1.337   0.009  0.00  0.00    +0.140 A 
ATOM     26  N   LIG    1        0.002  -0.004   0.002  0.00  0.00    -0.490 NA
ATOM     27  C   LIG    1        1.240  -0.418  -0.012  0.00  0.00    +0.380 A 
ENDBRANCH  22  23
ENDBRANCH  17  22
ENDBRANCH   2  15
TORSDOF 5
