REMARK  Name = ZINCnE000001U3UM.0
REMARK                            x       y       z     vdW  Elec       q    Type
REMARK                         _______ _______ _______ _____ _____    ______ ____
ROOT
ATOM      1  O   LIG    1        5.013   0.372   0.143  0.00  0.00    -0.510 OA
ATOM      2  C   LIG    1        4.802   1.564   0.060  0.00  0.00    +0.530 C 
ATOM      3  C   LIG    1        5.872   2.633   0.033  0.00  0.00    +0.200 C 
ATOM      4  C   LIG    1        5.108   3.942   0.342  0.00  0.00    +0.040 C 
ATOM      5  C   LIG    1        3.677   3.587  -0.126  0.00  0.00    +0.270 C 
ATOM      6  N   LIG    1        3.584   2.127  -0.021  0.00  0.00    -0.560 N 
ENDROOT
BRANCH   6   7
ATOM      7  C   LIG    1        2.381   1.411  -0.013  0.00  0.00    +0.200 A 
ATOM      8  C   LIG    1        1.169   2.087   0.018  0.00  0.00    -0.010 A 
ATOM      9  C   LIG    1       -0.017   1.379   0.025  0.00  0.00    +0.070 A 
ATOM     10  C   LIG    1        0.002  -0.004   0.002  0.00  0.00    -0.070 A 
ATOM     11  C   LIG    1        1.210  -0.682  -0.029  0.00  0.00    +0.000 A 
ATOM     12 CL   LIG    1        1.229  -2.418  -0.057  0.00  0.00    -0.050 Cl
ATOM     13 CL   LIG    1       -1.490  -0.891   0.011  0.00  0.00    -0.060 Cl
ATOM     14  C   LIG    1        2.398   0.022  -0.036  0.00  0.00    +0.020 A 
ENDBRANCH   6   7
BRANCH   3  15
ATOM     15  N   LIG    1        6.495   2.701  -1.291  0.00  0.00    -0.670 NA
ATOM     16  C   LIG    1        7.783   2.517  -1.418  0.00  0.00    +0.450 A 
ATOM     17  N   LIG    1        8.672   2.251  -0.410  0.00  0.00    -0.530 NA
ATOM     18  N   LIG    1        9.933   2.130  -1.014  0.00  0.00    -0.300 NA
ATOM     19  C   LIG    1        9.788   2.311  -2.284  0.00  0.00    +0.120 A 
ATOM     20  O   LIG    1        8.490   2.544  -2.566  0.00  0.00    -0.290 OA
BRANCH  19  21
ATOM     21  C   LIG    1       10.901   2.265  -3.299  0.00  0.00    +0.070 C 
ATOM     22  C   LIG    1       11.923   1.133  -3.175  0.00  0.00    +0.040 C 
ATOM     23  C   LIG    1       12.318   2.565  -2.807  0.00  0.00    +0.040 C 
ENDBRANCH  19  21
ENDBRANCH   3  15
TORSDOF 3
