REMARK  Name = ZINCpk000000mQ4x.0
REMARK                            x       y       z     vdW  Elec       q    Type
REMARK                         _______ _______ _______ _____ _____    ______ ____
ROOT
ATOM      1  C   LIG    1       -5.723   7.376   0.562  0.00  0.00    +0.240 C 
ATOM      2  C   LIG    1       -4.376   7.857   0.017  0.00  0.00    +0.010 C 
ATOM      3  C   LIG    1       -4.027   7.061  -1.245  0.00  0.00    +0.280 C 
ATOM      4  N   LIG    1       -4.072   5.627  -0.927  0.00  0.00    -0.610 N 
ATOM      5  C   LIG    1       -5.291   5.076  -0.319  0.00  0.00    +0.290 C 
ATOM      6  C   LIG    1       -3.017   4.832  -1.193  0.00  0.00    +0.570 C 
ATOM      7  O   LIG    1       -3.092   3.635  -0.990  0.00  0.00    -0.520 OA
ATOM      8  C   LIG    1       -5.624   5.896   0.937  0.00  0.00    +0.010 C 
ENDROOT
BRANCH   6   9
ATOM      9  C   LIG    1       -1.772   5.413  -1.730  0.00  0.00    -0.120 A 
ATOM     10  C   LIG    1       -1.811   6.232  -2.858  0.00  0.00    +0.060 A 
ATOM     11  C   LIG    1       -0.646   6.774  -3.358  0.00  0.00    +0.030 A 
ATOM     12  C   LIG    1        0.567   6.519  -2.741  0.00  0.00    +0.040 A 
ATOM     13  C   LIG    1        0.620   5.717  -1.614  0.00  0.00    +0.090 A 
ATOM     14  N   LIG    1        1.842   5.454  -0.979  0.00  0.00    -0.660 N 
ATOM     15  H   LIG    1        2.625   5.993  -1.173  0.00  0.00    +0.420 HD
ATOM     16  C   LIG    1        1.912   4.440  -0.088  0.00  0.00    +0.490 C 
ATOM     17  O   LIG    1        2.949   4.215   0.499  0.00  0.00    -0.500 OA
ATOM     18  C   LIG    1        0.694   3.590   0.172  0.00  0.00    +0.190 C 
ATOM     19  C   LIG    1        0.748   3.048   1.602  0.00  0.00    +0.100 C 
ATOM     20  O   LIG    1       -0.487   4.378   0.006  0.00  0.00    -0.290 OA
ATOM     21  C   LIG    1       -0.549   5.159  -1.102  0.00  0.00    +0.130 A 
ENDBRANCH   6   9
BRANCH   1  24
ATOM     22  C   LIG    1       -7.509   9.791   2.932  0.00  0.00    +0.090 C 
ATOM     23  C   LIG    1       -7.210   8.885   1.765  0.00  0.00    +0.510 C 
ATOM     24  N   LIG    1       -6.076   8.158   1.750  0.00  0.00    -0.620 N 
ATOM     25  C   LIG    1       -5.196   8.148   2.921  0.00  0.00    +0.280 C 
ATOM     26  O   LIG    1       -7.991   8.812   0.840  0.00  0.00    -0.540 OA
ENDBRANCH   1  24
TORSDOF 2
