REMARK  Name = ZINCrH000004tPoH.0
REMARK                            x       y       z     vdW  Elec       q    Type
REMARK                         _______ _______ _______ _____ _____    ______ ____
ROOT
ATOM      1  O   LIG    1        5.388  -1.994   1.296  0.00  0.00    -0.510 OA
ATOM      2  C   LIG    1        5.025  -0.855   1.091  0.00  0.00    +0.530 C 
ATOM      3  N   LIG    1        4.016  -0.614   0.230  0.00  0.00    -0.610 N 
ATOM      4  C   LIG    1        3.342  -1.718  -0.469  0.00  0.00    +0.310 C 
ATOM      5  C   LIG    1        1.877  -1.779  -0.017  0.00  0.00    +0.120 C 
ATOM      6  C   LIG    1        1.313  -0.383  -0.011  0.00  0.00    -0.000 A 
ATOM      7  C   LIG    1        2.050   0.748  -0.014  0.00  0.00    -0.020 A 
ATOM      8  N   LIG    1        1.217   1.791   0.000  0.00  0.00    -0.470 NA
ATOM      9  C   LIG    1       -0.016   1.356   0.009  0.00  0.00    +0.400 A 
ATOM     10  N   LIG    1        0.002  -0.004   0.002  0.00  0.00    -0.410 N 
ATOM     11  C   LIG    1        3.561   0.763  -0.033  0.00  0.00    +0.390 C 
ENDROOT
BRANCH  10  12
ATOM     12  C   LIG    1       -1.114  -0.855   0.008  0.00  0.00    +0.100 A 
ATOM     13  C   LIG    1       -1.209  -1.882  -0.921  0.00  0.00    +0.060 A 
ATOM     14  C   LIG    1       -2.306  -2.722  -0.910  0.00  0.00    +0.020 A 
ATOM     15  C   LIG    1       -3.315  -2.532   0.018  0.00  0.00    +0.110 A 
ATOM     16  C   LIG    1       -3.224  -1.505   0.942  0.00  0.00    +0.020 A 
ATOM     17  F   LIG    1       -4.390  -3.351   0.023  0.00  0.00    -0.130 F 
ATOM     18  C   LIG    1       -2.126  -0.666   0.939  0.00  0.00    +0.060 A 
ENDBRANCH  10  12
BRANCH   2  19
ATOM     19  C   LIG    1        5.702   0.291   1.797  0.00  0.00    +0.240 C 
BRANCH  19  20
ATOM     20  O   LIG    1        6.731  -0.216   2.649  0.00  0.00    -0.290 OA
BRANCH  20  21
ATOM     21  C   LIG    1        7.445   0.693   3.364  0.00  0.00    +0.140 A 
ATOM     22  C   LIG    1        7.164   2.046   3.243  0.00  0.00    -0.070 A 
ATOM     23  C   LIG    1        7.887   2.969   3.974  0.00  0.00    +0.090 A 
ATOM     24  C   LIG    1        8.898   2.545   4.818  0.00  0.00    -0.130 A 
ATOM     25  C   LIG    1        9.184   1.196   4.936  0.00  0.00    +0.090 A 
ATOM     26 BR   LIG    1        9.891   3.810   5.812  0.00  0.00    -0.050 Br
ATOM     27  C   LIG    1        8.459   0.270   4.210  0.00  0.00    +0.000 A 
ENDBRANCH  20  21
ENDBRANCH  19  20
ENDBRANCH   2  19
TORSDOF 4
