REMARK  Name = ZINCrH000004v0ch.0
REMARK                            x       y       z     vdW  Elec       q    Type
REMARK                         _______ _______ _______ _____ _____    ______ ____
ROOT
ATOM      1  C   LIG    1       -4.820   1.127   0.537  0.00  0.00    -0.150 A 
ATOM      2  C   LIG    1       -4.826  -0.231   0.217  0.00  0.00    +0.110 A 
ATOM      3  C   LIG    1       -5.995  -0.956   0.320  0.00  0.00    +0.000 A 
ATOM      4  C   LIG    1       -7.160  -0.339   0.739  0.00  0.00    +0.160 A 
ATOM      5  C   LIG    1       -7.162   1.008   1.058  0.00  0.00    -0.690 A 
ATOM      6  C   LIG    1       -5.998   1.743   0.965  0.00  0.00    +0.190 A 
ENDROOT
BRANCH   1   8
ATOM      7  O   LIG    1       -3.569   3.093   0.708  0.00  0.00    -0.510 OA
ATOM      8  C   LIG    1       -3.571   1.910   0.429  0.00  0.00    +0.570 C 
ATOM      9  N   LIG    1       -2.434   1.312   0.021  0.00  0.00    -0.680 N 
ATOM     10  H   LIG    1       -2.451   0.388  -0.274  0.00  0.00    +0.410 HD
BRANCH   9  11
ATOM     11  C   LIG    1       -1.228   2.025   0.023  0.00  0.00    +0.060 A 
ATOM     12  C   LIG    1       -0.803   2.679  -1.128  0.00  0.00    +0.140 A 
ATOM     13  C   LIG    1        0.386   3.386  -1.120  0.00  0.00    -0.010 A 
ATOM     14  C   LIG    1        1.154   3.438   0.028  0.00  0.00    +0.100 A 
ATOM     15  C   LIG    1        0.738   2.785   1.173  0.00  0.00    -0.010 A 
ATOM     16  F   LIG    1       -1.553   2.628  -2.250  0.00  0.00    -0.120 F 
ATOM     17  C   LIG    1       -0.450   2.075   1.174  0.00  0.00    +0.140 A 
ATOM     18  F   LIG    1       -0.856   1.437   2.293  0.00  0.00    -0.120 F 
ENDBRANCH   9  11
ENDBRANCH   1   8
BRANCH   5  19
ATOM     19  S   LIG    1       -8.651   1.784   1.591  0.00  0.00    +2.680 S 
ATOM     20  O   LIG    1       -9.719   0.996   1.081  0.00  0.00    -0.950 OA
ATOM     21  O   LIG    1       -8.505   3.169   1.310  0.00  0.00    -0.950 OA
BRANCH  19  22
ATOM     22  N   LIG    1       -8.714   1.645   3.240  0.00  0.00    -0.990 NA
ATOM     23  C   LIG    1       -9.361   0.486   3.813  0.00  0.00    +0.280 C 
ATOM     24  C   LIG    1      -10.865   0.770   4.014  0.00  0.00    +0.010 C 
ATOM     25  C   LIG    1      -11.061   1.728   5.113  0.00  0.00    +0.000 C 
ATOM     26  C   LIG    1      -10.445   3.102   4.867  0.00  0.00    +0.010 C 
ATOM     27  C   LIG    1       -8.991   3.078   5.272  0.00  0.00    +0.030 C 
ATOM     28  C   LIG    1       -8.111   2.712   4.063  0.00  0.00    +0.280 C 
ENDBRANCH  19  22
ENDBRANCH   5  19
TORSDOF 4
