REMARK  Name = ZINCpe000000WqXN.1
REMARK                            x       y       z     vdW  Elec       q    Type
REMARK                         _______ _______ _______ _____ _____    ______ ____
ROOT
ATOM      1  N   LIG    1        1.151   2.151   0.318  0.00  0.00    -0.560 N 
ATOM      2  C   LIG    1        0.748   3.560   0.245  0.00  0.00    +0.300 C 
ATOM      3  C   LIG    1       -0.746   3.583   0.636  0.00  0.00    -0.010 C 
ATOM      4  C   LIG    1       -1.192   2.151   0.253  0.00  0.00    +0.080 C 
ATOM      5  C   LIG    1        0.081   1.337   0.321  0.00  0.00    +0.530 C 
ATOM      6  O   LIG    1        0.130   0.126   0.367  0.00  0.00    -0.520 OA
ENDROOT
BRANCH   3   7
ATOM      7  C   LIG    1       -1.499   4.612  -0.167  0.00  0.00    +0.530 C 
ATOM      8  N   LIG    1       -2.821   4.785   0.028  0.00  0.00    -0.610 N 
ATOM      9  C   LIG    1       -3.572   3.903   0.935  0.00  0.00    +0.270 C 
ATOM     10  C   LIG    1       -4.364   4.774   1.915  0.00  0.00    +0.170 C 
ATOM     11  N   LIG    1       -5.183   5.733   1.162  0.00  0.00    -0.690 NA
ATOM     12  H   LIG    1       -5.803   6.239   1.776  0.00  0.00    +0.350 HD
ATOM     13  C   LIG    1       -4.345   6.655   0.384  0.00  0.00    +0.180 C 
ATOM     14  C   LIG    1       -3.550   5.865  -0.654  0.00  0.00    +0.230 C 
ATOM     15  C   LIG    1       -2.556   6.794  -1.354  0.00  0.00    +0.050 C 
ATOM     16  O   LIG    1       -0.914   5.285  -0.990  0.00  0.00    -0.520 OA
ENDBRANCH   3   7
BRANCH   1  20
ATOM     17  C   LIG    1        5.110   0.838   0.490  0.00  0.00    +0.180 A 
ATOM     18  C   LIG    1        4.485   1.005  -0.737  0.00  0.00    -0.100 A 
ATOM     19  C   LIG    1        3.175   1.439  -0.794  0.00  0.00    +0.110 A 
ATOM     20  C   LIG    1        2.481   1.710   0.376  0.00  0.00    +0.070 A 
ATOM     21  C   LIG    1        3.109   1.548   1.609  0.00  0.00    +0.180 A 
ATOM     22  C   LIG    1        4.420   1.107   1.663  0.00  0.00    -0.100 A 
BRANCH  17  24
ATOM     23  C   LIG    1        7.049   0.153  -0.703  0.00  0.00    +0.240 C 
ATOM     24  O   LIG    1        6.400   0.411   0.543  0.00  0.00    -0.310 OA
ENDBRANCH  17  24
BRANCH  21  25
ATOM     25  O   LIG    1        2.433   1.818   2.758  0.00  0.00    -0.300 OA
ATOM     26  C   LIG    1        3.140   1.630   3.986  0.00  0.00    +0.240 C 
ENDBRANCH  21  25
ENDBRANCH   1  20
TORSDOF 4
