REMARK  Name = ZINCpe00000FUnCT.0
REMARK                            x       y       z     vdW  Elec       q    Type
REMARK                         _______ _______ _______ _____ _____    ______ ____
ROOT
ATOM      1  C   LIG    1       -3.554  -2.123   0.024  0.00  0.00    -0.670 A 
ATOM      2  C   LIG    1       -3.577  -0.739   0.032  0.00  0.00    +0.200 A 
ATOM      3  C   LIG    1       -2.395  -0.027   0.025  0.00  0.00    +0.040 A 
ATOM      4  C   LIG    1       -1.175  -0.705   0.009  0.00  0.00    +0.160 A 
ATOM      5  C   LIG    1       -1.160  -2.102  -0.004  0.00  0.00    -0.020 A 
ATOM      6  C   LIG    1       -2.349  -2.801   0.009  0.00  0.00    +0.230 A 
ENDROOT
BRANCH   1   7
ATOM      7  S   LIG    1       -5.068  -3.024   0.034  0.00  0.00    +2.710 S 
ATOM      8  O   LIG    1       -6.047  -2.159   0.593  0.00  0.00    -0.940 OA
ATOM      9  O   LIG    1       -4.768  -4.306   0.568  0.00  0.00    -0.950 OA
BRANCH   7  10
ATOM     10  N   LIG    1       -5.505  -3.266  -1.545  0.00  0.00    -1.240 NA
ATOM     11  H   LIG    1       -5.253  -2.619  -2.223  0.00  0.00    +0.420 HD
ATOM     12  H   LIG    1       -6.013  -4.055  -1.792  0.00  0.00    +0.430 HD
ENDBRANCH   7  10
ENDBRANCH   1   7
BRANCH   5  13
ATOM     13  N   LIG    1        0.129  -2.829  -0.026  0.00  0.00    +0.020 N 
ATOM     14  O   LIG    1        1.178  -2.210  -0.033  0.00  0.00    -0.110 OA
ATOM     15  O   LIG    1        0.140  -4.047  -0.038  0.00  0.00    -0.170 OA
ENDBRANCH   5  13
BRANCH   4  16
ATOM     16  N   LIG    1        0.002  -0.004   0.002  0.00  0.00    -0.200 NA
ATOM     17  N   LIG    1       -0.015   1.236   0.009  0.00  0.00    -0.170 NA
BRANCH  17  18
ATOM     18  C   LIG    1        1.244   1.986   0.001  0.00  0.00    +0.290 C 
BRANCH  18  19
ATOM     19  C   LIG    1        1.300   2.860  -1.226  0.00  0.00    -0.110 A 
ATOM     20  C   LIG    1        2.030   2.456  -2.328  0.00  0.00    +0.060 A 
ATOM     21  C   LIG    1        2.084   3.254  -3.455  0.00  0.00    +0.000 A 
ATOM     22  C   LIG    1        1.407   4.463  -3.485  0.00  0.00    +0.110 A 
ATOM     23  C   LIG    1        0.672   4.873  -2.378  0.00  0.00    +0.050 A 
ATOM     24  C   LIG    1        0.615   4.065  -1.249  0.00  0.00    +0.130 A 
BRANCH  23  25
ATOM     25  O   LIG    1        0.005   6.059  -2.403  0.00  0.00    -0.480 OA
ATOM     26  H   LIG    1       -0.901   5.994  -2.733  0.00  0.00    +0.390 HD
ENDBRANCH  23  25
BRANCH  22  27
ATOM     27  O   LIG    1        1.461   5.247  -4.594  0.00  0.00    -0.480 OA
ATOM     28  H   LIG    1        0.763   5.066  -5.239  0.00  0.00    +0.390 HD
ENDBRANCH  22  27
BRANCH  24  29
ATOM     29  O   LIG    1       -0.107   4.459  -0.166  0.00  0.00    -0.480 OA
ATOM     30  H   LIG    1        0.396   4.983   0.473  0.00  0.00    +0.400 HD
ENDBRANCH  24  29
ENDBRANCH  18  19
ENDBRANCH  17  18
ENDBRANCH   4  16
TORSDOF 9
