REMARK  Name = ZINCqH00000054GY.1
REMARK                            x       y       z     vdW  Elec       q    Type
REMARK                         _______ _______ _______ _____ _____    ______ ____
ROOT
ATOM      1  N   LIG    1        1.432  -4.175  -0.857  0.00  0.00    -0.720 N 
ATOM      2  H   LIG    1        1.759  -4.446   0.015  0.00  0.00    +0.400 HD
ATOM      3  C   LIG    1        1.242  -5.096  -1.823  0.00  0.00    +0.520 C 
ATOM      4  O   LIG    1        0.834  -4.757  -2.913  0.00  0.00    -0.500 OA
ENDROOT
BRANCH   1   5
ATOM      5  C   LIG    1        1.145  -2.764  -1.125  0.00  0.00    +0.290 C 
BRANCH   5   6
ATOM      6  C   LIG    1        1.565  -1.920   0.080  0.00  0.00    +0.200 C 
BRANCH   6   7
ATOM      7  C   LIG    1        3.056  -2.026   0.272  0.00  0.00    -0.110 A 
ATOM      8  C   LIG    1        3.925  -1.322  -0.454  0.00  0.00    +0.000 A 
ATOM      9  S   LIG    1        5.565  -1.707   0.052  0.00  0.00    +0.100 S 
ATOM     10  C   LIG    1        4.960  -2.837   1.257  0.00  0.00    -0.050 A 
ATOM     11  C   LIG    1        3.627  -2.862   1.216  0.00  0.00    +0.000 A 
ENDBRANCH   6   7
BRANCH   6  13
ATOM     12  C   LIG    1       -0.219  -0.393  -0.510  0.00  0.00    +0.200 C 
ATOM     13  N   LIG    1        1.200  -0.516  -0.154  0.00  0.00    -0.530 NA
ATOM     14  C   LIG    1        1.524   0.314   1.014  0.00  0.00    +0.190 C 
ENDBRANCH   6  13
ENDBRANCH   5   6
ENDBRANCH   1   5
BRANCH   3  15
ATOM     15  C   LIG    1        1.538  -6.548  -1.547  0.00  0.00    +0.230 C 
BRANCH  15  16
ATOM     16  O   LIG    1        1.260  -7.321  -2.716  0.00  0.00    -0.260 OA
BRANCH  16  17
ATOM     17  C   LIG    1        1.475  -8.660  -2.636  0.00  0.00    +0.170 A 
ATOM     18  C   LIG    1        1.942  -9.212  -1.477  0.00  0.00    -0.070 A 
ATOM     19  C   LIG    1        2.163 -10.583  -1.373  0.00  0.00    +0.080 A 
ATOM     20  C   LIG    1        1.930 -11.412  -2.430  0.00  0.00    -0.060 A 
ATOM     21  C   LIG    1        1.455 -10.880  -3.641  0.00  0.00    -0.060 A 
ATOM     22  C   LIG    1        1.202 -11.703  -4.753  0.00  0.00    +0.080 A 
ATOM     23  C   LIG    1        0.742 -11.117  -5.898  0.00  0.00    +0.000 A 
ATOM     24  C   LIG    1        0.535  -9.740  -5.939  0.00  0.00    +0.300 A 
ATOM     25  N   LIG    1        0.771  -8.976  -4.900  0.00  0.00    -0.440 NA
ATOM     26 CL   LIG    1        2.219 -13.117  -2.280  0.00  0.00    -0.060 Cl
ATOM     27  C   LIG    1        1.222  -9.487  -3.751  0.00  0.00    +0.120 A 
ENDBRANCH  16  17
ENDBRANCH  15  16
ENDBRANCH   3  15
TORSDOF 7
