REMARK  Name = ZINCtV00001bB3zF.0
REMARK                            x       y       z     vdW  Elec       q    Type
REMARK                         _______ _______ _______ _____ _____    ______ ____
ROOT
ATOM      1  C   LIG    1       -1.218   1.641   0.017  0.00  0.00    +0.580 A 
ATOM      2  N   LIG    1       -1.195   2.959   0.024  0.00  0.00    -0.570 NA
ATOM      3  C   LIG    1       -2.331   3.671   0.033  0.00  0.00    +0.210 A 
ATOM      4  C   LIG    1       -2.332   5.072   0.040  0.00  0.00    +0.020 A 
ATOM      5  C   LIG    1       -3.519   5.744   0.049  0.00  0.00    +0.060 A 
ATOM      6  C   LIG    1       -4.731   5.061   0.051  0.00  0.00    -0.010 A 
ATOM      7  C   LIG    1       -4.765   3.696   0.044  0.00  0.00    +0.060 A 
ATOM      8  C   LIG    1       -3.568   2.979   0.035  0.00  0.00    -0.200 A 
ATOM      9  C   LIG    1       -3.533   1.515   0.027  0.00  0.00    +0.340 A 
ATOM     10  N   LIG    1       -2.338   0.927   0.013  0.00  0.00    -0.550 NA
ENDROOT
BRANCH   9  11
ATOM     11  C   LIG    1       -4.771   0.724   0.029  0.00  0.00    -0.180 A 
ATOM     12  C   LIG    1       -4.946  -0.464  -0.621  0.00  0.00    +0.090 A 
ATOM     13  C   LIG    1       -6.189  -1.021  -0.470  0.00  0.00    +0.020 A 
ATOM     14  C   LIG    1       -7.052  -0.295   0.295  0.00  0.00    -0.140 A 
ATOM     15  S   LIG    1       -6.254   1.166   0.863  0.00  0.00    +0.200 S 
BRANCH  14  16
ATOM     16  C   LIG    1       -8.445  -0.677   0.602  0.00  0.00    -0.020 A 
ATOM     17  C   LIG    1       -8.976  -1.863   0.090  0.00  0.00    +0.050 A 
ATOM     18  C   LIG    1      -10.276  -2.216   0.384  0.00  0.00    +0.040 A 
ATOM     19  C   LIG    1      -11.058  -1.393   1.177  0.00  0.00    -0.030 A 
ATOM     20  C   LIG    1      -10.540  -0.213   1.683  0.00  0.00    +0.040 A 
ATOM     21 CL   LIG    1      -12.696  -1.843   1.537  0.00  0.00    -0.060 Cl
ATOM     22  C   LIG    1       -9.239   0.149   1.401  0.00  0.00    +0.030 A 
ENDBRANCH  14  16
ENDBRANCH   9  11
BRANCH   1  23
ATOM     23  N   LIG    1       -0.011   0.966   0.007  0.00  0.00    -0.690 N 
ATOM     24  H   LIG    1        0.002  -0.004   0.002  0.00  0.00    +0.410 HD
BRANCH  23  26
ATOM     25  C   LIG    1        1.635   2.077   1.435  0.00  0.00    +0.020 C 
ATOM     26  C   LIG    1        1.248   1.716  -0.001  0.00  0.00    +0.270 C 
BRANCH  26  27
ATOM     27  C   LIG    1        2.349   0.857  -0.625  0.00  0.00    -0.020 C 
ATOM     28  C   LIG    1        1.961   0.495  -2.061  0.00  0.00    +0.030 C 
BRANCH  27  29
ATOM     29  C   LIG    1        3.663   1.640  -0.634  0.00  0.00    +0.180 C 
BRANCH  29  30
ATOM     30  O   LIG    1        4.716   0.798  -1.109  0.00  0.00    -0.570 OA
ATOM     31  H   LIG    1        5.580   1.230  -1.141  0.00  0.00    +0.380 HD
ENDBRANCH  29  30
ENDBRANCH  27  29
ENDBRANCH  26  27
ENDBRANCH  23  26
ENDBRANCH   1  23
TORSDOF 7
