REMARK  Name = ZINCkj000018RB46.0
REMARK                            x       y       z     vdW  Elec       q    Type
REMARK                         _______ _______ _______ _____ _____    ______ ____
ROOT
ATOM      1  C   LIG    1        0.002  -0.004   0.002  0.00  0.00    +0.180 A 
ATOM      2  N   LIG    1       -0.015   1.295   0.009  0.00  0.00    -0.350 NA
ATOM      3  O   LIG    1        1.117   1.731   0.001  0.00  0.00    +0.110 OA
ATOM      4  C   LIG    1        1.990   0.720  -0.013  0.00  0.00    +0.130 A 
ATOM      5  N   LIG    1        1.291  -0.389  -0.012  0.00  0.00    -0.470 NA
ENDROOT
BRANCH   1   6
ATOM      6  C   LIG    1       -1.200  -0.912   0.009  0.00  0.00    +0.180 C 
BRANCH   6   7
ATOM      7  C   LIG    1       -1.621  -1.213  -1.432  0.00  0.00    +0.080 C 
BRANCH   7  11
ATOM      8  C   LIG    1       -5.029  -3.787  -1.413  0.00  0.00    +0.020 A 
ATOM      9  C   LIG    1       -5.199  -2.416  -1.404  0.00  0.00    +0.020 A 
ATOM     10  C   LIG    1       -4.096  -1.582  -1.410  0.00  0.00    +0.010 A 
ATOM     11  C   LIG    1       -2.823  -2.121  -1.425  0.00  0.00    -0.100 A 
ATOM     12  C   LIG    1       -2.653  -3.493  -1.439  0.00  0.00    +0.010 A 
ATOM     13  C   LIG    1       -3.756  -4.326  -1.429  0.00  0.00    +0.010 A 
ENDBRANCH   7  11
ENDBRANCH   6   7
ENDBRANCH   1   6
BRANCH   4  14
ATOM     14  C   LIG    1        3.493   0.832  -0.026  0.00  0.00    +0.260 C 
BRANCH  14  15
ATOM     15  C   LIG    1        3.989   0.878  -1.473  0.00  0.00    +0.150 C 
ATOM     16  C   LIG    1        5.501   1.115  -1.488  0.00  0.00    +0.280 C 
ATOM     17  O   LIG    1        5.967   1.101  -2.840  0.00  0.00    -0.350 OA
ATOM     18  C   LIG    1        5.677  -0.115  -3.535  0.00  0.00    +0.270 C 
ATOM     19  C   LIG    1        4.165  -0.354  -3.524  0.00  0.00    +0.250 C 
ATOM     20  N   LIG    1        3.689  -0.400  -2.135  0.00  0.00    -0.510 N 
ATOM     21  H   LIG    1        2.692  -0.558  -2.125  0.00  0.00    +0.430 HD
ATOM     22  H   LIG    1        4.153  -1.149  -1.644  0.00  0.00    +0.430 HD
ENDBRANCH  14  15
ENDBRANCH   4  14
TORSDOF 5
