REMARK  Name = ZINCrH000004oBat.0
REMARK                            x       y       z     vdW  Elec       q    Type
REMARK                         _______ _______ _______ _____ _____    ______ ____
ROOT
ATOM      1  C   LIG    1       -0.013   1.086   0.008  0.00  0.00    +0.070 C 
ATOM      2  C   LIG    1       -0.729   1.579   1.267  0.00  0.00    +0.030 C 
ATOM      3  C   LIG    1       -0.763   3.100   1.264  0.00  0.00    +0.030 C 
ATOM      4  C   LIG    1       -1.654   3.729   2.301  0.00  0.00    +0.300 C 
ATOM      5  N   LIG    1       -1.138   3.500   3.659  0.00  0.00    -0.570 N 
ATOM      6  C   LIG    1       -1.558   2.353   4.346  0.00  0.00    +0.160 A 
ATOM      7  C   LIG    1       -2.503   2.469   5.359  0.00  0.00    +0.010 A 
ATOM      8  C   LIG    1       -2.998   1.330   5.968  0.00  0.00    +0.040 A 
ATOM      9  C   LIG    1       -2.561   0.076   5.583  0.00  0.00    +0.010 A 
ATOM     10  C   LIG    1       -1.603  -0.047   4.589  0.00  0.00    +0.080 A 
ATOM     11  C   LIG    1       -1.103   1.092   3.989  0.00  0.00    -0.100 A 
ATOM     12  C   LIG    1       -0.282   4.372   4.229  0.00  0.00    +0.530 C 
ATOM     13  O   LIG    1        0.072   5.360   3.620  0.00  0.00    -0.510 OA
ATOM     14  S   LIG    1        0.152   0.976   2.736  0.00  0.00    -0.150 S 
ENDROOT
BRANCH  12  15
ATOM     15  C   LIG    1        0.236   4.119   5.621  0.00  0.00    +0.210 C 
BRANCH  15  16
ATOM     16  N   LIG    1        1.145   5.205   6.011  0.00  0.00    -0.520 NA
ATOM     17  C   LIG    1        2.360   5.197   5.183  0.00  0.00    +0.190 C 
ATOM     18  C   LIG    1        3.242   6.388   5.565  0.00  0.00    +0.180 C 
ATOM     19  N   LIG    1        3.581   6.305   6.992  0.00  0.00    -0.540 NA
ATOM     20  C   LIG    1        2.366   6.312   7.820  0.00  0.00    +0.190 C 
ATOM     21  C   LIG    1        1.484   5.122   7.438  0.00  0.00    +0.180 C 
BRANCH  19  22
ATOM     22  C   LIG    1        4.490   7.391   7.382  0.00  0.00    +0.240 C 
BRANCH  22  23
ATOM     23  C   LIG    1        5.816   7.207   6.691  0.00  0.00    -0.100 A 
ATOM     24  C   LIG    1        6.816   6.508   7.230  0.00  0.00    -0.030 A 
ATOM     25  S   LIG    1        8.195   6.512   6.138  0.00  0.00    +0.090 S 
ATOM     26  C   LIG    1        7.314   7.499   4.980  0.00  0.00    -0.050 A 
ATOM     27  C   LIG    1        6.092   7.757   5.450  0.00  0.00    +0.010 A 
ENDBRANCH  22  23
ENDBRANCH  19  22
ENDBRANCH  15  16
ENDBRANCH  12  15
TORSDOF 4
