REMARK  Name = ZINCrg000000oju4.0
REMARK                            x       y       z     vdW  Elec       q    Type
REMARK                         _______ _______ _______ _____ _____    ______ ____
ROOT
ATOM      1  N   LIG    1        8.247   0.328   1.881  0.00  0.00    -0.610 N 
ATOM      2  C   LIG    1        7.375   0.237   0.857  0.00  0.00    +0.530 C 
ATOM      3  O   LIG    1        7.667   0.688  -0.230  0.00  0.00    -0.530 OA
ATOM      4  C   LIG    1        7.945  -0.321   3.159  0.00  0.00    +0.280 C 
ENDROOT
BRANCH   2   5
ATOM      5  C   LIG    1        6.037  -0.426   1.062  0.00  0.00    -0.010 C 
ATOM      6  C   LIG    1        4.989   0.589   1.573  0.00  0.00    +0.080 C 
ATOM      7  C   LIG    1        3.707   0.182   0.880  0.00  0.00    +0.520 C 
ATOM      8  N   LIG    1        3.979  -0.639  -0.149  0.00  0.00    -0.610 N 
ATOM      9  O   LIG    1        2.596   0.541   1.208  0.00  0.00    -0.510 OA
ATOM     10  C   LIG    1        5.423  -0.862  -0.287  0.00  0.00    +0.300 C 
BRANCH   8  11
ATOM     11  C   LIG    1        2.964  -1.229  -1.026  0.00  0.00    +0.290 C 
ATOM     12  C   LIG    1        2.005  -2.098  -0.194  0.00  0.00    +0.060 C 
ATOM     13  C   LIG    1        0.787  -2.409  -1.103  0.00  0.00    -0.310 C 
ATOM     14  S   LIG    1        0.471  -0.795  -1.911  0.00  0.00    +2.400 S 
ATOM     15  O   LIG    1       -0.444  -0.045  -1.124  0.00  0.00    -0.920 OA
ATOM     16  O   LIG    1        0.214  -1.003  -3.293  0.00  0.00    -0.930 OA
ATOM     17  C   LIG    1        2.154  -0.107  -1.704  0.00  0.00    -0.330 C 
ENDBRANCH   8  11
ENDBRANCH   2   5
BRANCH   1  18
ATOM     18  C   LIG    1        9.495   1.075   1.715  0.00  0.00    +0.350 C 
BRANCH  18  22
ATOM     19  C   LIG    1        8.870   5.155   2.823  0.00  0.00    +0.140 A 
ATOM     20  C   LIG    1        9.277   4.232   3.774  0.00  0.00    -0.030 A 
ATOM     21  C   LIG    1        9.479   2.913   3.414  0.00  0.00    +0.070 A 
ATOM     22  C   LIG    1        9.275   2.514   2.106  0.00  0.00    -0.150 A 
ATOM     23  C   LIG    1        8.874   3.434   1.154  0.00  0.00    +0.070 A 
ATOM     24  C   LIG    1        8.666   4.752   1.511  0.00  0.00    -0.080 A 
BRANCH  19  25
ATOM     25  O   LIG    1        8.671   6.453   3.175  0.00  0.00    -0.320 OA
BRANCH  25  27
ATOM     26  C   LIG    1        8.080   8.752   2.725  0.00  0.00    +0.070 C 
ATOM     27  C   LIG    1        8.252   7.348   2.143  0.00  0.00    +0.170 C 
ENDBRANCH  25  27
ENDBRANCH  19  25
ENDBRANCH  18  22
ENDBRANCH   1  18
TORSDOF 6
