REMARK  Name = ZINCqH0000006YQF.0
REMARK                            x       y       z     vdW  Elec       q    Type
REMARK                         _______ _______ _______ _____ _____    ______ ____
ROOT
ATOM      1  C   LIG    1        1.163   3.571   0.011  0.00  0.00    +0.150 A 
ATOM      2  C   LIG    1        0.018   4.277   0.021  0.00  0.00    -0.120 A 
ATOM      3  S   LIG    1        0.427   5.991   0.031  0.00  0.00    +0.200 S 
ATOM      4  C   LIG    1        2.140   5.582   0.012  0.00  0.00    +0.270 A 
ATOM      5  N   LIG    1        2.275   4.293   0.003  0.00  0.00    -0.470 NA
ENDROOT
BRANCH   1   9
ATOM      6  C   LIG    1        1.211  -0.685  -0.013  0.00  0.00    +0.180 A 
ATOM      7  C   LIG    1        0.002  -0.004   0.002  0.00  0.00    -0.120 A 
ATOM      8  C   LIG    1       -0.017   1.376   0.010  0.00  0.00    +0.120 A 
ATOM      9  C   LIG    1        1.180   2.088   0.002  0.00  0.00    -0.100 A 
ATOM     10  C   LIG    1        2.398   1.401  -0.013  0.00  0.00    +0.200 A 
ATOM     11  C   LIG    1        2.408   0.017  -0.021  0.00  0.00    -0.110 A 
BRANCH   6  13
ATOM     12  C   LIG    1       -0.044  -2.704  -0.013  0.00  0.00    +0.250 C 
ATOM     13  O   LIG    1        1.223  -2.044  -0.021  0.00  0.00    -0.320 OA
ENDBRANCH   6  13
BRANCH  10  14
ATOM     14  O   LIG    1        3.569   2.090  -0.021  0.00  0.00    -0.270 OA
ATOM     15  C   LIG    1        4.774   1.322  -0.036  0.00  0.00    +0.240 C 
ENDBRANCH  10  14
ENDBRANCH   1   9
BRANCH   4  16
ATOM     16  N   LIG    1        3.184   6.499   0.006  0.00  0.00    -0.620 N 
ATOM     17  H   LIG    1        4.103   6.188  -0.005  0.00  0.00    +0.430 HD
ATOM     18  C   LIG    1        2.921   7.821   0.015  0.00  0.00    +0.510 C 
ATOM     19  O   LIG    1        1.772   8.210   0.029  0.00  0.00    -0.470 OA
BRANCH  18  20
ATOM     20  C   LIG    1        4.053   8.815   0.009  0.00  0.00    +0.190 C 
ATOM     21  C   LIG    1        4.825   8.700  -1.307  0.00  0.00    +0.060 C 
BRANCH  20  22
ATOM     22  O   LIG    1        3.527  10.137   0.139  0.00  0.00    -0.340 OA
BRANCH  22  23
ATOM     23  C   LIG    1        4.405  11.050   0.800  0.00  0.00    +0.210 C 
BRANCH  23  24
ATOM     24  C   LIG    1        3.743  12.427   0.882  0.00  0.00    +0.460 C 
ATOM     25  F   LIG    1        3.472  12.892  -0.409  0.00  0.00    -0.170 F 
ATOM     26  F   LIG    1        4.603  13.320   1.530  0.00  0.00    -0.170 F 
ATOM     27  F   LIG    1        2.547  12.326   1.602  0.00  0.00    -0.170 F 
ENDBRANCH  23  24
ENDBRANCH  22  23
ENDBRANCH  20  22
ENDBRANCH  18  20
ENDBRANCH   4  16
TORSDOF 8
