REMARK  Name = ZINCvU000000075X.0
REMARK                            x       y       z     vdW  Elec       q    Type
REMARK                         _______ _______ _______ _____ _____    ______ ____
ROOT
ATOM      1  C   LIG    1        1.488   2.077   0.385  0.00  0.00    -0.060 A 
ATOM      2  C   LIG    1        2.418   1.044   0.367  0.00  0.00    -0.020 A 
ATOM      3  C   LIG    1        3.740   1.308   0.073  0.00  0.00    +0.060 A 
ATOM      4  C   LIG    1        4.153   2.603  -0.197  0.00  0.00    +0.000 A 
ATOM      5  C   LIG    1        3.248   3.642  -0.179  0.00  0.00    +0.060 A 
ATOM      6  C   LIG    1        1.905   3.390   0.112  0.00  0.00    -0.120 A 
ENDROOT
BRANCH   6   7
ATOM      7  C   LIG    1        0.930   4.496   0.132  0.00  0.00    +0.570 C 
ATOM      8  N   LIG    1        1.286   5.698   0.627  0.00  0.00    -0.610 N 
ATOM      9  C   LIG    1        2.571   6.014   1.277  0.00  0.00    +0.240 C 
ATOM     10  C   LIG    1        2.268   7.236   2.180  0.00  0.00    +0.040 C 
ATOM     11  C   LIG    1        1.262   8.028   1.305  0.00  0.00    +0.050 C 
ATOM     12  C   LIG    1        0.459   6.913   0.603  0.00  0.00    +0.310 C 
ATOM     13  O   LIG    1       -0.194   4.324  -0.298  0.00  0.00    -0.500 OA
BRANCH  12  14
ATOM     14  C   LIG    1        0.168   7.307  -0.823  0.00  0.00    -0.180 A 
ATOM     15  C   LIG    1       -1.002   7.764  -1.271  0.00  0.00    +0.020 A 
ATOM     16  C   LIG    1       -1.032   8.064  -2.622  0.00  0.00    +0.010 A 
ATOM     17  C   LIG    1        0.111   7.843  -3.272  0.00  0.00    -0.050 A 
ATOM     18  S   LIG    1        1.318   7.227  -2.151  0.00  0.00    +0.100 S 
ENDBRANCH  12  14
ENDBRANCH   6   7
BRANCH   1  19
ATOM     19  S   LIG    1       -0.201   1.741   0.755  0.00  0.00    +0.040 S 
BRANCH  19  20
ATOM     20  C   LIG    1       -0.212  -0.053   1.022  0.00  0.00    +0.060 C 
BRANCH  20  23
ATOM     21  N   LIG    1       -1.862  -1.805   1.593  0.00  0.00    -0.670 N 
ATOM     22  H   LIG    1       -1.157  -2.462   1.486  0.00  0.00    +0.410 HD
ATOM     23  C   LIG    1       -1.612  -0.503   1.353  0.00  0.00    +0.540 C 
ATOM     24  O   LIG    1       -2.513   0.307   1.404  0.00  0.00    -0.490 OA
BRANCH  21  29
ATOM     25  C   LIG    1       -4.552  -3.647   3.301  0.00  0.00    +0.140 A 
ATOM     26  C   LIG    1       -5.672  -3.007   2.789  0.00  0.00    -0.090 A 
ATOM     27  C   LIG    1       -5.525  -1.972   1.884  0.00  0.00    +0.070 A 
ATOM     28  C   LIG    1       -4.264  -1.572   1.487  0.00  0.00    -0.010 A 
ATOM     29  C   LIG    1       -3.139  -2.210   1.996  0.00  0.00    +0.180 A 
ATOM     30  C   LIG    1       -3.285  -3.252   2.901  0.00  0.00    -0.050 A 
BRANCH  25  32
ATOM     31  C   LIG    1       -6.033  -5.023   4.553  0.00  0.00    +0.250 C 
ATOM     32  O   LIG    1       -4.698  -4.665   4.190  0.00  0.00    -0.320 OA
ENDBRANCH  25  32
ENDBRANCH  21  29
ENDBRANCH  20  23
ENDBRANCH  19  20
ENDBRANCH   1  19
TORSDOF 7
