REMARK  Name = ZINCqH00000330gc.0
REMARK                            x       y       z     vdW  Elec       q    Type
REMARK                         _______ _______ _______ _____ _____    ______ ____
ROOT
ATOM      1  N   LIG    1       -4.711  -1.213  -2.540  0.00  0.00    -0.550 N 
ATOM      2  C   LIG    1       -4.151  -1.973  -3.499  0.00  0.00    +0.520 C 
ATOM      3  C   LIG    1       -3.013  -1.447  -4.332  0.00  0.00    +0.070 C 
ATOM      4  C   LIG    1       -3.200   0.050  -4.585  0.00  0.00    +0.100 C 
ATOM      5  C   LIG    1       -3.510   0.746  -3.285  0.00  0.00    -0.110 A 
ATOM      6  C   LIG    1       -3.063   2.032  -3.064  0.00  0.00    +0.050 A 
ATOM      7  C   LIG    1       -3.346   2.669  -1.863  0.00  0.00    +0.120 A 
ATOM      8  C   LIG    1       -4.089   2.015  -0.889  0.00  0.00    +0.040 A 
ATOM      9  C   LIG    1       -4.541   0.729  -1.112  0.00  0.00    +0.010 A 
ATOM     10  O   LIG    1       -4.569  -3.094  -3.696  0.00  0.00    -0.520 OA
ATOM     11  C   LIG    1       -4.253   0.091  -2.311  0.00  0.00    +0.160 A 
ENDROOT
BRANCH   7  12
ATOM     12  N   LIG    1       -2.889   3.972  -1.636  0.00  0.00    -1.060 N 
ATOM     13  H   LIG    1       -2.993   4.649  -2.323  0.00  0.00    +0.430 HD
BRANCH  12  14
ATOM     14  S   LIG    1       -2.169   4.358  -0.196  0.00  0.00    +2.690 S 
ATOM     15  O   LIG    1       -1.715   5.699  -0.321  0.00  0.00    -0.940 OA
ATOM     16  O   LIG    1       -3.061   3.931   0.825  0.00  0.00    -0.950 OA
BRANCH  14  17
ATOM     17  C   LIG    1       -0.727   3.356  -0.048  0.00  0.00    -0.670 A 
ATOM     18  C   LIG    1       -0.636   2.421   0.966  0.00  0.00    +0.130 A 
ATOM     19  C   LIG    1        0.495   1.635   1.082  0.00  0.00    -0.010 A 
ATOM     20  C   LIG    1        1.535   1.784   0.183  0.00  0.00    +0.070 A 
ATOM     21  C   LIG    1        1.444   2.718  -0.832  0.00  0.00    -0.010 A 
ATOM     22  C   LIG    1        0.315   3.508  -0.945  0.00  0.00    +0.020 A 
BRANCH  22  23
ATOM     23  C   LIG    1        0.217   4.530  -2.047  0.00  0.00    +0.050 C 
ATOM     24  C   LIG    1        0.788   5.863  -1.558  0.00  0.00    +0.040 C 
ENDBRANCH  22  23
ENDBRANCH  14  17
ENDBRANCH  12  14
ENDBRANCH   7  12
BRANCH   1  25
ATOM     25  C   LIG    1       -5.806  -1.753  -1.731  0.00  0.00    +0.280 C 
BRANCH  25  27
ATOM     26  C   LIG    1       -8.286  -2.001  -1.559  0.00  0.00    +0.030 C 
ATOM     27  C   LIG    1       -7.142  -1.437  -2.405  0.00  0.00    +0.000 C 
ENDBRANCH  25  27
ENDBRANCH   1  25
TORSDOF 6
