REMARK  Name = ZINCpe000000XEPc.0
REMARK                            x       y       z     vdW  Elec       q    Type
REMARK                         _______ _______ _______ _____ _____    ______ ____
ROOT
ATOM      1  N   LIG    1       -0.670   3.054  -1.286  0.00  0.00    -0.720 N 
ATOM      2  H   LIG    1        0.063   3.515  -0.849  0.00  0.00    +0.410 HD
ATOM      3  C   LIG    1       -1.612   3.759  -1.944  0.00  0.00    +0.520 C 
ATOM      4  O   LIG    1       -2.528   3.182  -2.491  0.00  0.00    -0.530 OA
ENDROOT
BRANCH   1   5
ATOM      5  C   LIG    1       -0.753   1.593  -1.232  0.00  0.00    +0.220 C 
ATOM      6  C   LIG    1       -0.111   0.998  -2.487  0.00  0.00    +0.040 C 
BRANCH   5   7
ATOM      7  C   LIG    1       -0.013   1.086   0.008  0.00  0.00    +0.330 C 
BRANCH   7  14
ATOM      8  C   LIG    1       -2.285  -0.416   1.489  0.00  0.00    +0.140 C 
ATOM      9  C   LIG    1       -1.688   0.915   1.868  0.00  0.00    +0.090 A 
ATOM     10  C   LIG    1       -2.048   1.679   2.925  0.00  0.00    -0.120 A 
ATOM     11  C   LIG    1       -1.252   2.829   2.916  0.00  0.00    +0.080 A 
ATOM     12  N   LIG    1       -0.439   2.755   1.894  0.00  0.00    -0.290 NA
ATOM     13  C   LIG    1       -1.316   3.955   3.915  0.00  0.00    +0.160 C 
ATOM     14  N   LIG    1       -0.698   1.558   1.213  0.00  0.00    -0.370 N 
ENDBRANCH   7  14
ENDBRANCH   5   7
ENDBRANCH   1   5
BRANCH   3  15
ATOM     15  C   LIG    1       -1.526   5.262  -2.000  0.00  0.00    +0.260 C 
BRANCH  15  16
ATOM     16  N   LIG    1       -2.662   5.789  -2.769  0.00  0.00    -0.460 N 
ATOM     17  C   LIG    1       -2.578   5.381  -4.178  0.00  0.00    +0.240 C 
BRANCH  16  18
ATOM     18  C   LIG    1       -2.742   7.167  -2.655  0.00  0.00    +0.400 A 
ATOM     19  C   LIG    1       -3.750   7.880  -3.307  0.00  0.00    -0.080 A 
ATOM     20  N   LIG    1       -4.809   7.551  -4.128  0.00  0.00    -0.570 N 
ATOM     21  H   LIG    1       -5.055   6.659  -4.421  0.00  0.00    +0.430 HD
ATOM     22  C   LIG    1       -5.440   8.703  -4.447  0.00  0.00    +0.530 A 
ATOM     23  N   LIG    1       -4.842   9.714  -3.879  0.00  0.00    -0.490 NA
ATOM     24  C   LIG    1       -3.790   9.276  -3.161  0.00  0.00    +0.310 A 
ATOM     25  N   LIG    1       -2.862   9.868  -2.402  0.00  0.00    -0.500 NA
ATOM     26  C   LIG    1       -1.932   9.155  -1.807  0.00  0.00    +0.540 A 
ATOM     27  N   LIG    1       -1.864   7.841  -1.917  0.00  0.00    -0.550 NA
ENDBRANCH  16  18
ENDBRANCH  15  16
ENDBRANCH   3  15
TORSDOF 6
