REMARK  Name = ZINCpe000000XEPc.1
REMARK                            x       y       z     vdW  Elec       q    Type
REMARK                         _______ _______ _______ _____ _____    ______ ____
ROOT
ATOM      1  N   LIG    1       -0.670   3.054  -1.286  0.00  0.00    -0.720 N 
ATOM      2  H   LIG    1        0.063   3.515  -0.849  0.00  0.00    +0.410 HD
ATOM      3  C   LIG    1       -1.612   3.759  -1.944  0.00  0.00    +0.520 C 
ATOM      4  O   LIG    1       -2.528   3.182  -2.491  0.00  0.00    -0.520 OA
ENDROOT
BRANCH   1   5
ATOM      5  C   LIG    1       -0.753   1.593  -1.232  0.00  0.00    +0.220 C 
ATOM      6  C   LIG    1       -0.111   0.998  -2.487  0.00  0.00    +0.040 C 
BRANCH   5   7
ATOM      7  C   LIG    1       -0.013   1.086   0.008  0.00  0.00    +0.330 C 
BRANCH   7  14
ATOM      8  C   LIG    1       -2.285  -0.416   1.489  0.00  0.00    +0.140 C 
ATOM      9  C   LIG    1       -1.688   0.915   1.868  0.00  0.00    +0.090 A 
ATOM     10  C   LIG    1       -2.048   1.679   2.925  0.00  0.00    -0.120 A 
ATOM     11  C   LIG    1       -1.252   2.829   2.916  0.00  0.00    +0.080 A 
ATOM     12  N   LIG    1       -0.439   2.755   1.894  0.00  0.00    -0.290 NA
ATOM     13  C   LIG    1       -1.316   3.955   3.915  0.00  0.00    +0.160 C 
ATOM     14  N   LIG    1       -0.698   1.558   1.213  0.00  0.00    -0.370 N 
ENDBRANCH   7  14
ENDBRANCH   5   7
ENDBRANCH   1   5
BRANCH   3  15
ATOM     15  C   LIG    1       -1.526   5.262  -2.000  0.00  0.00    +0.250 C 
BRANCH  15  16
ATOM     16  N   LIG    1       -2.662   5.789  -2.769  0.00  0.00    -0.440 N 
ATOM     17  C   LIG    1       -3.931   5.536  -2.074  0.00  0.00    +0.250 C 
BRANCH  16  18
ATOM     18  C   LIG    1       -2.500   7.138  -3.032  0.00  0.00    +0.430 A 
ATOM     19  C   LIG    1       -3.467   7.849  -3.763  0.00  0.00    -0.060 A 
ATOM     20  N   LIG    1       -4.654   7.532  -4.333  0.00  0.00    -0.460 NA
ATOM     21  C   LIG    1       -5.163   8.591  -4.892  0.00  0.00    +0.500 A 
ATOM     22  N   LIG    1       -4.334   9.657  -4.710  0.00  0.00    -0.580 N 
ATOM     23  H   LIG    1       -4.483  10.561  -5.029  0.00  0.00    +0.430 HD
ATOM     24  C   LIG    1       -3.250   9.218  -3.993  0.00  0.00    +0.290 A 
ATOM     25  N   LIG    1       -2.142   9.784  -3.525  0.00  0.00    -0.540 NA
ATOM     26  C   LIG    1       -1.261   9.076  -2.850  0.00  0.00    +0.560 A 
ATOM     27  N   LIG    1       -1.424   7.789  -2.604  0.00  0.00    -0.570 NA
ENDBRANCH  16  18
ENDBRANCH  15  16
ENDBRANCH   3  15
TORSDOF 6
