REMARK  Name = ZINCpe000000XEPc.2
REMARK                            x       y       z     vdW  Elec       q    Type
REMARK                         _______ _______ _______ _____ _____    ______ ____
ROOT
ATOM      1  N   LIG    1       -0.670   3.054  -1.286  0.00  0.00    -0.720 N 
ATOM      2  H   LIG    1        0.063   3.515  -0.849  0.00  0.00    +0.400 HD
ATOM      3  C   LIG    1       -1.612   3.759  -1.944  0.00  0.00    +0.500 C 
ATOM      4  O   LIG    1       -2.528   3.182  -2.491  0.00  0.00    -0.530 OA
ENDROOT
BRANCH   1   5
ATOM      5  C   LIG    1       -0.753   1.593  -1.232  0.00  0.00    +0.220 C 
ATOM      6  C   LIG    1       -0.111   0.998  -2.487  0.00  0.00    +0.040 C 
BRANCH   5   7
ATOM      7  C   LIG    1       -0.013   1.086   0.008  0.00  0.00    +0.330 C 
BRANCH   7  14
ATOM      8  C   LIG    1       -2.285  -0.416   1.489  0.00  0.00    +0.140 C 
ATOM      9  C   LIG    1       -1.688   0.915   1.868  0.00  0.00    +0.090 A 
ATOM     10  C   LIG    1       -2.048   1.679   2.925  0.00  0.00    -0.130 A 
ATOM     11  C   LIG    1       -1.252   2.829   2.916  0.00  0.00    +0.080 A 
ATOM     12  N   LIG    1       -0.439   2.755   1.894  0.00  0.00    -0.290 NA
ATOM     13  C   LIG    1       -1.316   3.955   3.915  0.00  0.00    +0.160 C 
ATOM     14  N   LIG    1       -0.698   1.558   1.213  0.00  0.00    -0.370 N 
ENDBRANCH   7  14
ENDBRANCH   5   7
ENDBRANCH   1   5
BRANCH   3  15
ATOM     15  C   LIG    1       -1.526   5.262  -2.000  0.00  0.00    +0.320 C 
BRANCH  15  16
ATOM     16  N   LIG    1       -2.659   5.787  -2.767  0.00  0.00    -0.540 N 
ATOM     17  C   LIG    1       -2.540   5.971  -4.216  0.00  0.00    +0.330 C 
BRANCH  16  18
ATOM     18  C   LIG    1       -3.831   6.107  -2.129  0.00  0.00    +0.540 A 
ATOM     19  C   LIG    1       -4.921   6.617  -2.855  0.00  0.00    -0.110 A 
ATOM     20  N   LIG    1       -5.158   6.898  -4.147  0.00  0.00    -0.500 NA
ATOM     21  C   LIG    1       -6.388   7.355  -4.248  0.00  0.00    +0.400 A 
ATOM     22  N   LIG    1       -6.969   7.377  -3.054  0.00  0.00    -0.540 NA
ATOM     23  C   LIG    1       -6.108   6.927  -2.154  0.00  0.00    +0.220 A 
ATOM     24  N   LIG    1       -6.136   6.725  -0.794  0.00  0.00    -0.540 N 
ATOM     25  H   LIG    1       -6.937   6.933  -0.287  0.00  0.00    +0.430 HD
ATOM     26  C   LIG    1       -5.051   6.238  -0.169  0.00  0.00    +0.640 A 
ATOM     27  N   LIG    1       -3.949   5.943  -0.808  0.00  0.00    -0.570 NA
ENDBRANCH  16  18
ENDBRANCH  15  16
ENDBRANCH   3  15
TORSDOF 6
