REMARK  Name = ZINCah0000002Hgc.0
REMARK                            x       y       z     vdW  Elec       q    Type
REMARK                         _______ _______ _______ _____ _____    ______ ____
ROOT
ATOM      1  O   LIG    1       -0.973  -0.656   0.290  0.00  0.00    -0.420 OA
ATOM      2  C   LIG    1        0.002  -0.004   0.002  0.00  0.00    +0.490 C 
ATOM      3  C   LIG    1       -0.018   1.512   0.010  0.00  0.00    +0.180 C 
ATOM      4  S   LIG    1        1.774   1.919  -0.005  0.00  0.00    -0.180 S 
ATOM      5  C   LIG    1        2.272   0.285  -0.682  0.00  0.00    +0.240 C 
ATOM      6  O   LIG    1        1.146  -0.573  -0.338  0.00  0.00    -0.320 OA
ENDROOT
BRANCH   5   7
ATOM      7  C   LIG    1        3.555  -0.213  -0.014  0.00  0.00    +0.470 C 
ATOM      8  F   LIG    1        3.378  -0.239   1.373  0.00  0.00    -0.160 F 
ATOM      9  F   LIG    1        4.611   0.646  -0.334  0.00  0.00    -0.160 F 
ATOM     10  F   LIG    1        3.848  -1.503  -0.471  0.00  0.00    -0.160 F 
ENDBRANCH   5   7
TORSDOF 1
