REMARK  Name = ZINCvU0000000ClI.0
REMARK                            x       y       z     vdW  Elec       q    Type
REMARK                         _______ _______ _______ _____ _____    ______ ____
ROOT
ATOM      1  C   LIG    1       -4.096   8.104   0.083  0.00  0.00    +0.220 A 
ATOM      2  N   LIG    1       -5.405   8.086   0.095  0.00  0.00    -0.370 NA
ATOM      3  O   LIG    1       -5.842   9.217   0.105  0.00  0.00    +0.090 OA
ATOM      4  C   LIG    1       -4.830  10.099   0.101  0.00  0.00    +0.230 A 
ATOM      5  N   LIG    1       -3.711   9.398   0.091  0.00  0.00    -0.470 NA
ENDROOT
BRANCH   1   9
ATOM      6  C   LIG    1       -1.530   4.712   0.041  0.00  0.00    +0.170 A 
ATOM      7  C   LIG    1       -0.988   5.992   0.048  0.00  0.00    +0.010 A 
ATOM      8  C   LIG    1       -1.818   7.093   0.056  0.00  0.00    +0.100 A 
ATOM      9  C   LIG    1       -3.201   6.921   0.068  0.00  0.00    -0.030 A 
ATOM     10  C   LIG    1       -3.742   5.636   0.066  0.00  0.00    +0.080 A 
ATOM     11  C   LIG    1       -2.908   4.539   0.053  0.00  0.00    +0.040 A 
BRANCH   6  14
ATOM     12  C   LIG    1       -0.018   1.503   0.010  0.00  0.00    -0.010 A 
ATOM     13  N   LIG    1       -1.090   2.254   0.019  0.00  0.00    -0.230 NA
ATOM     14  N   LIG    1       -0.685   3.595   0.027  0.00  0.00    -0.310 N 
ATOM     15  C   LIG    1        0.673   3.619   0.015  0.00  0.00    +0.270 A 
ATOM     16  C   LIG    1        1.105   2.337   0.004  0.00  0.00    -0.040 A 
BRANCH  12  18
ATOM     17  F   LIG    1        0.021  -0.477   1.318  0.00  0.00    -0.160 F 
ATOM     18  C   LIG    1        0.002  -0.004   0.002  0.00  0.00    +0.560 C 
ATOM     19  F   LIG    1        1.144  -0.451  -0.671  0.00  0.00    -0.160 F 
ATOM     20  F   LIG    1       -1.140  -0.482  -0.649  0.00  0.00    -0.160 F 
ENDBRANCH  12  18
ENDBRANCH   6  14
ENDBRANCH   1   9
BRANCH   4  21
ATOM     21  C   LIG    1       -4.945  11.572   0.110  0.00  0.00    -0.030 A 
ATOM     22  C   LIG    1       -3.794  12.363   0.110  0.00  0.00    +0.090 A 
ATOM     23  C   LIG    1       -3.903  13.736   0.113  0.00  0.00    +0.040 A 
ATOM     24  C   LIG    1       -5.161  14.336   0.127  0.00  0.00    +0.010 A 
ATOM     25  C   LIG    1       -6.311  13.547   0.134  0.00  0.00    +0.050 A 
ATOM     26  C   LIG    1       -6.205  12.174   0.125  0.00  0.00    +0.070 A 
BRANCH  24  27
ATOM     27  C   LIG    1       -5.277  15.815   0.136  0.00  0.00    +0.040 A 
ATOM     28  N   LIG    1       -6.383  16.518   0.149  0.00  0.00    -0.350 NA
ATOM     29  O   LIG    1       -6.151  17.705   0.153  0.00  0.00    +0.110 OA
ATOM     30  C   LIG    1       -4.834  17.956   0.142  0.00  0.00    +0.170 A 
ATOM     31  C   LIG    1       -4.210  16.757   0.137  0.00  0.00    -0.040 A 
ENDBRANCH  24  27
ENDBRANCH   4  21
TORSDOF 5
