REMARK  Name = ZINCtV00000L6l40.0
REMARK                            x       y       z     vdW  Elec       q    Type
REMARK                         _______ _______ _______ _____ _____    ______ ____
ROOT
ATOM      1  C   LIG    1        6.992  -2.223  -2.225  0.00  0.00    -0.120 C 
ATOM      2  C   LIG    1        5.961  -1.754  -1.493  0.00  0.00    +0.060 C 
ATOM      3  C   LIG    1        5.974  -0.368  -1.012  0.00  0.00    +0.070 C 
ATOM      4  C   LIG    1        7.107   0.509  -1.334  0.00  0.00    +0.060 C 
ATOM      5  C   LIG    1        8.138   0.035  -2.062  0.00  0.00    -0.130 C 
ATOM      6  C   LIG    1        4.919   0.114  -0.262  0.00  0.00    -0.210 C 
ATOM      7  C   LIG    1        4.069  -0.783   0.566  0.00  0.00    +0.450 C 
ATOM      8  C   LIG    1        2.619  -0.478   0.614  0.00  0.00    -0.120 A 
ATOM      9  C   LIG    1        1.726  -1.385   1.174  0.00  0.00    +0.080 A 
ATOM     10  C   LIG    1        0.377  -1.081   1.222  0.00  0.00    +0.050 A 
ATOM     11  C   LIG    1       -0.089   0.121   0.717  0.00  0.00    +0.040 A 
ATOM     12  C   LIG    1        0.784   1.033   0.153  0.00  0.00    +0.090 A 
ATOM     13  C   LIG    1        2.146   0.743   0.089  0.00  0.00    -0.120 A 
ATOM     14  C   LIG    1        3.079   1.703  -0.527  0.00  0.00    +0.410 C 
ATOM     15  O   LIG    1        2.664   2.575  -1.260  0.00  0.00    -0.380 OA
ATOM     16  O   LIG    1        4.542  -1.722   1.176  0.00  0.00    -0.400 OA
ATOM     17  C   LIG    1        4.560   1.590  -0.236  0.00  0.00    +0.090 C 
ATOM     18 CL   LIG    1        5.502   2.471  -1.496  0.00  0.00    -0.070 Cl
ATOM     19 CL   LIG    1        4.919   2.279   1.391  0.00  0.00    -0.080 Cl
ATOM     20  C   LIG    1        8.123  -1.349  -2.541  0.00  0.00    +0.410 C 
ATOM     21  O   LIG    1        9.054  -1.773  -3.203  0.00  0.00    -0.410 OA
ENDROOT
BRANCH   1  23
ATOM     22  C   LIG    1        5.694  -4.336  -2.254  0.00  0.00    +0.040 C 
ATOM     23  C   LIG    1        6.979  -3.646  -2.719  0.00  0.00    -0.020 C 
ATOM     24  C   LIG    1        8.190  -4.393  -2.156  0.00  0.00    +0.050 C 
ATOM     25  C   LIG    1        7.039  -3.656  -4.247  0.00  0.00    +0.030 C 
ENDBRANCH   1  23
BRANCH   5  26
ATOM     26  C   LIG    1        9.303   0.933  -2.389  0.00  0.00    -0.020 C 
ATOM     27  C   LIG    1        9.435   1.066  -3.907  0.00  0.00    +0.040 C 
ATOM     28  C   LIG    1       10.588   0.330  -1.816  0.00  0.00    +0.040 C 
ATOM     29  C   LIG    1        9.071   2.315  -1.774  0.00  0.00    +0.040 C 
ENDBRANCH   5  26
TORSDOF 2
