REMARK  Name = ZINCrH000004ow0Z.0
REMARK                            x       y       z     vdW  Elec       q    Type
REMARK                         _______ _______ _______ _____ _____    ______ ____
ROOT
ATOM      1  N   LIG    1        5.553   2.606  -1.169  0.00  0.00    -0.610 N 
ATOM      2  C   LIG    1        6.064   1.811  -2.130  0.00  0.00    +0.570 C 
ATOM      3  O   LIG    1        6.026   0.602  -2.003  0.00  0.00    -0.520 OA
ATOM      4  C   LIG    1        5.748   4.056  -1.238  0.00  0.00    +0.310 C 
ENDROOT
BRANCH   2   5
ATOM      5  C   LIG    1        6.671   2.408  -3.338  0.00  0.00    -0.120 A 
ATOM      6  C   LIG    1        6.836   3.791  -3.429  0.00  0.00    +0.030 A 
ATOM      7  C   LIG    1        7.407   4.342  -4.558  0.00  0.00    +0.020 A 
ATOM      8  C   LIG    1        7.806   3.528  -5.603  0.00  0.00    -0.090 A 
ATOM      9  C   LIG    1        7.641   2.156  -5.521  0.00  0.00    +0.040 A 
ATOM     10  C   LIG    1        7.076   1.592  -4.396  0.00  0.00    +0.080 A 
BRANCH   8  11
ATOM     11  C   LIG    1        8.424   4.137  -6.835  0.00  0.00    +0.380 C 
BRANCH  11  12
ATOM     12  N   LIG    1        7.371   4.451  -7.805  0.00  0.00    -0.380 N 
ATOM     13  C   LIG    1        7.128   5.646  -8.371  0.00  0.00    +0.470 A 
ATOM     14  N   LIG    1        6.109   5.512  -9.180  0.00  0.00    -0.550 NA
ATOM     15  C   LIG    1        5.671   4.253  -9.150  0.00  0.00    +0.420 A 
ATOM     16  N   LIG    1        6.412   3.565  -8.322  0.00  0.00    -0.310 NA
ENDBRANCH  11  12
ENDBRANCH   8  11
ENDBRANCH   2   5
BRANCH   1  18
ATOM     17  C   LIG    1        5.419   2.475   1.270  0.00  0.00    +0.070 C 
ATOM     18  C   LIG    1        4.804   2.019  -0.055  0.00  0.00    +0.350 C 
BRANCH  18  19
ATOM     19  C   LIG    1        3.367   2.471  -0.124  0.00  0.00    +0.080 A 
ATOM     20  N   LIG    1        2.361   1.683  -0.055  0.00  0.00    -0.450 NA
ATOM     21  C   LIG    1        1.131   2.226  -0.130  0.00  0.00    +0.080 A 
ATOM     22  C   LIG    1       -0.132   1.603  -0.082  0.00  0.00    +0.080 A 
ATOM     23  C   LIG    1       -1.270   2.344  -0.182  0.00  0.00    +0.030 A 
ATOM     24  C   LIG    1       -1.210   3.723  -0.323  0.00  0.00    +0.040 A 
ATOM     25  C   LIG    1        0.010   4.359  -0.372  0.00  0.00    +0.060 A 
ATOM     26  C   LIG    1        1.185   3.617  -0.277  0.00  0.00    -0.180 A 
ATOM     27  S   LIG    1        2.879   4.096  -0.303  0.00  0.00    +0.100 S 
ENDBRANCH  18  19
ENDBRANCH   1  18
TORSDOF 5
