REMARK  Name = ZINCrH00000No4v1.0
REMARK                            x       y       z     vdW  Elec       q    Type
REMARK                         _______ _______ _______ _____ _____    ______ ____
ROOT
ATOM      1  C   LIG    1        0.440   9.589  -0.948  0.00  0.00    +0.200 C 
ATOM      2  C   LIG    1        1.558  10.064  -0.018  0.00  0.00    +0.050 C 
ENDROOT
BRANCH   1   5
ATOM      3  N   LIG    1        0.314  11.730  -2.181  0.00  0.00    -0.670 N 
ATOM      4  H   LIG    1        0.113  12.168  -1.339  0.00  0.00    +0.410 HD
ATOM      5  C   LIG    1        0.472  10.392  -2.223  0.00  0.00    +0.520 C 
ATOM      6  O   LIG    1        0.640   9.834  -3.287  0.00  0.00    -0.500 OA
BRANCH   3  10
ATOM      7  C   LIG    1        0.691  13.986  -5.668  0.00  0.00    +0.130 A 
ATOM      8  C   LIG    1        1.119  14.506  -4.456  0.00  0.00    -0.040 A 
ATOM      9  C   LIG    1        0.990  13.761  -3.300  0.00  0.00    +0.040 A 
ATOM     10  C   LIG    1        0.441  12.487  -3.353  0.00  0.00    +0.120 A 
ATOM     11  C   LIG    1        0.011  11.966  -4.566  0.00  0.00    +0.090 A 
ATOM     12  C   LIG    1        0.136  12.714  -5.721  0.00  0.00    -0.050 A 
ATOM     13 CL   LIG    1       -0.400  12.063  -7.239  0.00  0.00    -0.050 Cl
BRANCH   7  15
ATOM     14  C   LIG    1        1.392  16.022  -6.677  0.00  0.00    +0.240 C 
ATOM     15  O   LIG    1        0.813  14.722  -6.805  0.00  0.00    -0.300 OA
ENDBRANCH   7  15
ENDBRANCH   3  10
ENDBRANCH   1   5
BRANCH   1  16
ATOM     16  O   LIG    1        0.628   8.205  -1.252  0.00  0.00    -0.210 OA
BRANCH  16  17
ATOM     17  N   LIG    1        0.082   7.324  -0.287  0.00  0.00    -0.340 NA
ATOM     18  C   LIG    1        0.187   6.045  -0.447  0.00  0.00    +0.290 C 
BRANCH  18  19
ATOM     19  C   LIG    1       -0.382   5.127   0.559  0.00  0.00    -0.060 A 
ATOM     20  C   LIG    1       -1.034   5.638   1.683  0.00  0.00    +0.070 A 
ATOM     21  C   LIG    1       -1.565   4.778   2.622  0.00  0.00    -0.040 A 
ATOM     22  C   LIG    1       -1.452   3.406   2.453  0.00  0.00    +0.120 A 
ATOM     23  C   LIG    1       -0.803   2.889   1.333  0.00  0.00    +0.100 A 
ATOM     24  C   LIG    1       -0.265   3.745   0.391  0.00  0.00    +0.000 A 
BRANCH  23  25
ATOM     25  O   LIG    1       -0.695   1.544   1.170  0.00  0.00    -0.300 OA
ATOM     26  C   LIG    1       -0.017   1.084  -0.001  0.00  0.00    +0.240 C 
ENDBRANCH  23  25
BRANCH  22  27
ATOM     27  O   LIG    1       -1.976   2.563   3.381  0.00  0.00    -0.300 OA
ATOM     28  C   LIG    1       -2.628   3.160   4.504  0.00  0.00    +0.240 C 
ENDBRANCH  22  27
ENDBRANCH  18  19
ENDBRANCH  16  17
ENDBRANCH   1  16
TORSDOF 8
