REMARK  Name = ZINCrH000004kBfo.0
REMARK                            x       y       z     vdW  Elec       q    Type
REMARK                         _______ _______ _______ _____ _____    ______ ____
ROOT
ATOM      1  C   LIG    1       -1.329   1.940   0.019  0.00  0.00    +0.100 C 
ATOM      2  C   LIG    1       -2.477   0.929   0.024  0.00  0.00    +0.230 C 
ATOM      3  N   LIG    1       -3.739   1.654  -0.196  0.00  0.00    -0.530 NA
ATOM      4  C   LIG    1       -3.818   2.126  -1.581  0.00  0.00    +0.240 C 
ATOM      5  C   LIG    1       -2.581   2.904  -1.945  0.00  0.00    -0.070 A 
ATOM      6  C   LIG    1       -2.623   3.727  -3.061  0.00  0.00    +0.000 A 
ATOM      7  C   LIG    1       -1.511   4.456  -3.433  0.00  0.00    +0.020 A 
ATOM      8  C   LIG    1       -0.349   4.366  -2.690  0.00  0.00    +0.010 A 
ATOM      9  C   LIG    1       -0.306   3.548  -1.578  0.00  0.00    +0.030 A 
ATOM     10  C   LIG    1       -1.423   2.815  -1.205  0.00  0.00    -0.080 A 
ENDROOT
BRANCH   1  11
ATOM     11  C   LIG    1       -0.014   1.204   0.009  0.00  0.00    +0.470 C 
ATOM     12  O   LIG    1        0.002  -0.004   0.002  0.00  0.00    -0.500 OA
BRANCH  11  14
ATOM     13  C   LIG    1        2.367   1.117  -0.015  0.00  0.00    +0.260 C 
ATOM     14  O   LIG    1        1.139   1.891   0.001  0.00  0.00    -0.350 OA
ENDBRANCH  11  14
ENDBRANCH   1  11
BRANCH   3  15
ATOM     15  C   LIG    1       -4.894   0.812   0.141  0.00  0.00    +0.370 C 
BRANCH  15  16
ATOM     16  C   LIG    1       -6.159   1.487  -0.323  0.00  0.00    +0.190 A 
ATOM     17  N   LIG    1       -6.730   1.350  -1.494  0.00  0.00    -0.470 NA
ATOM     18  C   LIG    1       -7.829   2.137  -1.456  0.00  0.00    +0.210 A 
ATOM     19  N   LIG    1       -7.861   2.700  -0.277  0.00  0.00    -0.370 NA
ATOM     20  O   LIG    1       -6.913   2.334   0.386  0.00  0.00    +0.100 OA
BRANCH  18  21
ATOM     21  C   LIG    1       -8.814   2.327  -2.550  0.00  0.00    -0.020 A 
ATOM     22  C   LIG    1       -8.649   1.663  -3.763  0.00  0.00    +0.080 A 
ATOM     23  C   LIG    1       -9.571   1.838  -4.775  0.00  0.00    +0.030 A 
ATOM     24  C   LIG    1      -10.652   2.681  -4.591  0.00  0.00    +0.070 A 
ATOM     25  C   LIG    1      -10.819   3.348  -3.390  0.00  0.00    -0.090 A 
ATOM     26 BR   LIG    1      -12.300   4.497  -3.146  0.00  0.00    -0.040 Br
ATOM     27  C   LIG    1       -9.905   3.175  -2.369  0.00  0.00    +0.080 A 
ENDBRANCH  18  21
ENDBRANCH  15  16
ENDBRANCH   3  15
TORSDOF 5
