REMARK  Name = ZINCnE00000rhmMO.0
REMARK                            x       y       z     vdW  Elec       q    Type
REMARK                         _______ _______ _______ _____ _____    ______ ____
ROOT
ATOM      1  C   LIG    1        0.868  -1.587  -1.159  0.00  0.00    +0.100 C 
ATOM      2  C   LIG    1       -0.063  -0.698  -0.811  0.00  0.00    +0.060 C 
ENDROOT
BRANCH   1   4
ATOM      3  N   LIG    1        1.667  -3.107  -2.671  0.00  0.00    -0.190 NA
ATOM      4  N   LIG    1        0.767  -2.246  -2.334  0.00  0.00    -0.260 NA
BRANCH   3   8
ATOM      5  C   LIG    1        1.359  -5.121  -6.264  0.00  0.00    -0.090 A 
ATOM      6  C   LIG    1        2.439  -5.372  -5.412  0.00  0.00    +0.040 A 
ATOM      7  C   LIG    1        2.542  -4.706  -4.224  0.00  0.00    +0.070 A 
ATOM      8  C   LIG    1        1.565  -3.773  -3.859  0.00  0.00    +0.020 A 
ATOM      9  C   LIG    1        0.481  -3.526  -4.708  0.00  0.00    +0.030 A 
ATOM     10  C   LIG    1        0.383  -4.188  -5.899  0.00  0.00    +0.030 A 
BRANCH   5  12
ATOM     11  O   LIG    1        2.102  -6.657  -7.865  0.00  0.00    -0.680 OA
ATOM     12  C   LIG    1        1.248  -5.840  -7.546  0.00  0.00    +0.520 C 
ATOM     13  O   LIG    1        0.303  -5.621  -8.291  0.00  0.00    -0.680 OA
ENDBRANCH   5  12
ENDBRANCH   3   8
ENDBRANCH   1   4
BRANCH   2  14
ATOM     14  C   LIG    1        0.050   0.037   0.500  0.00  0.00    +0.150 C 
BRANCH  14  15
ATOM     15  C   LIG    1        0.004   1.523   0.248  0.00  0.00    -0.010 A 
ATOM     16  C   LIG    1        1.176   2.256   0.225  0.00  0.00    +0.030 A 
ATOM     17  C   LIG    1        1.135   3.618  -0.006  0.00  0.00    +0.080 A 
ATOM     18  C   LIG    1       -0.079   4.247  -0.213  0.00  0.00    +0.030 A 
ATOM     19  C   LIG    1       -1.251   3.514  -0.189  0.00  0.00    +0.100 A 
ATOM     20  C   LIG    1       -1.208   2.151   0.036  0.00  0.00    -0.040 A 
BRANCH  20  21
ATOM     21  N   LIG    1       -2.463   1.365   0.055  0.00  0.00    +0.030 N 
ATOM     22  O   LIG    1       -2.419   0.151   0.147  0.00  0.00    -0.150 OA
ATOM     23  O   LIG    1       -3.538   1.932  -0.021  0.00  0.00    -0.170 OA
ENDBRANCH  20  21
ENDBRANCH  14  15
ENDBRANCH   2  14
TORSDOF 6
