REMARK  Name = ZINCpe000000UFfI.0
REMARK                            x       y       z     vdW  Elec       q    Type
REMARK                         _______ _______ _______ _____ _____    ______ ____
ROOT
ATOM      1  C   LIG    1       -1.429   2.870  -0.153  0.00  0.00    +0.190 C 
ATOM      2  C   LIG    1        0.043   3.237   0.046  0.00  0.00    +0.260 C 
ATOM      3  O   LIG    1        0.850   2.309  -0.689  0.00  0.00    -0.360 OA
ATOM      4  C   LIG    1        0.815   0.987  -0.146  0.00  0.00    +0.290 C 
ATOM      5  C   LIG    1       -0.611   0.566   0.078  0.00  0.00    +0.500 C 
ATOM      6  O   LIG    1       -0.853  -0.609   0.253  0.00  0.00    -0.530 OA
ATOM      7  N   LIG    1       -1.624   1.442   0.084  0.00  0.00    -0.580 N 
ENDROOT
BRANCH   1   9
ATOM      8  N   LIG    1       -3.107   4.617   0.350  0.00  0.00    -0.610 N 
ATOM      9  C   LIG    1       -2.276   3.661   0.811  0.00  0.00    +0.500 C 
ATOM     10  O   LIG    1       -2.211   3.437   2.001  0.00  0.00    -0.490 OA
ATOM     11  C   LIG    1       -3.262   4.819  -1.093  0.00  0.00    +0.280 C 
BRANCH   8  12
ATOM     12  C   LIG    1       -3.855   5.454   1.291  0.00  0.00    +0.370 C 
BRANCH  12  16
ATOM     13  C   LIG    1       -1.917  10.076   1.198  0.00  0.00    +0.360 C 
ATOM     14  N   LIG    1       -2.202   8.691   1.584  0.00  0.00    -0.370 N 
ATOM     15  C   LIG    1       -3.070   7.859   0.972  0.00  0.00    +0.240 A 
ATOM     16  C   LIG    1       -3.042   6.677   1.631  0.00  0.00    -0.260 A 
ATOM     17  C   LIG    1       -2.132   6.794   2.686  0.00  0.00    +0.250 A 
ATOM     18  N   LIG    1       -1.623   7.999   2.655  0.00  0.00    -0.300 NA
ENDBRANCH  12  16
ENDBRANCH   8  12
ENDBRANCH   1   9
BRANCH   7  19
ATOM     19  C   LIG    1       -2.979   0.950   0.344  0.00  0.00    +0.330 C 
BRANCH  19  20
ATOM     20  C   LIG    1       -3.192   0.828   1.831  0.00  0.00    -0.120 A 
ATOM     21  C   LIG    1       -2.715  -0.278   2.509  0.00  0.00    +0.030 A 
ATOM     22  C   LIG    1       -2.907  -0.388   3.874  0.00  0.00    -0.010 A 
ATOM     23  C   LIG    1       -3.584   0.604   4.559  0.00  0.00    +0.010 A 
ATOM     24  C   LIG    1       -4.066   1.707   3.880  0.00  0.00    -0.010 A 
ATOM     25  C   LIG    1       -3.870   1.819   2.516  0.00  0.00    +0.050 A 
ENDBRANCH  19  20
ENDBRANCH   7  19
TORSDOF 5
