REMARK  Name = ZINCpk00000kZN6f.0
REMARK                            x       y       z     vdW  Elec       q    Type
REMARK                         _______ _______ _______ _____ _____    ______ ____
ROOT
ATOM      1  C   LIG    1       -0.233   2.300  -2.244  0.00  0.00    +0.240 C 
ENDROOT
BRANCH   1   2
ATOM      2  C   LIG    1       -0.959   1.695  -1.040  0.00  0.00    -0.030 C 
ATOM      3  C   LIG    1       -0.013   1.086   0.008  0.00  0.00    +0.030 C 
ATOM      4  C   LIG    1       -0.939   1.683   1.080  0.00  0.00    +0.010 C 
ATOM      5  C   LIG    1       -1.349   2.730   0.028  0.00  0.00    +0.020 C 
ENDBRANCH   1   2
BRANCH   1   6
ATOM      6  N   LIG    1        0.550   1.259  -2.914  0.00  0.00    -0.730 N 
ATOM      7  H   LIG    1        0.177   0.783  -3.672  0.00  0.00    +0.400 HD
ATOM      8  C   LIG    1        1.791   0.964  -2.478  0.00  0.00    +0.520 C 
ATOM      9  O   LIG    1        2.259   1.559  -1.530  0.00  0.00    -0.530 OA
BRANCH   8  10
ATOM     10  C   LIG    1        2.597  -0.106  -3.168  0.00  0.00    +0.050 C 
BRANCH  10  11
ATOM     11  C   LIG    1        3.958  -0.242  -2.481  0.00  0.00    +0.040 C 
ATOM     12  C   LIG    1        3.788  -0.772  -1.077  0.00  0.00    -0.020 C 
ATOM     13  C   LIG    1        4.659  -1.709  -0.819  0.00  0.00    -0.060 C 
ATOM     14  C   LIG    1        5.556  -1.960  -2.009  0.00  0.00    +0.040 C 
ATOM     15  C   LIG    1        4.820  -1.306  -3.201  0.00  0.00    +0.020 C 
ENDBRANCH  10  11
ENDBRANCH   8  10
ENDBRANCH   1   6
BRANCH   1  16
ATOM     16  C   LIG    1       -1.259   2.875  -3.221  0.00  0.00    +0.270 C 
BRANCH  16  19
ATOM     17  O   LIG    1       -2.486   4.001  -5.341  0.00  0.00    -0.540 OA
ATOM     18  C   LIG    1       -1.282   3.897  -5.434  0.00  0.00    +0.510 C 
ATOM     19  N   LIG    1       -0.574   3.347  -4.427  0.00  0.00    -0.730 N 
ATOM     20  H   LIG    1        0.390   3.263  -4.501  0.00  0.00    +0.400 HD
BRANCH  18  21
ATOM     21  C   LIG    1       -0.576   4.381  -6.674  0.00  0.00    +0.060 C 
BRANCH  21  22
ATOM     22  C   LIG    1       -1.603   4.957  -7.652  0.00  0.00    +0.180 C 
BRANCH  22  23
ATOM     23  C   LIG    1       -0.897   5.442  -8.892  0.00  0.00    +0.010 A 
ATOM     24  N   LIG    1        0.091   6.305  -8.954  0.00  0.00    -0.280 NA
ATOM     25  N   LIG    1        0.426   6.461 -10.186  0.00  0.00    -0.250 N 
ATOM     26  H   LIG    1        1.135   7.048 -10.495  0.00  0.00    +0.470 HD
ATOM     27  N   LIG    1       -0.310   5.739 -10.954  0.00  0.00    -0.280 NA
ATOM     28  C   LIG    1       -1.165   5.071 -10.212  0.00  0.00    +0.180 A 
ENDBRANCH  22  23
ENDBRANCH  21  22
ENDBRANCH  18  21
ENDBRANCH  16  19
ENDBRANCH   1  16
TORSDOF 9
