REMARK  Name = ZINCpk000000mXmS.0
REMARK                            x       y       z     vdW  Elec       q    Type
REMARK                         _______ _______ _______ _____ _____    ______ ____
ROOT
ATOM      1  C   LIG    1        2.687  -0.764   0.062  0.00  0.00    +0.260 C 
ENDROOT
BRANCH   1   2
ATOM      2  C   LIG    1        3.570   0.449  -0.076  0.00  0.00    +0.520 C 
ATOM      3  N   LIG    1        3.059   1.681   0.116  0.00  0.00    -0.550 N 
ATOM      4  C   LIG    1        3.821   2.935   0.093  0.00  0.00    +0.300 C 
ATOM      5  C   LIG    1        2.769   4.024   0.366  0.00  0.00    +0.340 C 
ATOM      6  N   LIG    1        1.503   3.294   0.519  0.00  0.00    -0.400 N 
ATOM      7  N   LIG    1        0.136   3.490   0.769  0.00  0.00    -0.260 NA
ATOM      8  C   LIG    1       -0.454   2.323   0.763  0.00  0.00    +0.280 A 
ATOM      9  C   LIG    1        0.512   1.345   0.521  0.00  0.00    -0.140 A 
ATOM     10  C   LIG    1        1.719   1.973   0.369  0.00  0.00    +0.290 A 
ATOM     11  O   LIG    1        4.742   0.316  -0.360  0.00  0.00    -0.470 OA
ENDBRANCH   1   2
BRANCH   1  14
ATOM     12  C   LIG    1        5.348  -3.508   0.266  0.00  0.00    +0.090 C 
ATOM     13  C   LIG    1        4.526  -2.338  -0.211  0.00  0.00    +0.510 C 
ATOM     14  N   LIG    1        3.486  -1.901   0.526  0.00  0.00    -0.720 N 
ATOM     15  H   LIG    1        3.267  -2.339   1.363  0.00  0.00    +0.410 HD
ATOM     16  O   LIG    1        4.801  -1.791  -1.258  0.00  0.00    -0.510 OA
ENDBRANCH   1  14
BRANCH   1  17
ATOM     17  C   LIG    1        2.064  -1.099  -1.295  0.00  0.00    +0.130 C 
BRANCH  17  18
ATOM     18  C   LIG    1        1.173  -2.306  -1.155  0.00  0.00    -0.170 A 
ATOM     19  C   LIG    1        1.529  -3.587  -1.340  0.00  0.00    +0.230 A 
ATOM     20  N   LIG    1        0.455  -4.406  -1.124  0.00  0.00    -0.590 N 
ATOM     21  H   LIG    1        0.467  -5.373  -1.197  0.00  0.00    +0.420 HD
ATOM     22  C   LIG    1       -0.648  -3.653  -0.786  0.00  0.00    +0.100 A 
ATOM     23  C   LIG    1       -1.965  -3.971  -0.471  0.00  0.00    -0.010 A 
ATOM     24  C   LIG    1       -2.857  -2.966  -0.169  0.00  0.00    +0.020 A 
ATOM     25  C   LIG    1       -2.456  -1.637  -0.175  0.00  0.00    -0.020 A 
ATOM     26  C   LIG    1       -1.167  -1.302  -0.482  0.00  0.00    +0.050 A 
ATOM     27  C   LIG    1       -0.245  -2.305  -0.785  0.00  0.00    -0.100 A 
ENDBRANCH  17  18
ENDBRANCH   1  17
TORSDOF 4
