REMARK  Name = ZINCpk00000S4qAV.0
REMARK                            x       y       z     vdW  Elec       q    Type
REMARK                         _______ _______ _______ _____ _____    ______ ____
ROOT
ATOM      1  C   LIG    1       -3.132  -2.114   4.230  0.00  0.00    +0.270 C 
ATOM      2  C   LIG    1       -1.625  -1.808   4.072  0.00  0.00    +0.050 C 
ATOM      3  C   LIG    1       -1.523  -0.271   4.096  0.00  0.00    +0.180 C 
ATOM      4  N   LIG    1       -2.893   0.252   4.288  0.00  0.00    -0.490 NA
ATOM      5  C   LIG    1       -3.804  -0.798   3.765  0.00  0.00    +0.210 C 
ENDROOT
BRANCH   1   6
ATOM      6  C   LIG    1       -3.538  -3.265   3.346  0.00  0.00    +0.170 A 
ATOM      7  N   LIG    1       -4.337  -3.205   2.323  0.00  0.00    -0.380 NA
ATOM      8  O   LIG    1       -4.461  -4.302   1.821  0.00  0.00    +0.080 OA
ATOM      9  C   LIG    1       -3.730  -5.194   2.497  0.00  0.00    +0.170 A 
ATOM     10  C   LIG    1       -3.608  -6.666   2.198  0.00  0.00    +0.240 C 
ATOM     11  N   LIG    1       -3.134  -4.542   3.466  0.00  0.00    -0.430 NA
ENDBRANCH   1   6
BRANCH   1  14
ATOM     12  C   LIG    1       -3.228  -3.738   7.695  0.00  0.00    +0.090 C 
ATOM     13  C   LIG    1       -2.891  -3.446   6.256  0.00  0.00    +0.500 C 
ATOM     14  N   LIG    1       -3.460  -2.398   5.629  0.00  0.00    -0.710 N 
ATOM     15  H   LIG    1       -4.087  -1.830   6.105  0.00  0.00    +0.410 HD
ATOM     16  O   LIG    1       -2.107  -4.155   5.661  0.00  0.00    -0.500 OA
ENDBRANCH   1  14
BRANCH   4  17
ATOM     17  C   LIG    1       -3.079   1.518   3.567  0.00  0.00    +0.320 C 
BRANCH  17  18
ATOM     18  C   LIG    1       -2.974   1.271   2.084  0.00  0.00    -0.010 A 
ATOM     19  N   LIG    1       -1.880   1.208   1.372  0.00  0.00    -0.360 NA
ATOM     20  O   LIG    1       -2.118   0.995   0.200  0.00  0.00    +0.100 OA
ATOM     21  C   LIG    1       -3.428   0.888  -0.015  0.00  0.00    -0.030 A 
ATOM     22  C   LIG    1       -4.175   0.626  -1.296  0.00  0.00    +0.140 C 
ATOM     23  C   LIG    1       -5.601   0.186  -0.940  0.00  0.00    +0.030 C 
ATOM     24  C   LIG    1       -6.213   1.173   0.058  0.00  0.00    +0.030 C 
ATOM     25  C   LIG    1       -5.512   1.028   1.417  0.00  0.00    +0.110 C 
ATOM     26  C   LIG    1       -4.030   1.063   1.187  0.00  0.00    -0.200 A 
ENDBRANCH  17  18
ENDBRANCH   4  17
TORSDOF 4
