REMARK  Name = ZINCrH000004rRTu.0
REMARK                            x       y       z     vdW  Elec       q    Type
REMARK                         _______ _______ _______ _____ _____    ______ ____
ROOT
ATOM      1  N   LIG    1       -3.800   1.071   2.831  0.00  0.00    -0.690 N 
ATOM      2  H   LIG    1       -3.186   1.187   3.573  0.00  0.00    +0.400 HD
ATOM      3  C   LIG    1       -3.400   0.423   1.720  0.00  0.00    +0.720 C 
ATOM      4  N   LIG    1       -2.178  -0.144   1.673  0.00  0.00    -0.600 N 
ATOM      5  O   LIG    1       -4.141   0.350   0.758  0.00  0.00    -0.570 OA
ENDROOT
BRANCH   1  11
ATOM      6  C   LIG    1       -7.799   2.039   5.524  0.00  0.00    +0.100 C 
ATOM      7  C   LIG    1       -7.064   2.058   4.208  0.00  0.00    -0.070 A 
ATOM      8  C   LIG    1       -7.677   2.577   3.083  0.00  0.00    -0.020 A 
ATOM      9  C   LIG    1       -7.006   2.596   1.873  0.00  0.00    +0.020 A 
ATOM     10  C   LIG    1       -5.720   2.102   1.788  0.00  0.00    +0.020 A 
ATOM     11  C   LIG    1       -5.103   1.576   2.916  0.00  0.00    +0.170 A 
ATOM     12  C   LIG    1       -5.779   1.558   4.128  0.00  0.00    -0.030 A 
ENDBRANCH   1  11
BRANCH   4  13
ATOM     13  C   LIG    1       -1.742  -0.848   0.465  0.00  0.00    +0.260 C 
ATOM     14  C   LIG    1       -1.723   0.127  -0.714  0.00  0.00    +0.030 C 
BRANCH  13  15
ATOM     15  C   LIG    1       -2.711  -1.993   0.165  0.00  0.00    +0.170 C 
BRANCH  15  16
ATOM     16  N   LIG    1       -2.787  -2.888   1.327  0.00  0.00    -0.530 NA
ATOM     17  C   LIG    1       -1.551  -3.672   1.469  0.00  0.00    +0.130 C 
ATOM     18  C   LIG    1       -1.649  -4.545   2.723  0.00  0.00    +0.220 C 
ATOM     19  O   LIG    1       -2.809  -5.376   2.630  0.00  0.00    -0.380 OA
ATOM     20  C   LIG    1       -4.031  -4.645   2.492  0.00  0.00    +0.230 C 
ATOM     21  C   LIG    1       -3.957  -3.773   1.236  0.00  0.00    +0.150 C 
ENDBRANCH  15  16
ENDBRANCH  13  15
ENDBRANCH   4  13
BRANCH   4  22
ATOM     22  C   LIG    1       -1.285  -0.055   2.832  0.00  0.00    +0.320 C 
BRANCH  22  23
ATOM     23  C   LIG    1       -0.375   1.136   2.675  0.00  0.00    -0.110 A 
ATOM     24  C   LIG    1        0.798   1.019   1.954  0.00  0.00    +0.020 A 
ATOM     25  C   LIG    1        1.631   2.112   1.806  0.00  0.00    +0.000 A 
ATOM     26  C   LIG    1        1.295   3.320   2.388  0.00  0.00    +0.010 A 
ATOM     27  C   LIG    1        0.124   3.436   3.114  0.00  0.00    +0.000 A 
ATOM     28  C   LIG    1       -0.711   2.343   3.257  0.00  0.00    +0.000 A 
ENDBRANCH  22  23
ENDBRANCH   4  22
TORSDOF 6
