REMARK  Name = ZINCpk00000y6vRg.0
REMARK                            x       y       z     vdW  Elec       q    Type
REMARK                         _______ _______ _______ _____ _____    ______ ____
ROOT
ATOM      1  C   LIG    1        3.614   1.650   1.091  0.00  0.00    +0.500 C 
ATOM      2  N   LIG    1        3.759   2.772   1.824  0.00  0.00    -0.730 N 
ATOM      3  H   LIG    1        2.999   3.141   2.300  0.00  0.00    +0.390 HD
ATOM      4  O   LIG    1        4.565   1.189   0.495  0.00  0.00    -0.500 OA
ENDROOT
BRANCH   2   5
ATOM      5  C   LIG    1        5.063   3.434   1.901  0.00  0.00    +0.250 C 
ATOM      6  C   LIG    1        5.233   4.372   0.702  0.00  0.00    -0.000 C 
ATOM      7  C   LIG    1        4.165   5.467   0.765  0.00  0.00    +0.220 C 
ATOM      8  O   LIG    1        4.279   6.170   2.004  0.00  0.00    -0.360 OA
ATOM      9  C   LIG    1        4.082   5.353   3.159  0.00  0.00    +0.240 C 
ATOM     10  C   LIG    1        5.147   4.253   3.192  0.00  0.00    +0.030 C 
BRANCH   9  11
ATOM     11  C   LIG    1        4.196   6.200   4.400  0.00  0.00    -0.040 A 
ATOM     12  C   LIG    1        5.024   7.247   4.584  0.00  0.00    +0.180 A 
ATOM     13  N   LIG    1        4.815   7.728   5.819  0.00  0.00    -0.490 NA
ATOM     14  C   LIG    1        3.897   7.015   6.410  0.00  0.00    +0.400 A 
ATOM     15  N   LIG    1        3.483   6.050   5.559  0.00  0.00    -0.460 N 
ATOM     16  C   LIG    1        2.463   5.034   5.827  0.00  0.00    +0.320 C 
ENDBRANCH   9  11
ENDBRANCH   2   5
BRANCH   1  17
ATOM     17  C   LIG    1        2.272   0.969   1.012  0.00  0.00    +0.240 C 
BRANCH  17  20
ATOM     18  C   LIG    1        3.216  -2.125  -1.036  0.00  0.00    +0.100 C 
ATOM     19  C   LIG    1        3.029  -0.694  -0.600  0.00  0.00    +0.520 C 
ATOM     20  N   LIG    1        2.455  -0.422   0.588  0.00  0.00    -0.720 N 
ATOM     21  H   LIG    1        2.162  -1.146   1.163  0.00  0.00    +0.400 HD
ATOM     22  O   LIG    1        3.395   0.211  -1.319  0.00  0.00    -0.510 OA
ENDBRANCH  17  20
BRANCH  17  23
ATOM     23  C   LIG    1        1.389   1.699  -0.002  0.00  0.00    +0.050 C 
BRANCH  23  24
ATOM     24  C   LIG    1       -0.013   1.086   0.008  0.00  0.00    -0.020 C 
ATOM     25  C   LIG    1       -0.939   1.683   1.080  0.00  0.00    +0.010 C 
ATOM     26  C   LIG    1       -2.063   1.621   0.029  0.00  0.00    +0.010 C 
ATOM     27  C   LIG    1       -0.959   1.695  -1.040  0.00  0.00    +0.010 C 
ENDBRANCH  23  24
ENDBRANCH  17  23
ENDBRANCH   1  17
TORSDOF 6
