REMARK  Name = ZINCvU0000000Gar.0
REMARK                            x       y       z     vdW  Elec       q    Type
REMARK                         _______ _______ _______ _____ _____    ______ ____
ROOT
ATOM      1  O   LIG    1       -3.104  10.243   0.371  0.00  0.00    -0.460 OA
ATOM      2  C   LIG    1       -2.187   9.453   0.246  0.00  0.00    +0.560 C 
ATOM      3  C   LIG    1       -0.780   9.873   0.262  0.00  0.00    -0.220 C 
ATOM      4  S   LIG    1        0.135   8.369   0.046  0.00  0.00    +0.020 S 
ATOM      5  C   LIG    1       -1.301   7.335  -0.047  0.00  0.00    +0.380 C 
ATOM      6  N   LIG    1       -1.319   6.030  -0.213  0.00  0.00    -0.470 NA
ATOM      7  C   LIG    1       -0.290  11.129   0.409  0.00  0.00    +0.210 C 
ATOM      8  N   LIG    1       -2.386   8.156   0.080  0.00  0.00    -0.530 N 
ENDROOT
BRANCH   6   9
ATOM      9  C   LIG    1       -0.149   5.331  -0.250  0.00  0.00    +0.110 A 
ATOM     10  C   LIG    1        0.821   5.518   0.728  0.00  0.00    -0.020 A 
ATOM     11  C   LIG    1        2.011   4.804   0.687  0.00  0.00    +0.030 A 
ATOM     12  C   LIG    1        2.276   3.905  -0.299  0.00  0.00    +0.020 A 
ATOM     13  C   LIG    1        1.342   3.665  -1.321  0.00  0.00    -0.040 A 
ATOM     14  C   LIG    1        1.601   2.739  -2.346  0.00  0.00    +0.020 A 
ATOM     15  C   LIG    1        0.671   2.535  -3.320  0.00  0.00    +0.010 A 
ATOM     16  C   LIG    1       -0.533   3.233  -3.319  0.00  0.00    +0.000 A 
ATOM     17  C   LIG    1       -0.820   4.134  -2.336  0.00  0.00    +0.040 A 
ATOM     18  C   LIG    1        0.113   4.370  -1.321  0.00  0.00    -0.040 A 
ENDBRANCH   6   9
BRANCH   7  19
ATOM     19  C   LIG    1        1.148  11.382   0.240  0.00  0.00    -0.060 A 
ATOM     20  C   LIG    1        1.938  10.486  -0.488  0.00  0.00    +0.030 A 
ATOM     21  C   LIG    1        3.287  10.729  -0.642  0.00  0.00    +0.060 A 
ATOM     22  C   LIG    1        3.860  11.856  -0.079  0.00  0.00    +0.010 A 
ATOM     23  C   LIG    1        3.085  12.749   0.644  0.00  0.00    +0.100 A 
ATOM     24  F   LIG    1        3.653  13.846   1.191  0.00  0.00    -0.130 F 
ATOM     25  C   LIG    1        1.732  12.522   0.803  0.00  0.00    +0.030 A 
ENDBRANCH   7  19
BRANCH   8  26
ATOM     26  C   LIG    1       -3.744   7.609   0.039  0.00  0.00    +0.310 C 
BRANCH  26  27
ATOM     27  C   LIG    1       -4.187   7.236   1.455  0.00  0.00    +0.160 C 
ATOM     28  C   LIG    1       -5.569   6.548   1.408  0.00  0.00    +0.020 C 
ATOM     29  C   LIG    1       -6.273   7.140   2.661  0.00  0.00    +0.010 C 
ATOM     30  C   LIG    1       -5.680   8.571   2.685  0.00  0.00    +0.200 C 
ATOM     31  O   LIG    1       -4.319   8.420   2.251  0.00  0.00    -0.370 OA
ENDBRANCH  26  27
ENDBRANCH   8  26
TORSDOF 4
