REMARK  Name = ZINCpe000000SsH7.0
REMARK                            x       y       z     vdW  Elec       q    Type
REMARK                         _______ _______ _______ _____ _____    ______ ____
ROOT
ATOM      1  C   LIG    1       -0.883   2.183   0.467  0.00  0.00    -0.070 A 
ATOM      2  C   LIG    1        0.334   1.637   0.879  0.00  0.00    +0.050 A 
ATOM      3  C   LIG    1        1.387   2.469   1.197  0.00  0.00    +0.130 A 
ATOM      4  C   LIG    1        1.238   3.842   1.114  0.00  0.00    -0.660 A 
ATOM      5  C   LIG    1        0.033   4.390   0.712  0.00  0.00    +0.130 A 
ATOM      6  C   LIG    1       -1.029   3.569   0.392  0.00  0.00    +0.020 A 
ENDROOT
BRANCH   1   8
ATOM      7  N   LIG    1       -3.249   1.564   0.589  0.00  0.00    -0.600 N 
ATOM      8  C   LIG    1       -2.014   1.297   0.119  0.00  0.00    +0.560 C 
ATOM      9  O   LIG    1       -1.831   0.328  -0.591  0.00  0.00    -0.520 OA
BRANCH   7  10
ATOM     10  C   LIG    1       -3.496   2.798   1.339  0.00  0.00    +0.260 C 
ATOM     11  C   LIG    1       -4.080   3.857   0.401  0.00  0.00    +0.030 C 
ENDBRANCH   7  10
BRANCH   7  12
ATOM     12  C   LIG    1       -4.344   0.621   0.350  0.00  0.00    +0.330 C 
BRANCH  12  14
ATOM     13  C   LIG    1       -5.215  -0.174   2.488  0.00  0.00    +0.020 C 
ATOM     14  C   LIG    1       -4.404  -0.376   1.479  0.00  0.00    -0.140 C 
ATOM     15  C   LIG    1       -3.531  -1.604   1.447  0.00  0.00    +0.070 C 
ENDBRANCH  12  14
ENDBRANCH   7  12
ENDBRANCH   1   8
BRANCH   4  16
ATOM     16  S   LIG    1        2.589   4.897   1.522  0.00  0.00    +2.690 S 
ATOM     17  O   LIG    1        3.435   4.150   2.385  0.00  0.00    -0.940 OA
ATOM     18  O   LIG    1        2.024   6.151   1.880  0.00  0.00    -0.940 OA
BRANCH  16  19
ATOM     19  N   LIG    1        3.449   5.153   0.130  0.00  0.00    -1.000 NA
ATOM     20  C   LIG    1        3.137   6.277  -0.768  0.00  0.00    +0.300 C 
ATOM     21  C   LIG    1        4.367   7.185  -0.841  0.00  0.00    +0.280 C 
ATOM     22  N   LIG    1        5.576   6.401  -1.053  0.00  0.00    -0.720 N 
ATOM     23  H   LIG    1        6.346   6.853  -1.432  0.00  0.00    +0.400 HD
ATOM     24  C   LIG    1        5.698   5.105  -0.762  0.00  0.00    +0.520 C 
ATOM     25  O   LIG    1        6.781   4.579  -0.910  0.00  0.00    -0.540 OA
ATOM     26  C   LIG    1        4.559   4.269  -0.256  0.00  0.00    +0.340 C 
ENDBRANCH  16  19
ENDBRANCH   4  16
TORSDOF 6
