REMARK  Name = ZINCvU0000000CXu.0
REMARK                            x       y       z     vdW  Elec       q    Type
REMARK                         _______ _______ _______ _____ _____    ______ ____
ROOT
ATOM      1  C   LIG    1        2.305   5.529   0.055  0.00  0.00    -0.690 A 
ATOM      2  C   LIG    1        1.140   6.255   0.235  0.00  0.00    +0.170 A 
ATOM      3  C   LIG    1       -0.078   5.606   0.336  0.00  0.00    +0.000 A 
ATOM      4  C   LIG    1       -0.139   4.231   0.254  0.00  0.00    +0.140 A 
ATOM      5  C   LIG    1        1.033   3.492   0.078  0.00  0.00    -0.140 A 
ATOM      6  C   LIG    1        2.258   4.153  -0.024  0.00  0.00    +0.210 A 
ENDROOT
BRANCH   1   7
ATOM      7  S   LIG    1        3.850   6.366  -0.073  0.00  0.00    +2.690 S 
ATOM      8  O   LIG    1        4.848   5.426   0.302  0.00  0.00    -0.930 OA
ATOM      9  O   LIG    1        3.683   7.620   0.572  0.00  0.00    -0.940 OA
BRANCH   7  11
ATOM     10  C   LIG    1        3.709   7.996  -2.227  0.00  0.00    +0.320 C 
ATOM     11  N   LIG    1        4.098   6.695  -1.677  0.00  0.00    -0.950 N 
BRANCH  11  12
ATOM     12  C   LIG    1        4.676   5.731  -2.507  0.00  0.00    +0.140 A 
ATOM     13  C   LIG    1        5.956   5.262  -2.240  0.00  0.00    +0.040 A 
ATOM     14  C   LIG    1        6.524   4.306  -3.059  0.00  0.00    +0.050 A 
ATOM     15  C   LIG    1        5.825   3.823  -4.150  0.00  0.00    +0.040 A 
ATOM     16  C   LIG    1        4.551   4.292  -4.422  0.00  0.00    -0.030 A 
ATOM     17 CL   LIG    1        3.677   3.683  -5.792  0.00  0.00    -0.060 Cl
ATOM     18  C   LIG    1        3.975   5.245  -3.603  0.00  0.00    +0.030 A 
ENDBRANCH  11  12
ENDBRANCH   7  11
ENDBRANCH   1   7
BRANCH   5  19
ATOM     19  C   LIG    1        0.975   2.018  -0.006  0.00  0.00    +0.510 C 
ATOM     20  O   LIG    1        1.996   1.379  -0.164  0.00  0.00    -0.470 OA
BRANCH  19  21
ATOM     21  O   LIG    1       -0.209   1.384   0.093  0.00  0.00    -0.290 OA
BRANCH  21  22
ATOM     22  C   LIG    1       -0.180   0.025   0.129  0.00  0.00    +0.090 A 
ATOM     23  C   LIG    1       -0.665  -0.688  -0.930  0.00  0.00    +0.040 A 
ATOM     24  C   LIG    1       -0.635  -2.091  -0.894  0.00  0.00    -0.040 A 
ATOM     25  C   LIG    1       -1.124  -2.859  -1.965  0.00  0.00    +0.030 A 
ATOM     26  C   LIG    1       -1.079  -4.217  -1.896  0.00  0.00    +0.020 A 
ATOM     27  C   LIG    1       -0.554  -4.862  -0.778  0.00  0.00    +0.020 A 
ATOM     28  C   LIG    1       -0.072  -4.151   0.279  0.00  0.00    +0.030 A 
ATOM     29  C   LIG    1       -0.101  -2.747   0.244  0.00  0.00    -0.050 A 
ATOM     30  C   LIG    1        0.390  -1.981   1.316  0.00  0.00    +0.060 A 
ATOM     31  C   LIG    1        0.351  -0.624   1.248  0.00  0.00    +0.010 A 
ENDBRANCH  21  22
ENDBRANCH  19  21
ENDBRANCH   5  19
TORSDOF 6
