REMARK  Name = ZINCqH0000007jL1.0
REMARK                            x       y       z     vdW  Elec       q    Type
REMARK                         _______ _______ _______ _____ _____    ______ ____
ROOT
ATOM      1  N   LIG    1        1.102   1.809   0.084  0.00  0.00    -0.650 N 
ATOM      2  H   LIG    1        1.099   2.776   0.019  0.00  0.00    +0.420 HD
ATOM      3  C   LIG    1       -0.064   1.134   0.143  0.00  0.00    +0.570 C 
ATOM      4  O   LIG    1       -0.065  -0.081   0.119  0.00  0.00    -0.510 OA
ENDROOT
BRANCH   3   5
ATOM      5  C   LIG    1       -1.341   1.873   0.232  0.00  0.00    -0.070 A 
ATOM      6  C   LIG    1       -1.376   3.259   0.152  0.00  0.00    +0.010 A 
ATOM      7  C   LIG    1       -2.598   3.923   0.240  0.00  0.00    +0.150 A 
ATOM      8  N   LIG    1       -3.726   3.277   0.396  0.00  0.00    -0.450 NA
ATOM      9  C   LIG    1       -3.770   1.944   0.480  0.00  0.00    +0.130 A 
ATOM     10  C   LIG    1       -4.992   1.269   0.648  0.00  0.00    +0.040 A 
ATOM     11  C   LIG    1       -5.009  -0.090   0.714  0.00  0.00    +0.030 A 
ATOM     12  C   LIG    1       -3.830  -0.828   0.635  0.00  0.00    +0.020 A 
ATOM     13  C   LIG    1       -2.627  -0.208   0.478  0.00  0.00    +0.070 A 
ATOM     14  C   LIG    1       -2.622   5.427   0.152  0.00  0.00    +0.130 C 
ATOM     15  C   LIG    1       -2.574   1.189   0.396  0.00  0.00    -0.070 A 
ENDBRANCH   3   5
BRANCH   1  21
ATOM     16  C   LIG    1        3.461   1.681  -0.440  0.00  0.00    +0.090 A 
ATOM     17  C   LIG    1        4.661   0.990  -0.408  0.00  0.00    -0.020 A 
ATOM     18  C   LIG    1        4.725  -0.263   0.172  0.00  0.00    +0.050 A 
ATOM     19  C   LIG    1        3.586  -0.833   0.725  0.00  0.00    +0.130 A 
ATOM     20  C   LIG    1        2.382  -0.142   0.701  0.00  0.00    +0.040 A 
ATOM     21  C   LIG    1        2.316   1.112   0.114  0.00  0.00    +0.140 A 
BRANCH  19  22
ATOM     22  N   LIG    1        3.653  -2.103   1.313  0.00  0.00    -0.670 N 
ATOM     23  H   LIG    1        2.860  -2.659   1.358  0.00  0.00    +0.410 HD
ATOM     24  C   LIG    1        4.821  -2.552   1.815  0.00  0.00    +0.510 C 
ATOM     25  O   LIG    1        5.787  -1.819   1.853  0.00  0.00    -0.530 OA
ATOM     26  C   LIG    1        4.926  -3.964   2.330  0.00  0.00    +0.110 C 
ENDBRANCH  19  22
BRANCH  16  28
ATOM     27  C   LIG    1        4.613   3.436  -1.558  0.00  0.00    +0.250 C 
ATOM     28  O   LIG    1        3.401   2.914  -1.010  0.00  0.00    -0.320 OA
ENDBRANCH  16  28
ENDBRANCH   1  21
TORSDOF 4
