REMARK  Name = ZINCkj00000vaXnS.1
REMARK                            x       y       z     vdW  Elec       q    Type
REMARK                         _______ _______ _______ _____ _____    ______ ____
ROOT
ATOM      1  N   LIG    1       -1.435   3.960   2.486  0.00  0.00    -0.700 N 
ATOM      2  H   LIG    1       -1.788   3.322   3.126  0.00  0.00    +0.390 HD
ENDROOT
BRANCH   1   3
ATOM      3  C   LIG    1       -1.577   5.282   2.706  0.00  0.00    +0.520 C 
ATOM      4  S   LIG    1       -0.954   6.409   1.578  0.00  0.00    -0.490 S 
BRANCH   3   5
ATOM      5  N   LIG    1       -2.210   5.717   3.813  0.00  0.00    -0.610 N 
ATOM      6  H   LIG    1       -2.629   5.081   4.414  0.00  0.00    +0.410 HD
BRANCH   5  11
ATOM      7  C   LIG    1       -2.380  11.237   4.867  0.00  0.00    +0.110 C 
ATOM      8  C   LIG    1       -2.352   9.751   4.618  0.00  0.00    -0.150 A 
ATOM      9  C   LIG    1       -2.869   8.872   5.559  0.00  0.00    +0.080 A 
ATOM     10  C   LIG    1       -2.823   7.515   5.291  0.00  0.00    -0.060 A 
ATOM     11  C   LIG    1       -2.263   7.081   4.096  0.00  0.00    +0.320 A 
ATOM     12  N   LIG    1       -1.775   7.950   3.225  0.00  0.00    -0.410 NA
ATOM     13  C   LIG    1       -1.810   9.249   3.450  0.00  0.00    +0.280 A 
ENDBRANCH   5  11
ENDBRANCH   3   5
ENDBRANCH   1   3
BRANCH   1  14
ATOM     14  C   LIG    1       -0.746   3.488   1.282  0.00  0.00    +0.330 C 
BRANCH  14  15
ATOM     15  C   LIG    1       -0.722   1.958   1.277  0.00  0.00    +0.010 C 
BRANCH  15  16
ATOM     16  C   LIG    1       -0.003   1.464   0.019  0.00  0.00    +0.280 C 
BRANCH  16  17
ATOM     17  N   LIG    1        0.021  -0.005   0.014  0.00  0.00    -0.390 N 
ATOM     18  C   LIG    1        0.833  -0.486   1.139  0.00  0.00    +0.230 C 
ATOM     19  C   LIG    1        0.856  -2.016   1.131  0.00  0.00    +0.260 C 
ATOM     20  O   LIG    1        1.372  -2.474  -0.122  0.00  0.00    -0.360 OA
ATOM     21  C   LIG    1        0.627  -2.011  -1.252  0.00  0.00    +0.260 C 
ATOM     22  C   LIG    1        0.604  -0.480  -1.248  0.00  0.00    +0.240 C 
ATOM     23  H   LIG    1       -0.921  -0.357   0.103  0.00  0.00    +0.420 HD
ENDBRANCH  16  17
ENDBRANCH  15  16
ENDBRANCH  14  15
ENDBRANCH   1  14
TORSDOF 7
