REMARK  Name = ZINCvU0000000DPZ.0
REMARK                            x       y       z     vdW  Elec       q    Type
REMARK                         _______ _______ _______ _____ _____    ______ ____
ROOT
ATOM      1  N   LIG    1       -7.927   5.627   2.440  0.00  0.00    -0.410 N 
ATOM      2  C   LIG    1       -8.959   6.213   1.757  0.00  0.00    +0.210 A 
ATOM      3  N   LIG    1       -8.709   6.076   0.485  0.00  0.00    -0.270 NA
ATOM      4  N   LIG    1       -7.597   5.454   0.317  0.00  0.00    -0.290 NA
ATOM      5  C   LIG    1       -7.071   5.157   1.482  0.00  0.00    +0.160 A 
ENDROOT
BRANCH   1  10
ATOM      6  C   LIG    1       -7.322   5.240   8.070  0.00  0.00    +0.100 C 
ATOM      7  C   LIG    1       -7.482   5.343   6.575  0.00  0.00    -0.050 A 
ATOM      8  C   LIG    1       -6.972   6.436   5.900  0.00  0.00    +0.020 A 
ATOM      9  C   LIG    1       -7.118   6.533   4.530  0.00  0.00    +0.050 A 
ATOM     10  C   LIG    1       -7.777   5.531   3.831  0.00  0.00    +0.080 A 
ATOM     11  C   LIG    1       -8.294   4.437   4.513  0.00  0.00    -0.050 A 
ATOM     12  C   LIG    1       -9.015   3.350   3.758  0.00  0.00    +0.110 C 
ATOM     13  C   LIG    1       -8.139   4.343   5.882  0.00  0.00    +0.020 A 
ENDBRANCH   1  10
BRANCH   2  14
ATOM     14  C   LIG    1      -10.164   6.885   2.363  0.00  0.00    +0.210 C 
BRANCH  14  15
ATOM     15  C   LIG    1      -11.259   5.869   2.561  0.00  0.00    -0.090 A 
ATOM     16  C   LIG    1      -12.184   5.644   1.559  0.00  0.00    +0.030 A 
ATOM     17  C   LIG    1      -13.186   4.709   1.739  0.00  0.00    +0.000 A 
ATOM     18  C   LIG    1      -13.269   4.005   2.926  0.00  0.00    +0.010 A 
ATOM     19  C   LIG    1      -12.347   4.234   3.931  0.00  0.00    +0.000 A 
ATOM     20  C   LIG    1      -11.343   5.165   3.748  0.00  0.00    +0.010 A 
ENDBRANCH  14  15
ENDBRANCH   2  14
BRANCH   5  21
ATOM     21  S   LIG    1       -5.552   4.306   1.760  0.00  0.00    +0.030 S 
BRANCH  21  22
ATOM     22  C   LIG    1       -5.034   4.022   0.049  0.00  0.00    +0.160 C 
BRANCH  22  23
ATOM     23  C   LIG    1       -3.719   3.286   0.038  0.00  0.00    -0.030 A 
ATOM     24  C   LIG    1       -3.700   1.904   0.030  0.00  0.00    +0.050 A 
ATOM     25  C   LIG    1       -2.494   1.229   0.021  0.00  0.00    +0.110 A 
ATOM     26  C   LIG    1       -1.306   1.936   0.019  0.00  0.00    -0.040 A 
ATOM     27  C   LIG    1       -1.325   3.319   0.032  0.00  0.00    +0.110 A 
ATOM     28  C   LIG    1       -2.531   3.993   0.036  0.00  0.00    +0.050 A 
BRANCH  26  29
ATOM     29  N   LIG    1       -0.014   1.214   0.009  0.00  0.00    +0.030 N 
ATOM     30  O   LIG    1        1.032   1.837   0.002  0.00  0.00    -0.150 OA
ATOM     31  O   LIG    1        0.002  -0.004   0.002  0.00  0.00    -0.160 OA
ENDBRANCH  26  29
ENDBRANCH  22  23
ENDBRANCH  21  22
ENDBRANCH   5  21
TORSDOF 7
