REMARK  Name = ZINCpk00001vIjTZ.0
REMARK                            x       y       z     vdW  Elec       q    Type
REMARK                         _______ _______ _______ _____ _____    ______ ____
ROOT
ATOM      1  N   LIG    1        2.392   1.086   0.000  0.00  0.00    -0.630 N 
ATOM      2  C   LIG    1        2.427  -0.378   0.121  0.00  0.00    +0.280 C 
ATOM      3  C   LIG    1        3.192  -0.947  -1.086  0.00  0.00    +0.260 C 
ATOM      4  N   LIG    1        4.460  -0.217  -1.223  0.00  0.00    -0.600 N 
ATOM      5  C   LIG    1        4.425   1.248  -1.338  0.00  0.00    +0.290 C 
ATOM      6  C   LIG    1        5.634  -0.879  -1.243  0.00  0.00    +0.540 C 
ATOM      7  O   LIG    1        6.680  -0.261  -1.255  0.00  0.00    -0.530 OA
ATOM      8  C   LIG    1        3.660   1.816  -0.137  0.00  0.00    +0.270 C 
ENDROOT
BRANCH   1  13
ATOM      9  O   LIG    1       -2.248   3.778   0.079  0.00  0.00    -0.560 OA
ATOM     10  C   LIG    1       -1.198   3.154   0.061  0.00  0.00    +0.500 A 
ATOM     11  C   LIG    1       -1.220   1.749   0.051  0.00  0.00    -0.050 A 
ATOM     12  C   LIG    1       -0.042   1.062   0.032  0.00  0.00    +0.090 A 
ATOM     13  C   LIG    1        1.170   1.775   0.021  0.00  0.00    +0.110 A 
ATOM     14  C   LIG    1        1.155   3.134   0.031  0.00  0.00    +0.180 A 
ATOM     15  N   LIG    1       -0.024   3.812   0.056  0.00  0.00    -0.590 N 
ATOM     16  H   LIG    1       -0.019   4.782   0.067  0.00  0.00    +0.420 HD
ENDBRANCH   1  13
BRANCH   6  17
ATOM     17  C   LIG    1        5.648  -2.355  -1.250  0.00  0.00    +0.020 C 
ATOM     18  C   LIG    1        6.815  -3.016  -1.163  0.00  0.00    +0.010 C 
BRANCH  18  19
ATOM     19  C   LIG    1        6.830  -4.491  -1.170  0.00  0.00    +0.420 C 
ATOM     20  O   LIG    1        5.787  -5.109  -1.255  0.00  0.00    -0.440 OA
BRANCH  19  21
ATOM     21  C   LIG    1        8.113  -5.217  -1.074  0.00  0.00    -0.170 A 
ATOM     22  C   LIG    1        9.315  -4.510  -0.982  0.00  0.00    +0.060 A 
ATOM     23  C   LIG    1       10.508  -5.195  -0.887  0.00  0.00    +0.000 A 
ATOM     24  C   LIG    1       10.518  -6.579  -0.894  0.00  0.00    +0.050 A 
ATOM     25  C   LIG    1        9.332  -7.286  -0.991  0.00  0.00    +0.000 A 
ATOM     26  C   LIG    1        8.130  -6.614  -1.081  0.00  0.00    +0.080 A 
ENDBRANCH  19  21
ENDBRANCH  18  19
ENDBRANCH   6  17
TORSDOF 4
