REMARK  Name = ZINCrH000004nOio.0
REMARK                            x       y       z     vdW  Elec       q    Type
REMARK                         _______ _______ _______ _____ _____    ______ ____
ROOT
ATOM      1  S   LIG    1        2.790   4.173  -0.027  0.00  0.00    +2.680 S 
ATOM      2  O   LIG    1        2.373   3.030  -0.761  0.00  0.00    -0.930 OA
ATOM      3  O   LIG    1        1.910   5.229   0.334  0.00  0.00    -0.920 OA
ENDROOT
BRANCH   1   8
ATOM      4  C   LIG    1        5.508   4.938  -2.886  0.00  0.00    -0.680 A 
ATOM      5  C   LIG    1        6.146   6.065  -2.405  0.00  0.00    +0.210 A 
ATOM      6  C   LIG    1        5.766   6.611  -1.193  0.00  0.00    +0.020 A 
ATOM      7  C   LIG    1        4.739   6.034  -0.466  0.00  0.00    +0.100 A 
ATOM      8  C   LIG    1        4.098   4.908  -0.951  0.00  0.00    -0.700 A 
ATOM      9 CL   LIG    1        4.257   6.722   1.053  0.00  0.00    -0.030 Cl
ATOM     10  C   LIG    1        4.482   4.360  -2.160  0.00  0.00    +0.260 A 
BRANCH   4  12
ATOM     11  C   LIG    1        4.960   5.081  -5.655  0.00  0.00    -0.230 C 
ATOM     12  S   LIG    1        5.997   4.239  -4.428  0.00  0.00    +2.500 S 
ATOM     13  O   LIG    1        5.634   2.869  -4.323  0.00  0.00    -0.920 OA
ATOM     14  O   LIG    1        7.356   4.628  -4.573  0.00  0.00    -0.930 OA
ENDBRANCH   4  12
ENDBRANCH   1   8
BRANCH   1  15
ATOM     15  N   LIG    1        3.445   3.607   1.385  0.00  0.00    -0.930 N 
BRANCH  15  16
ATOM     16  C   LIG    1        4.345   2.539   1.359  0.00  0.00    +0.150 A 
ATOM     17  C   LIG    1        4.292   1.609   0.328  0.00  0.00    -0.010 A 
ATOM     18  C   LIG    1        5.186   0.557   0.303  0.00  0.00    +0.050 A 
ATOM     19  C   LIG    1        6.127   0.423   1.307  0.00  0.00    -0.010 A 
ATOM     20  C   LIG    1        6.179   1.343   2.338  0.00  0.00    +0.040 A 
ATOM     21  C   LIG    1        5.291   2.401   2.366  0.00  0.00    -0.010 A 
ENDBRANCH  15  16
BRANCH  15  22
ATOM     22  C   LIG    1        3.082   4.227   2.662  0.00  0.00    +0.430 C 
BRANCH  22  23
ATOM     23  C   LIG    1        1.955   3.451   3.294  0.00  0.00    -0.050 A 
ATOM     24  C   LIG    1        2.092   2.413   4.138  0.00  0.00    -0.020 A 
ATOM     25  C   LIG    1        0.788   1.990   4.483  0.00  0.00    -0.070 A 
ATOM     26  C   LIG    1       -0.069   2.796   3.829  0.00  0.00    +0.180 A 
ATOM     27  O   LIG    1        0.644   3.682   3.115  0.00  0.00    -0.170 OA
ENDBRANCH  22  23
ENDBRANCH  15  22
ENDBRANCH   1  15
TORSDOF 6
