REMARK  Name = ZINCkj000005i5We.1
REMARK                            x       y       z     vdW  Elec       q    Type
REMARK                         _______ _______ _______ _____ _____    ______ ____
ROOT
ATOM      1  C   LIG    1       -0.633   1.528  -1.675  0.00  0.00    +0.280 C 
ENDROOT
BRANCH   1   2
ATOM      2  C   LIG    1       -1.042   2.927  -1.289  0.00  0.00    +0.520 C 
ATOM      3  N   LIG    1       -2.164   3.467  -1.804  0.00  0.00    -0.580 N 
ATOM      4  C   LIG    1       -2.513   4.869  -1.534  0.00  0.00    +0.220 C 
ATOM      5  C   LIG    1       -2.746   5.581  -2.876  0.00  0.00    +0.020 C 
ATOM      6  C   LIG    1       -3.801   4.815  -3.677  0.00  0.00    +0.010 C 
ATOM      7  C   LIG    1       -3.296   3.399  -3.965  0.00  0.00    +0.020 C 
ATOM      8  C   LIG    1       -1.365   5.547  -0.784  0.00  0.00    +0.070 C 
ATOM      9  C   LIG    1       -3.066   2.663  -2.641  0.00  0.00    +0.220 C 
ATOM     10  C   LIG    1       -4.402   2.475  -1.921  0.00  0.00    +0.040 C 
ATOM     11  O   LIG    1       -0.361   3.566  -0.515  0.00  0.00    -0.530 OA
ENDBRANCH   1   2
BRANCH   1  12
ATOM     12  N   LIG    1        0.636   1.190  -1.017  0.00  0.00    -0.370 N 
ATOM     13  H   LIG    1        0.545   1.325  -0.021  0.00  0.00    +0.440 HD
BRANCH  12  14
ATOM     14  C   LIG    1        0.972  -0.213  -1.292  0.00  0.00    +0.270 C 
BRANCH  14  15
ATOM     15  C   LIG    1        2.217  -0.605  -0.495  0.00  0.00    +0.200 C 
BRANCH  15  17
ATOM     16  C   LIG    1        3.027  -0.905   1.741  0.00  0.00    +0.240 C 
ATOM     17  O   LIG    1        1.924  -0.554   0.902  0.00  0.00    -0.400 OA
ENDBRANCH  15  17
ENDBRANCH  14  15
ENDBRANCH  12  14
BRANCH  12  18
ATOM     18  C   LIG    1        1.702   2.059  -1.533  0.00  0.00    +0.280 C 
BRANCH  18  19
ATOM     19  C   LIG    1        1.796   1.903  -3.052  0.00  0.00    +0.200 C 
BRANCH  19  20
ATOM     20  O   LIG    1        0.693   2.571  -3.669  0.00  0.00    -0.390 OA
ATOM     21  C   LIG    1        0.686   2.486  -5.096  0.00  0.00    +0.230 C 
ENDBRANCH  19  20
ENDBRANCH  18  19
ENDBRANCH  12  18
ENDBRANCH   1  12
TORSDOF 8
