REMARK  Name = ZINCpk000004ATKa.0
REMARK                            x       y       z     vdW  Elec       q    Type
REMARK                         _______ _______ _______ _____ _____    ______ ____
ROOT
ATOM      1  C   LIG    1        1.681  -2.674   1.246  0.00  0.00    +0.140 A 
ATOM      2  C   LIG    1        2.822  -2.012   0.804  0.00  0.00    +0.070 A 
ATOM      3  C   LIG    1        3.884  -2.725   0.285  0.00  0.00    +0.020 A 
ATOM      4  C   LIG    1        3.816  -4.107   0.191  0.00  0.00    +0.140 A 
ATOM      5  C   LIG    1        2.668  -4.780   0.629  0.00  0.00    -0.130 A 
ATOM      6  C   LIG    1        1.599  -4.053   1.158  0.00  0.00    +0.030 A 
ENDROOT
BRANCH   5   7
ATOM      7  C   LIG    1        2.588  -6.250   0.531  0.00  0.00    +0.570 C 
ATOM      8  N   LIG    1        1.578  -6.827  -0.150  0.00  0.00    -0.610 N 
ATOM      9  C   LIG    1        0.494  -6.011  -0.714  0.00  0.00    +0.270 C 
ATOM     10  C   LIG    1        0.361  -6.332  -2.206  0.00  0.00    +0.020 C 
ATOM     11  C   LIG    1        0.170  -7.840  -2.384  0.00  0.00    +0.050 C 
ATOM     12  C   LIG    1        1.395  -8.579  -1.838  0.00  0.00    -0.020 C 
ATOM     13  C   LIG    1        1.543  -8.282  -0.347  0.00  0.00    +0.310 C 
ATOM     14  O   LIG    1        3.434  -6.942   1.065  0.00  0.00    -0.510 OA
BRANCH  12  15
ATOM     15  C   LIG    1        1.220 -10.062  -2.043  0.00  0.00    +0.520 C 
ATOM     16  N   LIG    1        2.302 -10.858  -2.153  0.00  0.00    -0.620 N 
ATOM     17  C   LIG    1        3.644 -10.299  -1.981  0.00  0.00    +0.280 C 
ATOM     18  C   LIG    1        2.134 -12.284  -2.444  0.00  0.00    +0.290 C 
ATOM     19  O   LIG    1        0.107 -10.538  -2.109  0.00  0.00    -0.530 OA
ENDBRANCH  12  15
ENDBRANCH   5   7
BRANCH   1  21
ATOM     20  C   LIG    1        0.844  -0.803   2.455  0.00  0.00    +0.550 C 
ATOM     21  N   LIG    1        0.611  -1.943   1.776  0.00  0.00    -0.670 N 
ATOM     22  H   LIG    1       -0.299  -2.258   1.654  0.00  0.00    +0.410 HD
ATOM     23  O   LIG    1        1.986  -0.454   2.683  0.00  0.00    -0.520 OA
BRANCH  20  25
ATOM     24  C   LIG    1       -0.053   1.145   3.592  0.00  0.00    +0.160 C 
ATOM     25  C   LIG    1       -0.283   0.019   2.921  0.00  0.00    -0.090 C 
ENDBRANCH  20  25
ENDBRANCH   1  21
BRANCH   4  26
ATOM     26  O   LIG    1        4.859  -4.805  -0.325  0.00  0.00    -0.480 OA
ATOM     27  H   LIG    1        4.811  -4.935  -1.282  0.00  0.00    +0.390 HD
ENDBRANCH   4  26
TORSDOF 5
