REMARK  Name = ZINCrD0000074dxh.0
REMARK                            x       y       z     vdW  Elec       q    Type
REMARK                         _______ _______ _______ _____ _____    ______ ____
ROOT
ATOM      1  C   LIG    1        1.577   2.464  -1.420  0.00  0.00    +0.090 C 
ATOM      2  C   LIG    1        1.280   1.980   0.001  0.00  0.00    +0.000 C 
ENDROOT
BRANCH   2   3
ATOM      3  C   LIG    1       -0.014   1.209   0.009  0.00  0.00    +0.540 C 
ATOM      4  N   LIG    1       -1.191   1.867   0.018  0.00  0.00    -0.710 N 
ATOM      5  H   LIG    1       -1.204   2.837   0.023  0.00  0.00    +0.410 HD
ATOM      6  O   LIG    1        0.002  -0.004   0.002  0.00  0.00    -0.510 OA
BRANCH   4   7
ATOM      7  C   LIG    1       -2.449   1.117   0.020  0.00  0.00    +0.290 C 
ATOM      8  C   LIG    1       -3.552   1.975   0.645  0.00  0.00    +0.010 C 
ATOM      9  C   LIG    1       -4.902   1.299   0.371  0.00  0.00    +0.260 C 
ATOM     10  O   LIG    1       -5.130   1.305  -1.039  0.00  0.00    -0.320 OA
ATOM     11  C   LIG    1       -4.128   0.868  -1.846  0.00  0.00    +0.140 A 
ATOM     12  C   LIG    1       -4.435   0.525  -3.159  0.00  0.00    -0.020 A 
ATOM     13  C   LIG    1       -3.443   0.085  -4.012  0.00  0.00    +0.050 A 
ATOM     14  C   LIG    1       -2.141  -0.017  -3.561  0.00  0.00    -0.040 A 
ATOM     15  C   LIG    1       -1.833   0.320  -2.257  0.00  0.00    +0.060 A 
ATOM     16  C   LIG    1       -2.824   0.761  -1.397  0.00  0.00    -0.180 A 
ENDBRANCH   4   7
ENDBRANCH   2   3
BRANCH   2  17
ATOM     17  S   LIG    1        2.628   0.905   0.567  0.00  0.00    +0.100 S 
BRANCH  17  18
ATOM     18  C   LIG    1        4.007   2.000   0.633  0.00  0.00    +0.190 A 
ATOM     19  N   LIG    1        5.226   1.673   0.995  0.00  0.00    -0.280 NA
ATOM     20  N   LIG    1        6.003   2.839   0.902  0.00  0.00    -0.320 N 
ATOM     21  C   LIG    1        5.176   3.815   0.480  0.00  0.00    +0.500 A 
ATOM     22  N   LIG    1        3.985   3.300   0.318  0.00  0.00    -0.530 NA
BRANCH  20  23
ATOM     23  C   LIG    1        7.368   2.963   1.192  0.00  0.00    +0.140 A 
ATOM     24  C   LIG    1        8.002   4.189   1.046  0.00  0.00    +0.000 A 
ATOM     25  C   LIG    1        9.347   4.309   1.337  0.00  0.00    +0.050 A 
ATOM     26  C   LIG    1       10.064   3.207   1.764  0.00  0.00    +0.010 A 
ATOM     27  C   LIG    1        9.437   1.983   1.906  0.00  0.00    +0.040 A 
ATOM     28  C   LIG    1        8.091   1.858   1.621  0.00  0.00    +0.030 A 
ENDBRANCH  20  23
ENDBRANCH  17  18
ENDBRANCH   2  17
TORSDOF 5
