REMARK  Name = ZINCvU00000008Y5.0
REMARK                            x       y       z     vdW  Elec       q    Type
REMARK                         _______ _______ _______ _____ _____    ______ ____
ROOT
ATOM      1  C   LIG    1       -5.804   0.641  -4.629  0.00  0.00    +0.120 A 
ATOM      2  C   LIG    1       -6.030   0.089  -5.887  0.00  0.00    +0.060 A 
ATOM      3  C   LIG    1       -5.460  -1.115  -6.236  0.00  0.00    +0.060 A 
ATOM      4  C   LIG    1       -4.651  -1.792  -5.331  0.00  0.00    +0.060 A 
ATOM      5  O   LIG    1       -3.976  -2.959  -5.394  0.00  0.00    -0.170 OA
ATOM      6  C   LIG    1       -3.317  -3.202  -4.255  0.00  0.00    +0.110 A 
ATOM      7  C   LIG    1       -3.538  -2.193  -3.369  0.00  0.00    -0.210 A 
ATOM      8  C   LIG    1       -2.461  -4.414  -3.992  0.00  0.00    +0.210 C 
ATOM      9  C   LIG    1       -4.423  -1.236  -4.064  0.00  0.00    -0.090 A 
ATOM     10  C   LIG    1       -5.000  -0.020  -3.716  0.00  0.00    +0.080 A 
ENDROOT
BRANCH   1  11
ATOM     11  N   LIG    1       -6.390   1.865  -4.287  0.00  0.00    -1.060 N 
ATOM     12  H   LIG    1       -7.336   1.909  -4.080  0.00  0.00    +0.430 HD
BRANCH  11  13
ATOM     13  S   LIG    1       -5.466   3.239  -4.235  0.00  0.00    +2.690 S 
ATOM     14  O   LIG    1       -4.323   2.924  -3.452  0.00  0.00    -0.940 OA
ATOM     15  O   LIG    1       -6.352   4.306  -3.923  0.00  0.00    -0.950 OA
BRANCH  13  20
ATOM     16  C   LIG    1       -3.469   4.263  -9.836  0.00  0.00    +0.090 C 
ATOM     17  C   LIG    1       -3.968   4.007  -8.437  0.00  0.00    -0.020 A 
ATOM     18  C   LIG    1       -5.134   4.606  -7.998  0.00  0.00    -0.010 A 
ATOM     19  C   LIG    1       -5.592   4.372  -6.715  0.00  0.00    +0.130 A 
ATOM     20  C   LIG    1       -4.883   3.538  -5.871  0.00  0.00    -0.680 A 
ATOM     21  C   LIG    1       -3.715   2.943  -6.307  0.00  0.00    +0.130 A 
ATOM     22  C   LIG    1       -3.260   3.174  -7.592  0.00  0.00    -0.010 A 
ENDBRANCH  13  20
ENDBRANCH  11  13
ENDBRANCH   1  11
BRANCH   7  23
ATOM     23  C   LIG    1       -3.002  -2.076  -2.006  0.00  0.00    +0.550 C 
ATOM     24  O   LIG    1       -3.624  -2.535  -1.067  0.00  0.00    -0.490 OA
BRANCH  23  25
ATOM     25  O   LIG    1       -1.822  -1.460  -1.796  0.00  0.00    -0.340 OA
BRANCH  25  26
ATOM     26  C   LIG    1       -1.354  -1.381  -0.423  0.00  0.00    +0.270 C 
BRANCH  26  27
ATOM     27  C   LIG    1       -0.029  -0.664  -0.385  0.00  0.00    -0.100 A 
ATOM     28  C   LIG    1        0.010   0.709  -0.233  0.00  0.00    +0.040 A 
ATOM     29  C   LIG    1        1.225   1.366  -0.197  0.00  0.00    +0.010 A 
ATOM     30  C   LIG    1        2.402   0.651  -0.314  0.00  0.00    +0.020 A 
ATOM     31  C   LIG    1        2.363  -0.723  -0.465  0.00  0.00    +0.010 A 
ATOM     32  C   LIG    1        1.148  -1.380  -0.500  0.00  0.00    +0.030 A 
ENDBRANCH  26  27
ENDBRANCH  25  26
ENDBRANCH  23  25
ENDBRANCH   7  23
TORSDOF 7
