REMARK  Name = ZINCpe000027pHoc.0
REMARK                            x       y       z     vdW  Elec       q    Type
REMARK                         _______ _______ _______ _____ _____    ______ ____
ROOT
ATOM      1  C   LIG    1       -5.549   1.107  -0.208  0.00  0.00    +0.520 C 
ATOM      2  N   LIG    1       -4.893   2.258   0.042  0.00  0.00    -0.550 N 
ATOM      3  C   LIG    1       -5.605   3.516   0.336  0.00  0.00    +0.290 C 
ATOM      4  C   LIG    1       -4.931   4.652  -0.440  0.00  0.00    +0.060 C 
ATOM      5  C   LIG    1       -3.486   4.828   0.041  0.00  0.00    +0.330 C 
ATOM      6  N   LIG    1       -2.823   3.521   0.037  0.00  0.00    -0.370 N 
ATOM      7  N   LIG    1       -1.456   3.242   0.040  0.00  0.00    -0.210 NA
ATOM      8  C   LIG    1       -1.303   1.929   0.028  0.00  0.00    +0.050 A 
ATOM      9  C   LIG    1       -2.586   1.336   0.028  0.00  0.00    -0.030 A 
ATOM     10  C   LIG    1       -3.494   2.330   0.035  0.00  0.00    +0.300 A 
ATOM     11  O   LIG    1       -4.932   0.116  -0.538  0.00  0.00    -0.490 OA
ENDROOT
BRANCH   8  12
ATOM     12  C   LIG    1       -0.015   1.208   0.021  0.00  0.00    +0.550 C 
ATOM     13  O   LIG    1        0.001  -0.007   0.015  0.00  0.00    -0.490 OA
BRANCH  12  14
ATOM     14  O   LIG    1        1.143   1.897   0.016  0.00  0.00    -0.340 OA
BRANCH  14  15
ATOM     15  C   LIG    1        2.371   1.122   0.003  0.00  0.00    +0.200 C 
ATOM     16  C   LIG    1        3.572   2.070  -0.001  0.00  0.00    +0.070 C 
ENDBRANCH  14  15
ENDBRANCH  12  14
ENDBRANCH   8  12
BRANCH   1  17
ATOM     17  C   LIG    1       -7.049   1.052  -0.076  0.00  0.00    +0.090 C 
BRANCH  17  21
ATOM     18  C   LIG    1       -9.742  -2.445  -1.768  0.00  0.00    +0.570 C 
ATOM     19  N   LIG    1       -8.986  -1.434  -1.296  0.00  0.00    -0.640 N 
ATOM     20  C   LIG    1       -9.044  -0.569  -0.102  0.00  0.00    +0.290 C 
ATOM     21  C   LIG    1       -7.527  -0.386  -0.289  0.00  0.00    +0.010 C 
ATOM     22  C   LIG    1       -7.763  -0.748  -1.767  0.00  0.00    +0.290 C 
ATOM     23  O   LIG    1      -10.722  -2.812  -1.149  0.00  0.00    -0.540 OA
BRANCH  18  25
ATOM     24  C   LIG    1      -10.128  -4.101  -3.499  0.00  0.00    +0.140 C 
ATOM     25  C   LIG    1       -9.382  -3.104  -3.033  0.00  0.00    -0.080 C 
ENDBRANCH  18  25
ENDBRANCH  17  21
ENDBRANCH   1  17
TORSDOF 6
