REMARK  Name = ZINCpk00000kikxG.0
REMARK                            x       y       z     vdW  Elec       q    Type
REMARK                         _______ _______ _______ _____ _____    ______ ____
ROOT
ATOM      1  C   LIG    1       -1.584   3.077  -0.088  0.00  0.00    +0.310 C 
ATOM      2  N   LIG    1       -1.414   1.655  -0.344  0.00  0.00    -0.710 N 
ATOM      3  H   LIG    1       -2.195   1.129  -0.577  0.00  0.00    +0.420 HD
ATOM      4  C   LIG    1       -0.228   1.036  -0.267  0.00  0.00    +0.540 C 
ATOM      5  C   LIG    1        1.020   1.780   0.109  0.00  0.00    +0.130 C 
ATOM      6  N   LIG    1        0.760   3.059   0.759  0.00  0.00    -0.700 N 
ATOM      7  H   LIG    1        1.471   3.489   1.260  0.00  0.00    +0.410 HD
ATOM      8  C   LIG    1        2.043   1.871  -1.033  0.00  0.00    +0.120 C 
ATOM      9  C   LIG    1        2.615   0.539  -0.521  0.00  0.00    +0.050 C 
ATOM     10  C   LIG    1        2.044   0.912   0.857  0.00  0.00    +0.090 C 
ATOM     11  O   LIG    1       -0.161  -0.150  -0.510  0.00  0.00    -0.480 OA
ATOM     12  C   LIG    1       -0.437   3.655   0.682  0.00  0.00    +0.520 C 
ATOM     13  O   LIG    1       -0.599   4.708   1.260  0.00  0.00    -0.500 OA
ENDROOT
BRANCH   1  19
ATOM     14  C   LIG    1       -2.321   5.032  -1.475  0.00  0.00    +0.160 A 
ATOM     15  C   LIG    1       -2.419   5.693  -2.691  0.00  0.00    -0.080 A 
ATOM     16  C   LIG    1       -1.907   5.111  -3.835  0.00  0.00    +0.060 A 
ATOM     17  C   LIG    1       -1.292   3.875  -3.767  0.00  0.00    -0.030 A 
ATOM     18  C   LIG    1       -1.187   3.217  -2.555  0.00  0.00    +0.070 A 
ATOM     19  C   LIG    1       -1.698   3.794  -1.409  0.00  0.00    -0.150 A 
BRANCH  14  21
ATOM     20  C   LIG    1       -3.457   6.875  -0.492  0.00  0.00    +0.250 C 
ATOM     21  O   LIG    1       -2.829   5.599  -0.349  0.00  0.00    -0.300 OA
ENDBRANCH  14  21
ENDBRANCH   1  19
BRANCH   9  22
ATOM     22  C   LIG    1        4.143   0.473  -0.555  0.00  0.00    +0.440 C 
ATOM     23  F   LIG    1        4.670   1.750  -0.333  0.00  0.00    -0.180 F 
ATOM     24  F   LIG    1        4.563   0.006  -1.805  0.00  0.00    -0.170 F 
ATOM     25  F   LIG    1        4.594  -0.398   0.444  0.00  0.00    -0.180 F 
ENDBRANCH   9  22
BRANCH   9  26
ATOM     26  O   LIG    1        1.997  -0.611  -1.104  0.00  0.00    -0.300 OA
ATOM     27  C   LIG    1        2.231  -1.823  -0.386  0.00  0.00    +0.220 C 
ENDBRANCH   9  26
TORSDOF 4
