REMARK  Name = ZINCvU00000007U0.0
REMARK                            x       y       z     vdW  Elec       q    Type
REMARK                         _______ _______ _______ _____ _____    ______ ____
ROOT
ATOM      1  C   LIG    1        2.984   0.608  -1.391  0.00  0.00    -0.180 A 
ATOM      2  C   LIG    1        3.767   1.481  -2.113  0.00  0.00    +0.440 A 
ATOM      3  N   LIG    1        3.998   1.296  -3.446  0.00  0.00    -0.410 N 
ATOM      4  C   LIG    1        4.732   2.016  -4.374  0.00  0.00    +0.010 A 
ATOM      5  C   LIG    1        5.494   3.172  -4.305  0.00  0.00    +0.040 A 
ATOM      6  C   LIG    1        6.120   3.652  -5.437  0.00  0.00    +0.010 A 
ATOM      7  C   LIG    1        5.993   2.985  -6.647  0.00  0.00    +0.030 A 
ATOM      8  C   LIG    1        5.241   1.836  -6.736  0.00  0.00    +0.060 A 
ATOM      9  C   LIG    1        4.599   1.335  -5.598  0.00  0.00    +0.100 A 
ATOM     10  N   LIG    1        3.811   0.257  -5.376  0.00  0.00    -0.500 NA
ATOM     11  C   LIG    1        3.450   0.223  -4.107  0.00  0.00    +0.340 A 
ATOM     12  C   LIG    1        2.612  -0.721  -3.358  0.00  0.00    -0.070 A 
ATOM     13  C   LIG    1        2.405  -0.498  -1.997  0.00  0.00    +0.070 A 
ATOM     14  C   LIG    1        1.556  -1.449  -1.193  0.00  0.00    +0.130 C 
ENDROOT
BRANCH   2  15
ATOM     15  N   LIG    1        4.327   2.562  -1.478  0.00  0.00    -0.640 N 
ATOM     16  C   LIG    1        5.196   2.376  -0.308  0.00  0.00    +0.290 C 
ATOM     17  C   LIG    1        4.670   3.232   0.843  0.00  0.00    +0.020 C 
ATOM     18  C   LIG    1        4.544   4.685   0.379  0.00  0.00    -0.020 C 
ATOM     19  C   LIG    1        3.547   4.767  -0.780  0.00  0.00    +0.020 C 
ATOM     20  C   LIG    1        4.047   5.549   1.540  0.00  0.00    +0.030 C 
ATOM     21  C   LIG    1        4.065   3.928  -1.953  0.00  0.00    +0.280 C 
ENDBRANCH   2  15
BRANCH  12  22
ATOM     22  C   LIG    1        2.023  -1.851  -4.011  0.00  0.00    +0.270 C 
ATOM     23  N   LIG    1        1.556  -2.747  -4.529  0.00  0.00    -0.410 NA
ENDBRANCH  12  22
BRANCH   1  24
ATOM     24  C   LIG    1        2.758   0.853   0.079  0.00  0.00    +0.150 C 
BRANCH  24  29
ATOM     25  C   LIG    1       -2.351   3.446   0.834  0.00  0.00    +0.090 C 
ATOM     26  C   LIG    1       -1.018   2.770   0.637  0.00  0.00    -0.090 A 
ATOM     27  C   LIG    1       -0.966   1.427   0.313  0.00  0.00    +0.000 A 
ATOM     28  C   LIG    1        0.256   0.806   0.137  0.00  0.00    +0.010 A 
ATOM     29  C   LIG    1        1.426   1.529   0.276  0.00  0.00    -0.080 A 
ATOM     30  C   LIG    1        1.373   2.873   0.597  0.00  0.00    +0.010 A 
ATOM     31  C   LIG    1        0.151   3.493   0.777  0.00  0.00    +0.000 A 
ENDBRANCH  24  29
ENDBRANCH   1  24
TORSDOF 4
