REMARK  Name = ZINCpk00001AZiSc.1
REMARK                            x       y       z     vdW  Elec       q    Type
REMARK                         _______ _______ _______ _____ _____    ______ ____
ROOT
ATOM      1  C   LIG    1        1.836  -1.897   0.070  0.00  0.00    +0.220 C 
ATOM      2  C   LIG    1        0.618  -2.857   0.045  0.00  0.00    +0.100 C 
ATOM      3  C   LIG    1        1.177  -4.106  -0.668  0.00  0.00    +0.270 C 
ATOM      4  N   LIG    1        2.343  -3.675  -1.454  0.00  0.00    -0.610 N 
ATOM      5  C   LIG    1        3.124  -4.476  -2.205  0.00  0.00    +0.580 C 
ATOM      6  O   LIG    1        4.005  -3.997  -2.891  0.00  0.00    -0.530 OA
ATOM      7  C   LIG    1        2.517  -2.221  -1.283  0.00  0.00    +0.290 C 
ENDROOT
BRANCH   5   8
ATOM      8  C   LIG    1        2.909  -5.937  -2.195  0.00  0.00    -0.160 A 
ATOM      9  C   LIG    1        3.817  -6.782  -2.844  0.00  0.00    +0.140 A 
ATOM     10  C   LIG    1        3.625  -8.146  -2.835  0.00  0.00    -0.030 A 
ATOM     11  C   LIG    1        2.524  -8.694  -2.190  0.00  0.00    +0.200 A 
ATOM     12  C   LIG    1        1.602  -7.854  -1.539  0.00  0.00    -0.230 A 
ATOM     13  C   LIG    1        1.800  -6.473  -1.545  0.00  0.00    +0.110 A 
BRANCH  12  14
ATOM     14  C   LIG    1        0.435  -8.429  -0.857  0.00  0.00    +0.490 C 
ATOM     15  O   LIG    1        0.266  -9.630  -0.853  0.00  0.00    -0.440 OA
ENDBRANCH  12  14
BRANCH  11  16
ATOM     16  O   LIG    1        2.337 -10.035  -2.189  0.00  0.00    -0.480 OA
ATOM     17  H   LIG    1        1.815 -10.360  -2.935  0.00  0.00    +0.400 HD
ENDBRANCH  11  16
ENDBRANCH   5   8
BRANCH   1  21
ATOM     18  C   LIG    1        1.331   1.656   0.158  0.00  0.00    +0.180 A 
ATOM     19  N   LIG    1        0.118   1.194   0.221  0.00  0.00    -0.370 NA
ATOM     20  O   LIG    1        0.130  -0.019   0.200  0.00  0.00    +0.090 OA
ATOM     21  C   LIG    1        1.389  -0.459   0.119  0.00  0.00    +0.150 A 
ATOM     22  N   LIG    1        2.161   0.601   0.092  0.00  0.00    -0.460 NA
BRANCH  18  24
ATOM     23  C   LIG    1        1.102   3.813  -1.045  0.00  0.00    +0.040 C 
ATOM     24  C   LIG    1        1.732   3.109   0.158  0.00  0.00    +0.090 C 
ATOM     25  C   LIG    1        1.247   3.772   1.449  0.00  0.00    +0.040 C 
ENDBRANCH  18  24
ENDBRANCH   1  21
BRANCH   1  26
ATOM     26  O   LIG    1        2.703  -2.199   1.165  0.00  0.00    -0.520 OA
ATOM     27  H   LIG    1        3.503  -1.656   1.194  0.00  0.00    +0.400 HD
ENDBRANCH   1  26
TORSDOF 6
