REMARK  Name = ZINCvU00000004nu.0
REMARK                            x       y       z     vdW  Elec       q    Type
REMARK                         _______ _______ _______ _____ _____    ______ ____
ROOT
ATOM      1  O   LIG    1        4.524  -4.487  -0.132  0.00  0.00    -0.320 OA
ENDROOT
BRANCH   1   2
ATOM      2  C   LIG    1        5.680  -5.118   0.155  0.00  0.00    +0.520 C 
ATOM      3  O   LIG    1        6.704  -4.477   0.290  0.00  0.00    -0.500 OA
BRANCH   2   4
ATOM      4  C   LIG    1        5.703  -6.581   0.305  0.00  0.00    -0.100 C 
ATOM      5  C   LIG    1        6.873  -7.218   0.596  0.00  0.00    +0.180 C 
BRANCH   5   6
ATOM      6  C   LIG    1        6.872  -8.657   0.887  0.00  0.00    -0.100 A 
ATOM      7  C   LIG    1        5.771  -9.246   1.520  0.00  0.00    +0.090 A 
ATOM      8  C   LIG    1        5.775 -10.598   1.785  0.00  0.00    -0.020 A 
ATOM      9  C   LIG    1        6.871 -11.373   1.436  0.00  0.00    +0.120 A 
ATOM     10  C   LIG    1        7.967 -10.796   0.814  0.00  0.00    -0.020 A 
ATOM     11  F   LIG    1        6.870 -12.697   1.704  0.00  0.00    -0.130 F 
ATOM     12  C   LIG    1        7.975  -9.446   0.537  0.00  0.00    +0.080 A 
ENDBRANCH   5   6
BRANCH   4  13
ATOM     13  C   LIG    1        4.460  -7.359   0.142  0.00  0.00    -0.150 A 
ATOM     14  C   LIG    1        3.367  -7.256   0.928  0.00  0.00    +0.030 A 
ATOM     15  C   LIG    1        2.325  -8.088   0.576  0.00  0.00    +0.010 A 
ATOM     16  C   LIG    1        2.556  -8.867  -0.486  0.00  0.00    -0.040 A 
ATOM     17  S   LIG    1        4.170  -8.558  -1.112  0.00  0.00    +0.130 S 
ENDBRANCH   4  13
ENDBRANCH   2   4
ENDBRANCH   1   2
BRANCH   1  18
ATOM     18  C   LIG    1        4.576  -3.042  -0.266  0.00  0.00    +0.270 C 
BRANCH  18  20
ATOM     19  O   LIG    1        2.267  -3.286  -0.690  0.00  0.00    -0.490 OA
ATOM     20  C   LIG    1        3.200  -2.518  -0.585  0.00  0.00    +0.520 C 
ATOM     21  N   LIG    1        3.006  -1.195  -0.755  0.00  0.00    -0.660 N 
ATOM     22  H   LIG    1        3.761  -0.587  -0.734  0.00  0.00    +0.420 HD
BRANCH  21  23
ATOM     23  C   LIG    1        1.712  -0.697  -0.962  0.00  0.00    +0.130 A 
ATOM     24  C   LIG    1        0.775  -1.460  -1.642  0.00  0.00    +0.060 A 
ATOM     25  C   LIG    1       -0.501  -0.966  -1.846  0.00  0.00    +0.010 A 
ATOM     26  C   LIG    1       -0.845   0.286  -1.373  0.00  0.00    +0.040 A 
ATOM     27  C   LIG    1        0.085   1.052  -0.693  0.00  0.00    -0.030 A 
ATOM     28  C   LIG    1        1.365   0.565  -0.485  0.00  0.00    +0.080 A 
BRANCH  28  29
ATOM     29  O   LIG    1        2.280   1.317   0.183  0.00  0.00    -0.320 OA
BRANCH  29  30
ATOM     30  C   LIG    1        1.853   2.601   0.642  0.00  0.00    +0.590 C 
ATOM     31  F   LIG    1        0.778   2.447   1.524  0.00  0.00    -0.200 F 
ATOM     32  F   LIG    1        1.453   3.378  -0.450  0.00  0.00    -0.200 F 
ENDBRANCH  29  30
ENDBRANCH  28  29
ENDBRANCH  21  23
ENDBRANCH  18  20
ENDBRANCH   1  18
TORSDOF 9
