REMARK  Name = ZINCpe00000RbH6j.0
REMARK                            x       y       z     vdW  Elec       q    Type
REMARK                         _______ _______ _______ _____ _____    ______ ____
ROOT
ATOM      1  C   LIG    1       -4.676   1.585  -1.021  0.00  0.00    +0.220 C 
ATOM      2  C   LIG    1       -4.822   0.061  -1.042  0.00  0.00    +0.010 C 
ATOM      3  C   LIG    1       -3.450  -0.581  -1.257  0.00  0.00    +0.020 C 
ATOM      4  C   LIG    1       -2.525  -0.199  -0.103  0.00  0.00    +0.290 C 
ATOM      5  N   LIG    1       -2.493   1.265   0.021  0.00  0.00    -0.570 N 
ATOM      6  C   LIG    1       -3.765   1.991   0.141  0.00  0.00    +0.300 C 
ENDROOT
BRANCH   5   7
ATOM      7  C   LIG    1       -1.285   1.949   0.019  0.00  0.00    +0.350 A 
ATOM      8  N   LIG    1       -0.160   1.315  -0.232  0.00  0.00    -0.500 NA
ATOM      9  C   LIG    1        1.004   1.965  -0.231  0.00  0.00    +0.190 A 
ATOM     10  C   LIG    1        1.077   3.289   0.020  0.00  0.00    +0.170 A 
ATOM     11  N   LIG    1       -0.048   4.015   0.282  0.00  0.00    -0.590 N 
ATOM     12  H   LIG    1        0.012   4.967   0.460  0.00  0.00    +0.420 HD
ATOM     13  C   LIG    1       -1.247   3.391   0.289  0.00  0.00    +0.490 A 
ATOM     14  O   LIG    1       -2.271   4.010   0.520  0.00  0.00    -0.530 OA
ENDBRANCH   5   7
BRANCH   1  17
ATOM     15  O   LIG    1       -6.397   2.112  -3.030  0.00  0.00    -0.520 OA
ATOM     16  C   LIG    1       -6.781   2.422  -1.918  0.00  0.00    +0.560 C 
ATOM     17  N   LIG    1       -5.995   2.200  -0.847  0.00  0.00    -0.720 N 
ATOM     18  H   LIG    1       -6.301   2.447   0.040  0.00  0.00    +0.400 HD
BRANCH  16  19
ATOM     19  C   LIG    1       -8.109   3.041  -1.743  0.00  0.00    -0.120 A 
ATOM     20  C   LIG    1       -8.556   3.393  -0.466  0.00  0.00    +0.060 A 
ATOM     21  C   LIG    1       -9.795   3.976  -0.307  0.00  0.00    +0.030 A 
ATOM     22  C   LIG    1      -10.606   4.206  -1.405  0.00  0.00    +0.070 A 
ATOM     23  C   LIG    1      -10.180   3.859  -2.676  0.00  0.00    +0.020 A 
ATOM     24  O   LIG    1      -10.781   3.980  -3.897  0.00  0.00    -0.310 OA
ATOM     25  C   LIG    1      -10.057   3.092  -4.769  0.00  0.00    +0.440 C 
ATOM     26  O   LIG    1       -8.745   3.028  -4.180  0.00  0.00    -0.280 OA
ATOM     27  C   LIG    1       -8.929   3.274  -2.853  0.00  0.00    +0.100 A 
ENDBRANCH  16  19
ENDBRANCH   1  17
TORSDOF 3
