REMARK  Name = ZINCnE000001GDXd.0
REMARK                            x       y       z     vdW  Elec       q    Type
REMARK                         _______ _______ _______ _____ _____    ______ ____
ROOT
ATOM      1  C   LIG    1        1.178   2.093   0.002  0.00  0.00    +0.060 A 
ATOM      2  C   LIG    1       -0.017   1.377   0.010  0.00  0.00    +0.090 A 
ATOM      3  C   LIG    1        0.002  -0.004   0.002  0.00  0.00    -0.020 A 
ATOM      4  C   LIG    1        1.222  -0.689  -0.013  0.00  0.00    -0.100 A 
ATOM      5  C   LIG    1        2.423   0.026  -0.021  0.00  0.00    +0.030 A 
ATOM      6  C   LIG    1        2.401   1.414  -0.013  0.00  0.00    -0.010 A 
ENDROOT
BRANCH   6   7
ATOM      7  C   LIG    1        3.675   2.178  -0.021  0.00  0.00    -0.180 A 
ATOM      8  C   LIG    1        4.735   1.984   0.815  0.00  0.00    +0.240 A 
ATOM      9  N   LIG    1        5.689   2.877   0.477  0.00  0.00    -0.360 N 
ATOM     10  N   LIG    1        5.207   3.649  -0.586  0.00  0.00    -0.300 NA
ATOM     11  C   LIG    1        4.005   3.236  -0.889  0.00  0.00    +0.260 A 
BRANCH   9  12
ATOM     12  C   LIG    1        6.999   3.018   1.118  0.00  0.00    +0.180 C 
ATOM     13  C   LIG    1        6.832   2.968   2.638  0.00  0.00    +0.060 C 
ATOM     14  C   LIG    1        7.621   4.356   0.716  0.00  0.00    +0.060 C 
ATOM     15  C   LIG    1        7.912   1.875   0.668  0.00  0.00    +0.060 C 
ENDBRANCH   9  12
ENDBRANCH   6   7
BRANCH   4  16
ATOM     16  C   LIG    1        1.241  -2.161  -0.020  0.00  0.00    +0.520 C 
ATOM     17  O   LIG    1        2.309  -2.759  -0.033  0.00  0.00    -0.680 OA
ATOM     18  O   LIG    1        0.190  -2.787  -0.013  0.00  0.00    -0.690 OA
ENDBRANCH   4  16
BRANCH   2  19
ATOM     19  O   LIG    1       -1.204   2.040   0.019  0.00  0.00    -0.310 OA
ATOM     20  C   LIG    1       -2.391   1.244   0.020  0.00  0.00    +0.230 C 
ENDBRANCH   2  19
BRANCH   1  21
ATOM     21  O   LIG    1        1.156   3.450   0.009  0.00  0.00    -0.320 OA
BRANCH  21  23
ATOM     22  C   LIG    1        1.130   5.610   1.093  0.00  0.00    +0.040 C 
ATOM     23  C   LIG    1        1.157   4.092   1.286  0.00  0.00    +0.160 C 
ENDBRANCH  21  23
ENDBRANCH   1  21
TORSDOF 6
