REMARK  Name = ZINCrg00000SjSwX.0
REMARK                            x       y       z     vdW  Elec       q    Type
REMARK                         _______ _______ _______ _____ _____    ______ ____
ROOT
ATOM      1  C   LIG    1        1.048   5.956   0.314  0.00  0.00    +0.520 C 
ATOM      2  N   LIG    1       -0.063   5.246   0.035  0.00  0.00    -0.550 N 
ATOM      3  C   LIG    1       -1.344   5.915  -0.247  0.00  0.00    +0.280 C 
ATOM      4  C   LIG    1       -2.446   5.133   0.481  0.00  0.00    +0.170 C 
ATOM      5  O   LIG    1       -2.431   3.779   0.023  0.00  0.00    -0.280 OA
ATOM      6  C   LIG    1       -1.237   3.130   0.005  0.00  0.00    +0.090 A 
ATOM      7  C   LIG    1       -1.209   1.744  -0.024  0.00  0.00    +0.020 A 
ATOM      8  C   LIG    1        0.002   1.076  -0.045  0.00  0.00    +0.030 A 
ATOM      9  C   LIG    1        1.189   1.784  -0.049  0.00  0.00    +0.010 A 
ATOM     10  C   LIG    1        1.171   3.167  -0.024  0.00  0.00    +0.050 A 
ATOM     11  C   LIG    1       -0.039   3.841   0.004  0.00  0.00    +0.080 A 
ATOM     12  O   LIG    1        2.066   5.385   0.646  0.00  0.00    -0.460 OA
ENDROOT
BRANCH   4  13
ATOM     13  C   LIG    1       -3.788   5.751   0.185  0.00  0.00    +0.530 C 
ATOM     14  O   LIG    1       -4.617   5.128  -0.445  0.00  0.00    -0.500 OA
ATOM     15  N   LIG    1       -4.068   6.995   0.620  0.00  0.00    -0.850 N 
ATOM     16  H   LIG    1       -4.932   7.393   0.429  0.00  0.00    +0.410 HD
ATOM     17  H   LIG    1       -3.406   7.493   1.124  0.00  0.00    +0.400 HD
ENDBRANCH   4  13
BRANCH   1  18
ATOM     18  C   LIG    1        1.027   7.460   0.212  0.00  0.00    +0.230 C 
BRANCH  18  19
ATOM     19  O   LIG    1        2.342   7.971   0.435  0.00  0.00    -0.250 OA
BRANCH  19  26
ATOM     20  C   LIG    1        3.759   9.890   0.592  0.00  0.00    -0.160 A 
ATOM     21  C   LIG    1        3.908  11.277   0.527  0.00  0.00    +0.110 A 
ATOM     22  C   LIG    1        2.813  12.075   0.264  0.00  0.00    -0.080 A 
ATOM     23  C   LIG    1        1.567  11.504   0.057  0.00  0.00    +0.110 A 
ATOM     24  C   LIG    1        1.408  10.133   0.114  0.00  0.00    -0.070 A 
ATOM     25 CL   LIG    1        2.998  13.799   0.189  0.00  0.00    -0.060 Cl
ATOM     26  C   LIG    1        2.498   9.318   0.378  0.00  0.00    +0.190 A 
BRANCH  20  30
ATOM     27  N   LIG    1        6.135   9.586   1.085  0.00  0.00    -0.850 N 
ATOM     28  H   LIG    1        6.901   9.022   1.274  0.00  0.00    +0.410 HD
ATOM     29  H   LIG    1        6.241  10.550   1.044  0.00  0.00    +0.400 HD
ATOM     30  C   LIG    1        4.924   9.032   0.880  0.00  0.00    +0.560 C 
ATOM     31  O   LIG    1        4.792   7.824   0.932  0.00  0.00    -0.500 OA
ENDBRANCH  20  30
ENDBRANCH  19  26
ENDBRANCH  18  19
ENDBRANCH   1  18
TORSDOF 5
