REMARK  Name = ZINCvU00000007hk.1
REMARK                            x       y       z     vdW  Elec       q    Type
REMARK                         _______ _______ _______ _____ _____    ______ ____
ROOT
ATOM      1  C   LIG    1        1.160   8.875  -1.409  0.00  0.00    +0.520 C 
ATOM      2  N   LIG    1        0.515   7.833  -0.849  0.00  0.00    -0.730 N 
ATOM      3  H   LIG    1       -0.429   7.695  -1.025  0.00  0.00    +0.400 HD
ATOM      4  O   LIG    1        2.340   9.048  -1.188  0.00  0.00    -0.520 OA
ENDROOT
BRANCH   1   5
ATOM      5  C   LIG    1        0.415   9.826  -2.310  0.00  0.00    +0.140 C 
BRANCH   5  11
ATOM      6  C   LIG    1        3.860  12.245  -5.037  0.00  0.00    -0.090 A 
ATOM      7  C   LIG    1        2.930  12.033  -4.025  0.00  0.00    +0.100 A 
ATOM      8  N   LIG    1        2.475  12.804  -2.979  0.00  0.00    -0.590 N 
ATOM      9  H   LIG    1        2.773  13.706  -2.780  0.00  0.00    +0.410 HD
ATOM     10  C   LIG    1        1.539  12.110  -2.261  0.00  0.00    +0.240 A 
ATOM     11  C   LIG    1        1.358  10.894  -2.802  0.00  0.00    -0.160 A 
ATOM     12  C   LIG    1        2.255  10.801  -3.956  0.00  0.00    -0.090 A 
ATOM     13  C   LIG    1        2.522   9.807  -4.899  0.00  0.00    +0.050 A 
ATOM     14  C   LIG    1        3.443  10.035  -5.883  0.00  0.00    -0.020 A 
ATOM     15  C   LIG    1        4.114  11.248  -5.953  0.00  0.00    +0.020 A 
BRANCH   6  17
ATOM     16  C   LIG    1        5.824  13.513  -4.208  0.00  0.00    +0.020 C 
ATOM     17  C   LIG    1        4.598  13.556  -5.123  0.00  0.00    +0.060 C 
ENDBRANCH   6  17
ENDBRANCH   5  11
ENDBRANCH   1   5
BRANCH   2  18
ATOM     18  C   LIG    1        1.239   6.908   0.027  0.00  0.00    +0.330 C 
BRANCH  18  19
ATOM     19  C   LIG    1        0.546   5.570   0.027  0.00  0.00    -0.070 A 
ATOM     20  C   LIG    1       -0.840   5.511   0.040  0.00  0.00    +0.010 A 
ATOM     21  C   LIG    1       -1.486   4.307   0.039  0.00  0.00    +0.070 A 
ATOM     22  C   LIG    1       -0.749   3.121   0.026  0.00  0.00    +0.050 A 
ATOM     23  N   LIG    1       -1.089   1.806   0.017  0.00  0.00    -0.500 NA
ATOM     24  C   LIG    1       -0.013   1.076   0.008  0.00  0.00    +0.490 A 
ATOM     25  N   LIG    1        1.092   1.870   0.002  0.00  0.00    -0.600 N 
ATOM     26  H   LIG    1        2.015   1.572  -0.009  0.00  0.00    +0.430 HD
ATOM     27  C   LIG    1        0.656   3.180   0.013  0.00  0.00    +0.050 A 
ATOM     28  C   LIG    1        1.295   4.412   0.013  0.00  0.00    +0.040 A 
ENDBRANCH  18  19
BRANCH  18  29
ATOM     29  C   LIG    1        1.264   7.460   1.429  0.00  0.00    -0.090 A 
ATOM     30  C   LIG    1        0.144   8.084   1.947  0.00  0.00    +0.020 A 
ATOM     31  C   LIG    1        0.165   8.587   3.234  0.00  0.00    +0.000 A 
ATOM     32  C   LIG    1        1.310   8.474   4.001  0.00  0.00    +0.000 A 
ATOM     33  C   LIG    1        2.431   7.854   3.482  0.00  0.00    +0.000 A 
ATOM     34  C   LIG    1        2.409   7.348   2.196  0.00  0.00    +0.020 A 
ENDBRANCH  18  29
ENDBRANCH   2  18
TORSDOF 6
