REMARK  Name = ZINCvU00000007hk.0
REMARK                            x       y       z     vdW  Elec       q    Type
REMARK                         _______ _______ _______ _____ _____    ______ ____
ROOT
ATOM      1  C   LIG    1       -0.742   1.585  -1.213  0.00  0.00    +0.510 C 
ATOM      2  N   LIG    1       -0.288   1.272  -2.443  0.00  0.00    -0.730 N 
ATOM      3  H   LIG    1        0.507   0.726  -2.543  0.00  0.00    +0.400 HD
ATOM      4  O   LIG    1       -1.736   2.268  -1.088  0.00  0.00    -0.520 OA
ENDROOT
BRANCH   1   5
ATOM      5  C   LIG    1       -0.013   1.086   0.008  0.00  0.00    +0.140 C 
BRANCH   5  11
ATOM      6  C   LIG    1       -3.228   1.385   3.846  0.00  0.00    -0.090 A 
ATOM      7  C   LIG    1       -2.171   1.743   3.016  0.00  0.00    +0.100 A 
ATOM      8  N   LIG    1       -1.277   2.791   3.017  0.00  0.00    -0.590 N 
ATOM      9  H   LIG    1       -1.257   3.506   3.672  0.00  0.00    +0.410 HD
ATOM     10  C   LIG    1       -0.420   2.672   1.957  0.00  0.00    +0.240 A 
ATOM     11  C   LIG    1       -0.718   1.572   1.248  0.00  0.00    -0.160 A 
ATOM     12  C   LIG    1       -1.863   0.937   1.904  0.00  0.00    -0.090 A 
ATOM     13  C   LIG    1       -2.618  -0.208   1.645  0.00  0.00    +0.050 A 
ATOM     14  C   LIG    1       -3.655  -0.539   2.471  0.00  0.00    -0.020 A 
ATOM     15  C   LIG    1       -3.964   0.255   3.567  0.00  0.00    +0.020 A 
BRANCH   6  17
ATOM     16  C   LIG    1       -4.500   3.377   4.598  0.00  0.00    +0.020 C 
ATOM     17  C   LIG    1       -3.576   2.239   5.038  0.00  0.00    +0.060 C 
ENDBRANCH   6  17
ENDBRANCH   5  11
ENDBRANCH   1   5
BRANCH   2  18
ATOM     18  C   LIG    1       -0.997   1.758  -3.630  0.00  0.00    +0.340 C 
BRANCH  18  19
ATOM     19  C   LIG    1       -0.721   0.838  -4.791  0.00  0.00    -0.100 A 
ATOM     20  C   LIG    1        0.557   0.328  -4.974  0.00  0.00    +0.040 A 
ATOM     21  C   LIG    1        0.827  -0.518  -6.029  0.00  0.00    +0.030 A 
ATOM     22  C   LIG    1       -0.185  -0.854  -6.918  0.00  0.00    +0.050 A 
ATOM     23  N   LIG    1       -0.250  -1.647  -8.046  0.00  0.00    -0.600 N 
ATOM     24  H   LIG    1        0.481  -2.149  -8.438  0.00  0.00    +0.430 HD
ATOM     25  C   LIG    1       -1.530  -1.593  -8.505  0.00  0.00    +0.490 A 
ATOM     26  N   LIG    1       -2.248  -0.825  -7.739  0.00  0.00    -0.490 NA
ATOM     27  C   LIG    1       -1.478  -0.333  -6.735  0.00  0.00    +0.050 A 
ATOM     28  C   LIG    1       -1.729   0.519  -5.656  0.00  0.00    +0.090 A 
ENDBRANCH  18  19
BRANCH  18  29
ATOM     29  C   LIG    1       -0.521   3.148  -3.966  0.00  0.00    -0.090 A 
ATOM     30  C   LIG    1        0.819   3.467  -3.848  0.00  0.00    +0.020 A 
ATOM     31  C   LIG    1        1.256   4.740  -4.160  0.00  0.00    +0.000 A 
ATOM     32  C   LIG    1        0.351   5.698  -4.581  0.00  0.00    +0.000 A 
ATOM     33  C   LIG    1       -0.989   5.380  -4.694  0.00  0.00    +0.000 A 
ATOM     34  C   LIG    1       -1.425   4.105  -4.386  0.00  0.00    +0.020 A 
ENDBRANCH  18  29
ENDBRANCH   2  18
TORSDOF 6
