REMARK  Name = ZINCpe00000VVGnB.0
REMARK                            x       y       z     vdW  Elec       q    Type
REMARK                         _______ _______ _______ _____ _____    ______ ____
ROOT
ATOM      1  C   LIG    1       -3.260   3.779   2.794  0.00  0.00    +0.210 C 
ENDROOT
BRANCH   1   2
ATOM      2  N   LIG    1       -2.882   3.334   1.446  0.00  0.00    -0.520 NA
ATOM      3  C   LIG    1       -1.853   2.286   1.508  0.00  0.00    +0.150 C 
ATOM      4  C   LIG    1       -1.445   1.894   0.085  0.00  0.00    +0.230 C 
ATOM      5  O   LIG    1       -2.605   1.472  -0.639  0.00  0.00    -0.380 OA
ATOM      6  C   LIG    1       -3.627   2.469  -0.719  0.00  0.00    +0.220 C 
ATOM      7  C   LIG    1       -4.057   2.866   0.696  0.00  0.00    +0.170 C 
BRANCH   6   8
ATOM      8  C   LIG    1       -4.812   1.915  -1.467  0.00  0.00    -0.100 A 
ATOM      9  C   LIG    1       -5.211   0.608  -1.259  0.00  0.00    +0.080 A 
ATOM     10  C   LIG    1       -6.294   0.097  -1.949  0.00  0.00    -0.020 A 
ATOM     11  C   LIG    1       -6.979   0.895  -2.849  0.00  0.00    +0.100 A 
ATOM     12  C   LIG    1       -6.580   2.204  -3.057  0.00  0.00    -0.010 A 
ATOM     13  F   LIG    1       -8.038   0.396  -3.525  0.00  0.00    -0.140 F 
ATOM     14  C   LIG    1       -5.497   2.713  -2.365  0.00  0.00    +0.060 A 
ENDBRANCH   6   8
ENDBRANCH   1   2
BRANCH   1  17
ATOM     15  N   LIG    1       -2.163   4.857   4.731  0.00  0.00    -0.730 N 
ATOM     16  H   LIG    1       -2.968   4.686   5.243  0.00  0.00    +0.400 HD
ATOM     17  C   LIG    1       -2.090   4.473   3.441  0.00  0.00    +0.520 C 
ATOM     18  O   LIG    1       -1.082   4.687   2.801  0.00  0.00    -0.510 OA
BRANCH  15  20
ATOM     19  C   LIG    1        0.183   4.592   5.337  0.00  0.00    +0.050 C 
ATOM     20  C   LIG    1       -1.024   5.532   5.360  0.00  0.00    +0.190 C 
ATOM     21  C   LIG    1       -0.687   6.789   4.556  0.00  0.00    +0.080 C 
ATOM     22  C   LIG    1       -1.486   7.982   5.142  0.00  0.00    -0.300 C 
ATOM     23  S   LIG    1       -1.308   7.678   6.947  0.00  0.00    +2.380 S 
ATOM     24  O   LIG    1       -0.013   8.076   7.376  0.00  0.00    -0.920 OA
ATOM     25  O   LIG    1       -2.461   8.155   7.627  0.00  0.00    -0.930 OA
ATOM     26  C   LIG    1       -1.380   5.852   6.820  0.00  0.00    -0.300 C 
ENDBRANCH  15  20
ENDBRANCH   1  17
TORSDOF 4
