REMARK  Name = ZINCvU0000000EUA.0
REMARK                            x       y       z     vdW  Elec       q    Type
REMARK                         _______ _______ _______ _____ _____    ______ ____
ROOT
ATOM      1  N   LIG    1        1.791  -6.521  -0.049  0.00  0.00    -0.620 N 
ATOM      2  H   LIG    1        1.409  -7.412  -0.031  0.00  0.00    +0.430 HD
ATOM      3  C   LIG    1        3.128  -6.361  -0.080  0.00  0.00    +0.580 C 
ATOM      4  O   LIG    1        3.606  -5.248  -0.196  0.00  0.00    -0.440 OA
ENDROOT
BRANCH   1   9
ATOM      5  C   LIG    1        0.777  -1.771  -0.092  0.00  0.00    +0.170 C 
ATOM      6  C   LIG    1        0.448  -3.241  -0.062  0.00  0.00    +0.150 A 
ATOM      7  C   LIG    1       -0.821  -3.709  -0.025  0.00  0.00    -0.190 A 
ATOM      8  S   LIG    1       -0.748  -5.470  -0.007  0.00  0.00    +0.150 S 
ATOM      9  C   LIG    1        0.960  -5.411  -0.044  0.00  0.00    +0.270 A 
ATOM     10  N   LIG    1        1.369  -4.178  -0.067  0.00  0.00    -0.460 NA
BRANCH   7  11
ATOM     11  C   LIG    1       -2.044  -2.893  -0.009  0.00  0.00    +0.280 A 
ATOM     12  N   LIG    1       -2.095  -1.577  -0.023  0.00  0.00    -0.460 NA
ATOM     13  C   LIG    1       -3.374  -1.183  -0.001  0.00  0.00    +0.160 A 
ATOM     14  C   LIG    1       -4.157  -2.279   0.029  0.00  0.00    +0.140 A 
ATOM     15  N   LIG    1       -3.324  -3.370   0.024  0.00  0.00    -0.460 N 
ATOM     16  C   LIG    1       -3.730  -4.777   0.050  0.00  0.00    +0.340 C 
ENDBRANCH   7  11
ENDBRANCH   1   9
BRANCH   3  17
ATOM     17  C   LIG    1        4.011  -7.532   0.028  0.00  0.00    +0.040 A 
ATOM     18  C   LIG    1        3.618  -8.853   0.048  0.00  0.00    -0.040 A 
ATOM     19  C   LIG    1        4.776  -9.640   0.159  0.00  0.00    +0.140 A 
ATOM     20  N   LIG    1        5.823  -8.838   0.213  0.00  0.00    -0.240 NA
ATOM     21  N   LIG    1        5.378  -7.513   0.134  0.00  0.00    -0.280 N 
BRANCH  21  22
ATOM     22  C   LIG    1        6.185  -6.370   0.157  0.00  0.00    +0.130 A 
ATOM     23  C   LIG    1        7.342  -6.319  -0.611  0.00  0.00    +0.030 A 
ATOM     24  C   LIG    1        8.133  -5.188  -0.590  0.00  0.00    +0.020 A 
ATOM     25  C   LIG    1        7.782  -4.111   0.203  0.00  0.00    +0.030 A 
ATOM     26  C   LIG    1        6.635  -4.161   0.973  0.00  0.00    +0.030 A 
ATOM     27  C   LIG    1        5.835  -5.287   0.952  0.00  0.00    +0.060 A 
ENDBRANCH  21  22
BRANCH  19  28
ATOM     28  C   LIG    1        4.815 -11.117   0.212  0.00  0.00    -0.130 A 
ATOM     29  C   LIG    1        5.933 -11.863   0.319  0.00  0.00    +0.050 A 
ATOM     30  C   LIG    1        5.716 -13.225   0.354  0.00  0.00    +0.010 A 
ATOM     31  C   LIG    1        4.436 -13.597   0.266  0.00  0.00    -0.030 A 
ATOM     32  S   LIG    1        3.411 -12.174   0.138  0.00  0.00    +0.140 S 
ENDBRANCH  19  28
ENDBRANCH   3  17
TORSDOF 5
