REMARK  Name = ZINCqH0000002YV5.0
REMARK                            x       y       z     vdW  Elec       q    Type
REMARK                         _______ _______ _______ _____ _____    ______ ____
ROOT
ATOM      1  C   LIG    1       -3.132  -6.321   0.077  0.00  0.00    -0.120 A 
ATOM      2  C   LIG    1       -2.106  -6.593  -0.829  0.00  0.00    +0.080 A 
ATOM      3  C   LIG    1       -0.943  -5.851  -0.792  0.00  0.00    +0.040 A 
ATOM      4  C   LIG    1       -0.794  -4.839   0.140  0.00  0.00    -0.060 A 
ATOM      5  C   LIG    1       -1.806  -4.569   1.044  0.00  0.00    +0.040 A 
ATOM      6  C   LIG    1       -2.975  -5.299   1.014  0.00  0.00    +0.030 A 
ENDROOT
BRANCH   1   8
ATOM      7  N   LIG    1       -5.088  -7.303   1.174  0.00  0.00    -0.590 N 
ATOM      8  C   LIG    1       -4.381  -7.113   0.043  0.00  0.00    +0.560 C 
ATOM      9  O   LIG    1       -4.769  -7.592  -1.004  0.00  0.00    -0.520 OA
BRANCH   7  11
ATOM     10  C   LIG    1       -5.777  -9.641   1.388  0.00  0.00    +0.020 C 
ATOM     11  C   LIG    1       -6.247  -8.201   1.171  0.00  0.00    +0.290 C 
ENDBRANCH   7  11
BRANCH   7  12
ATOM     12  C   LIG    1       -4.699  -6.614   2.407  0.00  0.00    +0.300 C 
BRANCH  12  13
ATOM     13  C   LIG    1       -5.562  -5.391   2.591  0.00  0.00    +0.490 C 
ATOM     14  N   LIG    1       -5.382  -4.596   3.665  0.00  0.00    -0.730 N 
ATOM     15  H   LIG    1       -4.699  -4.811   4.319  0.00  0.00    +0.400 HD
ATOM     16  O   LIG    1       -6.417  -5.123   1.774  0.00  0.00    -0.520 OA
BRANCH  14  17
ATOM     17  C   LIG    1       -6.221  -3.408   3.845  0.00  0.00    +0.230 C 
ATOM     18  C   LIG    1       -5.621  -2.238   3.062  0.00  0.00    +0.020 C 
ATOM     19  C   LIG    1       -6.284  -3.049   5.331  0.00  0.00    +0.030 C 
ENDBRANCH  14  17
ENDBRANCH  12  13
ENDBRANCH   7  12
ENDBRANCH   1   8
BRANCH   4  20
ATOM     20  C   LIG    1        0.478  -4.033   0.175  0.00  0.00    +0.120 C 
BRANCH  20  21
ATOM     21  S   LIG    1        0.311  -2.595  -0.913  0.00  0.00    +0.030 S 
BRANCH  21  22
ATOM     22  C   LIG    1        1.894  -1.855  -0.686  0.00  0.00    +0.010 A 
ATOM     23  N   LIG    1        2.293  -0.763  -1.263  0.00  0.00    -0.450 NA
ATOM     24  C   LIG    1        3.515  -0.350  -0.977  0.00  0.00    +0.080 A 
ATOM     25  C   LIG    1        4.177  -1.127  -0.119  0.00  0.00    -0.080 A 
ATOM     26  C   LIG    1        4.112   0.899  -1.573  0.00  0.00    +0.160 C 
ATOM     27  S   LIG    1        3.127  -2.469   0.327  0.00  0.00    +0.130 S 
ENDBRANCH  21  22
ENDBRANCH  20  21
ENDBRANCH   4  20
TORSDOF 8
