REMARK  Name = ZINCpe000000XeZJ.0
REMARK                            x       y       z     vdW  Elec       q    Type
REMARK                         _______ _______ _______ _____ _____    ______ ____
ROOT
ATOM      1  C   LIG    1        0.997   6.061  -2.135  0.00  0.00    +0.210 C 
ATOM      2  C   LIG    1        0.168   5.760  -3.388  0.00  0.00    +0.250 C 
ATOM      3  O   LIG    1       -0.904   6.706  -3.462  0.00  0.00    -0.360 OA
ATOM      4  C   LIG    1       -1.879   6.527  -2.432  0.00  0.00    +0.290 C 
ATOM      5  C   LIG    1       -1.197   6.430  -1.096  0.00  0.00    +0.490 C 
ATOM      6  O   LIG    1       -1.859   6.569  -0.089  0.00  0.00    -0.520 OA
ATOM      7  N   LIG    1        0.116   6.195  -0.978  0.00  0.00    -0.580 N 
ENDROOT
BRANCH   1  10
ATOM      8  N   LIG    1        3.198   4.975  -2.446  0.00  0.00    -0.720 N 
ATOM      9  H   LIG    1        3.459   5.731  -2.994  0.00  0.00    +0.400 HD
ATOM     10  C   LIG    1        1.968   4.933  -1.897  0.00  0.00    +0.510 C 
ATOM     11  O   LIG    1        1.642   3.987  -1.212  0.00  0.00    -0.510 OA
BRANCH   8  13
ATOM     12  C   LIG    1        4.882   4.112  -0.896  0.00  0.00    +0.040 C 
ATOM     13  C   LIG    1        4.141   3.878  -2.215  0.00  0.00    +0.230 C 
BRANCH  13  14
ATOM     14  C   LIG    1        5.150   3.822  -3.363  0.00  0.00    +0.310 C 
BRANCH  14  15
ATOM     15  N   LIG    1        4.456   3.480  -4.607  0.00  0.00    -0.460 N 
ATOM     16  C   LIG    1        4.245   2.221  -5.100  0.00  0.00    +0.120 A 
ATOM     17  C   LIG    1        3.569   2.363  -6.256  0.00  0.00    +0.140 A 
ATOM     18  N   LIG    1        3.381   3.674  -6.469  0.00  0.00    -0.490 NA
ATOM     19  C   LIG    1        3.910   4.349  -5.485  0.00  0.00    +0.380 A 
ENDBRANCH  14  15
ENDBRANCH  13  14
ENDBRANCH   8  13
ENDBRANCH   1  10
BRANCH   7  20
ATOM     20  C   LIG    1        0.692   6.073   0.364  0.00  0.00    +0.340 C 
BRANCH  20  21
ATOM     21  C   LIG    1        1.074   7.439   0.872  0.00  0.00    -0.110 A 
ATOM     22  C   LIG    1        0.202   8.145   1.680  0.00  0.00    +0.040 A 
ATOM     23  C   LIG    1        0.552   9.399   2.146  0.00  0.00    +0.000 A 
ATOM     24  C   LIG    1        1.774   9.946   1.805  0.00  0.00    +0.010 A 
ATOM     25  C   LIG    1        2.645   9.242   0.994  0.00  0.00    +0.000 A 
ATOM     26  C   LIG    1        2.296   7.987   0.531  0.00  0.00    +0.000 A 
ENDBRANCH  20  21
ENDBRANCH   7  20
TORSDOF 6
