REMARK  Name = ZINCpk00000xI4wN.0
REMARK                            x       y       z     vdW  Elec       q    Type
REMARK                         _______ _______ _______ _____ _____    ______ ____
ROOT
ATOM      1  C   LIG    1        2.477   4.104  -0.001  0.00  0.00    -0.040 A 
ATOM      2  C   LIG    1        3.653   3.361  -0.015  0.00  0.00    +0.080 A 
ATOM      3  C   LIG    1        3.594   1.968  -0.022  0.00  0.00    -0.090 A 
ATOM      4  C   LIG    1        2.354   1.321  -0.013  0.00  0.00    +0.010 A 
ATOM      5  C   LIG    1        1.186   2.059   0.002  0.00  0.00    +0.100 A 
ATOM      6  C   LIG    1        1.238   3.450   0.003  0.00  0.00    +0.110 A 
ENDROOT
BRANCH   1   9
ATOM      7  C   LIG    1        3.765   7.705   0.004  0.00  0.00    +0.080 C 
ATOM      8  C   LIG    1        3.707   6.199  -0.003  0.00  0.00    -0.010 C 
ATOM      9  C   LIG    1        2.534   5.581   0.006  0.00  0.00    +0.000 C 
ENDBRANCH   1   9
BRANCH   5  10
ATOM     10  O   LIG    1       -0.017   1.425   0.010  0.00  0.00    -0.300 OA
ATOM     11  C   LIG    1        0.002  -0.004   0.002  0.00  0.00    +0.250 C 
ENDBRANCH   5  10
BRANCH   3  12
ATOM     12  C   LIG    1        4.839   1.177  -0.038  0.00  0.00    +0.510 C 
ATOM     13  O   LIG    1        5.916   1.739  -0.045  0.00  0.00    -0.490 OA
BRANCH  12  14
ATOM     14  O   LIG    1        4.782  -0.170  -0.044  0.00  0.00    -0.340 OA
BRANCH  14  15
ATOM     15  C   LIG    1        6.046  -0.883  -0.060  0.00  0.00    +0.300 C 
BRANCH  15  16
ATOM     16  C   LIG    1        5.785  -2.367  -0.066  0.00  0.00    +0.550 C 
ATOM     17  N   LIG    1        6.818  -3.233  -0.080  0.00  0.00    -0.580 N 
ATOM     18  C   LIG    1        6.702  -4.699  -0.081  0.00  0.00    +0.280 C 
ATOM     19  C   LIG    1        8.164  -5.185  -0.104  0.00  0.00    +0.290 C 
ATOM     20  N   LIG    1        8.949  -3.942  -0.104  0.00  0.00    -0.720 N 
ATOM     21  H   LIG    1        9.918  -3.889  -0.113  0.00  0.00    +0.440 HD
ATOM     22  C   LIG    1        8.114  -2.894  -0.090  0.00  0.00    +0.700 C 
ATOM     23  O   LIG    1        8.498  -1.741  -0.088  0.00  0.00    -0.550 OA
ATOM     24  O   LIG    1        4.646  -2.783  -0.057  0.00  0.00    -0.470 OA
ENDBRANCH  15  16
ENDBRANCH  14  15
ENDBRANCH  12  14
ENDBRANCH   3  12
BRANCH   6  25
ATOM     25  O   LIG    1        0.089   4.172   0.012  0.00  0.00    -0.320 OA
ATOM     26  C   LIG    1       -0.451   4.516   1.290  0.00  0.00    +0.230 C 
ENDBRANCH   6  25
TORSDOF 7
