REMARK  Name = ZINCrD0000075IwC.0
REMARK                            x       y       z     vdW  Elec       q    Type
REMARK                         _______ _______ _______ _____ _____    ______ ____
ROOT
ATOM      1  C   LIG    1        0.002  -0.004   0.002  0.00  0.00    +0.300 C 
ENDROOT
BRANCH   1   2
ATOM      2  C   LIG    1        0.731  -0.503   1.223  0.00  0.00    -0.140 A 
ATOM      3  C   LIG    1        0.083  -0.547   2.444  0.00  0.00    +0.070 A 
ATOM      4  C   LIG    1        0.747  -1.010   3.563  0.00  0.00    -0.050 A 
ATOM      5  C   LIG    1        2.069  -1.420   3.464  0.00  0.00    +0.120 A 
ATOM      6  C   LIG    1        2.718  -1.370   2.239  0.00  0.00    +0.010 A 
ATOM      7  C   LIG    1        2.048  -0.911   1.122  0.00  0.00    +0.090 A 
BRANCH   5   8
ATOM      8  O   LIG    1        2.726  -1.870   4.565  0.00  0.00    -0.320 OA
BRANCH   8   9
ATOM      9  C   LIG    1        1.995  -1.895   5.792  0.00  0.00    +0.600 C 
ATOM     10  F   LIG    1        0.879  -2.728   5.654  0.00  0.00    -0.200 F 
ATOM     11  F   LIG    1        1.573  -0.599   6.110  0.00  0.00    -0.200 F 
ENDBRANCH   8   9
ENDBRANCH   5   8
ENDBRANCH   1   2
BRANCH   1  14
ATOM     12  O   LIG    1       -1.522  -0.340  -2.198  0.00  0.00    -0.530 OA
ATOM     13  C   LIG    1       -2.051  -0.643  -1.145  0.00  0.00    +0.610 C 
ATOM     14  N   LIG    1       -1.372  -0.511   0.012  0.00  0.00    -0.720 N 
ATOM     15  H   LIG    1       -1.794  -0.752   0.852  0.00  0.00    +0.410 HD
BRANCH  13  16
ATOM     16  C   LIG    1       -3.427  -1.150  -1.134  0.00  0.00    -0.280 A 
ATOM     17  C   LIG    1       -4.261  -1.337  -2.254  0.00  0.00    +0.120 A 
ATOM     18  C   LIG    1       -4.088  -1.126  -3.626  0.00  0.00    +0.140 A 
ATOM     19  C   LIG    1       -5.117  -1.413  -4.477  0.00  0.00    +0.010 A 
ATOM     20  C   LIG    1       -6.322  -1.910  -3.972  0.00  0.00    +0.330 A 
ATOM     21  N   LIG    1       -6.481  -2.115  -2.689  0.00  0.00    -0.210 NA
ATOM     22  N   LIG    1       -5.449  -1.828  -1.787  0.00  0.00    -0.170 N 
ATOM     23  N   LIG    1       -5.353  -1.934  -0.396  0.00  0.00    -0.250 NA
ATOM     24  C   LIG    1       -4.167  -1.538  -0.006  0.00  0.00    +0.310 A 
ENDBRANCH  13  16
ENDBRANCH   1  14
BRANCH   1  25
ATOM     25  C   LIG    1       -0.019   1.526   0.010  0.00  0.00    +0.440 C 
ATOM     26  F   LIG    1       -0.673   1.977   1.161  0.00  0.00    -0.180 F 
ATOM     27  F   LIG    1       -0.695   1.989  -1.123  0.00  0.00    -0.170 F 
ATOM     28  F   LIG    1        1.294   2.010   0.001  0.00  0.00    -0.180 F 
ENDBRANCH   1  25
TORSDOF 6
