REMARK  Name = ZINCpk000005Pxis.1
REMARK                            x       y       z     vdW  Elec       q    Type
REMARK                         _______ _______ _______ _____ _____    ______ ____
ROOT
ATOM      1  C   LIG    1       -8.434   5.082  -1.183  0.00  0.00    +0.600 C 
ATOM      2  N   LIG    1       -7.184   4.950  -0.696  0.00  0.00    -0.640 N 
ATOM      3  C   LIG    1       -6.403   5.637   0.351  0.00  0.00    +0.310 C 
ATOM      4  C   LIG    1       -5.582   4.338   0.444  0.00  0.00    -0.030 C 
ATOM      5  C   LIG    1       -6.045   4.056  -0.997  0.00  0.00    +0.290 C 
ATOM      6  O   LIG    1       -9.209   5.860  -0.662  0.00  0.00    -0.530 OA
ENDROOT
BRANCH   1  14
ATOM      7  C   LIG    1      -13.045   4.111  -4.033  0.00  0.00    +0.200 C 
ATOM      8  C   LIG    1      -11.767   3.429  -4.447  0.00  0.00    +0.180 A 
ATOM      9  N   LIG    1      -11.640   2.601  -5.450  0.00  0.00    -0.450 NA
ATOM     10  C   LIG    1      -10.376   2.182  -5.538  0.00  0.00    +0.180 A 
ATOM     11  C   LIG    1       -9.664   2.786  -4.523  0.00  0.00    -0.000 A 
ATOM     12  C   LIG    1       -8.309   2.723  -4.128  0.00  0.00    +0.080 A 
ATOM     13  C   LIG    1       -7.892   3.448  -3.062  0.00  0.00    +0.030 A 
ATOM     14  C   LIG    1       -8.861   4.282  -2.346  0.00  0.00    -0.160 A 
ATOM     15  C   LIG    1      -10.160   4.311  -2.757  0.00  0.00    +0.320 A 
ATOM     16  N   LIG    1      -10.562   3.578  -3.835  0.00  0.00    -0.380 N 
ENDBRANCH   1  14
BRANCH   4  17
ATOM     17  C   LIG    1       -4.075   4.570   0.572  0.00  0.00    +0.290 C 
BRANCH  17  18
ATOM     18  N   LIG    1       -3.394   3.282   0.727  0.00  0.00    -0.730 N 
ATOM     19  H   LIG    1       -3.908   2.460   0.736  0.00  0.00    +0.400 HD
ATOM     20  C   LIG    1       -2.053   3.240   0.859  0.00  0.00    +0.590 C 
ATOM     21  O   LIG    1       -1.409   4.272   0.848  0.00  0.00    -0.540 OA
BRANCH  20  22
ATOM     22  C   LIG    1       -1.369   1.946   1.014  0.00  0.00    -0.230 A 
ATOM     23  C   LIG    1       -1.949   0.707   1.040  0.00  0.00    +0.220 A 
ATOM     24  N   LIG    1       -0.979  -0.213   1.203  0.00  0.00    -0.550 N 
ATOM     25  H   LIG    1       -1.126  -1.170   1.256  0.00  0.00    +0.420 HD
ATOM     26  C   LIG    1        0.241   0.394   1.277  0.00  0.00    +0.150 A 
ATOM     27  C   LIG    1        0.073   1.724   1.168  0.00  0.00    +0.010 A 
ENDBRANCH  20  22
ENDBRANCH  17  18
ENDBRANCH   4  17
TORSDOF 4
