REMARK  Name = ZINC650000001I4R.0
REMARK                            x       y       z     vdW  Elec       q    Type
REMARK                         _______ _______ _______ _____ _____    ______ ____
ROOT
ATOM      1  S   LIG    1       -0.017   1.417   0.010  0.00  0.00    +2.620 S 
ATOM      2  O   LIG    1        1.190   2.166   0.002  0.00  0.00    -0.960 OA
ATOM      3  O   LIG    1        0.002  -0.004   0.002  0.00  0.00    -0.960 OA
ENDROOT
BRANCH   1   4
ATOM      4  N   LIG    1       -0.759   1.823  -1.414  0.00  0.00    -1.250 NA
ATOM      5  H   LIG    1       -0.943   2.753  -1.617  0.00  0.00    +0.420 HD
ATOM      6  H   LIG    1       -1.008   1.130  -2.046  0.00  0.00    +0.420 HD
ENDBRANCH   1   4
BRANCH   1   8
ATOM      7  C   LIG    1       -0.558   1.712   2.675  0.00  0.00    +0.070 C 
ATOM      8  C   LIG    1       -1.139   2.031   1.296  0.00  0.00    -0.370 C 
ENDBRANCH   1   8
TORSDOF 2
