REMARK  Name = ZINCvU0000000Fal.0
REMARK                            x       y       z     vdW  Elec       q    Type
REMARK                         _______ _______ _______ _____ _____    ______ ____
ROOT
ATOM      1  C   LIG    1        1.539   3.712  -0.630  0.00  0.00    -0.130 A 
ATOM      2  C   LIG    1        0.343   4.190  -0.089  0.00  0.00    +0.070 A 
ATOM      3  C   LIG    1        0.217   5.525   0.227  0.00  0.00    +0.020 A 
ATOM      4  C   LIG    1        1.274   6.398  -0.004  0.00  0.00    +0.160 A 
ATOM      5  C   LIG    1        2.463   5.927  -0.549  0.00  0.00    +0.050 A 
ATOM      6  C   LIG    1        2.599   4.593  -0.861  0.00  0.00    +0.110 A 
ENDROOT
BRANCH   4   7
ATOM      7  N   LIG    1        1.140   7.754   0.311  0.00  0.00    -0.330 N 
ATOM      8  N   LIG    1        2.079   8.563   0.968  0.00  0.00    -0.050 NA
ATOM      9  N   LIG    1        1.589   9.748   1.072  0.00  0.00    -0.220 NA
ATOM     10  C   LIG    1        0.376   9.794   0.528  0.00  0.00    +0.150 A 
ATOM     11  C   LIG    1        0.067   8.561   0.036  0.00  0.00    +0.100 A 
BRANCH  11  12
ATOM     12  C   LIG    1       -1.182   8.170  -0.654  0.00  0.00    -0.040 A 
ATOM     13  C   LIG    1       -1.183   7.096  -1.545  0.00  0.00    +0.040 A 
ATOM     14  C   LIG    1       -2.352   6.733  -2.182  0.00  0.00    +0.030 A 
ATOM     15  C   LIG    1       -3.519   7.439  -1.947  0.00  0.00    -0.020 A 
ATOM     16  C   LIG    1       -3.523   8.509  -1.069  0.00  0.00    +0.030 A 
ATOM     17 CL   LIG    1       -4.984   6.980  -2.758  0.00  0.00    -0.060 Cl
ATOM     18  C   LIG    1       -2.362   8.878  -0.422  0.00  0.00    +0.070 A 
ENDBRANCH  11  12
ENDBRANCH   4   7
BRANCH   1  20
ATOM     19  O   LIG    1        2.720   1.867  -1.440  0.00  0.00    -0.510 OA
ATOM     20  C   LIG    1        1.680   2.280  -0.964  0.00  0.00    +0.560 C 
ATOM     21  N   LIG    1        0.657   1.432  -0.740  0.00  0.00    -0.670 N 
ATOM     22  H   LIG    1       -0.196   1.773  -0.427  0.00  0.00    +0.410 HD
BRANCH  21  23
ATOM     23  C   LIG    1        0.823   0.062  -0.965  0.00  0.00    +0.140 A 
ATOM     24  C   LIG    1        1.615  -0.380  -2.016  0.00  0.00    +0.060 A 
ATOM     25  C   LIG    1        1.781  -1.734  -2.232  0.00  0.00    +0.040 A 
ATOM     26  C   LIG    1        1.151  -2.649  -1.409  0.00  0.00    +0.060 A 
ATOM     27  C   LIG    1        0.357  -2.212  -0.364  0.00  0.00    -0.160 A 
ATOM     28  C   LIG    1        0.191  -0.860  -0.140  0.00  0.00    +0.040 A 
BRANCH  27  29
ATOM     29  C   LIG    1       -0.328  -3.213   0.530  0.00  0.00    +0.510 C 
ATOM     30  F   LIG    1       -0.473  -2.671   1.812  0.00  0.00    -0.180 F 
ATOM     31  F   LIG    1        0.443  -4.379   0.602  0.00  0.00    -0.170 F 
ATOM     32  F   LIG    1       -1.589  -3.519   0.008  0.00  0.00    -0.170 F 
ENDBRANCH  27  29
ENDBRANCH  21  23
ENDBRANCH   1  20
TORSDOF 5
