REMARK  Name = ZINCrH00000tj19n.0
REMARK                            x       y       z     vdW  Elec       q    Type
REMARK                         _______ _______ _______ _____ _____    ______ ____
ROOT
ATOM      1  C   LIG    1        1.181   1.788   0.000  0.00  0.00    -0.020 A 
ATOM      2  C   LIG    1       -0.013   1.076   0.008  0.00  0.00    +0.000 A 
ATOM      3  C   LIG    1       -1.217   1.751   0.017  0.00  0.00    +0.220 A 
ATOM      4  C   LIG    1       -1.237   3.134   0.031  0.00  0.00    -0.500 A 
ATOM      5  C   LIG    1       -0.051   3.845   0.023  0.00  0.00    +0.230 A 
ATOM      6  C   LIG    1        1.157   3.178   0.008  0.00  0.00    -0.050 A 
ENDROOT
BRANCH   6   7
ATOM      7  N   LIG    1        2.425   3.940   0.001  0.00  0.00    +0.030 N 
ATOM      8  O   LIG    1        3.491   3.350  -0.012  0.00  0.00    -0.140 OA
ATOM      9  O   LIG    1        2.404   5.158   0.007  0.00  0.00    -0.150 OA
ENDBRANCH   6   7
BRANCH   4  10
ATOM     10  S   LIG    1       -2.776   3.990   0.050  0.00  0.00    +1.420 S 
ATOM     11  O   LIG    1       -2.435   5.250   0.613  0.00  0.00    -0.760 OA
BRANCH  10  12
ATOM     12  C   LIG    1       -3.150   4.198  -1.714  0.00  0.00    +0.110 C 
ATOM     13  F   LIG    1       -2.130   4.937  -2.322  0.00  0.00    -0.190 F 
ATOM     14  F   LIG    1       -4.366   4.875  -1.856  0.00  0.00    -0.170 F 
ATOM     15  F   LIG    1       -3.241   2.941  -2.322  0.00  0.00    -0.170 F 
ENDBRANCH  10  12
ENDBRANCH   4  10
BRANCH   1  16
ATOM     16  S   LIG    1        2.720   0.931  -0.020  0.00  0.00    +0.140 S 
BRANCH  16  17
ATOM     17  C   LIG    1        2.217  -0.812  -0.025  0.00  0.00    +0.090 C 
BRANCH  17  19
ATOM     18  O   LIG    1        4.543  -1.189  -0.050  0.00  0.00    -0.470 OA
ATOM     19  C   LIG    1        3.443  -1.689  -0.042  0.00  0.00    +0.490 C 
BRANCH  19  20
ATOM     20  O   LIG    1        3.312  -3.025  -0.048  0.00  0.00    -0.330 OA
BRANCH  20  21
ATOM     21  C   LIG    1        4.536  -3.806  -0.064  0.00  0.00    +0.260 C 
BRANCH  21  22
ATOM     22  C   LIG    1        4.189  -5.296  -0.070  0.00  0.00    +0.260 C 
ATOM     23  F   LIG    1        3.452  -5.608   1.078  0.00  0.00    -0.170 F 
ATOM     24  F   LIG    1        5.368  -6.050  -0.085  0.00  0.00    -0.160 F 
BRANCH  22  25
ATOM     25  C   LIG    1        3.359  -5.622  -1.313  0.00  0.00    +0.380 C 
ATOM     26  F   LIG    1        2.180  -4.869  -1.297  0.00  0.00    -0.170 F 
ATOM     27  F   LIG    1        3.042  -6.985  -1.317  0.00  0.00    -0.180 F 
ENDBRANCH  22  25
ENDBRANCH  21  22
ENDBRANCH  20  21
ENDBRANCH  19  20
ENDBRANCH  17  19
ENDBRANCH  16  17
ENDBRANCH   1  16
TORSDOF 10
