REMARK  Name = ZINCpk00000y6btI.0
REMARK                            x       y       z     vdW  Elec       q    Type
REMARK                         _______ _______ _______ _____ _____    ______ ____
ROOT
ATOM      1  C   LIG    1       -2.457   4.019  -0.201  0.00  0.00    +0.110 C 
ATOM      2  C   LIG    1       -1.155   3.260  -0.184  0.00  0.00    -0.070 A 
ATOM      3  C   LIG    1        0.036   3.929  -0.388  0.00  0.00    +0.050 A 
ATOM      4  C   LIG    1        1.232   3.236  -0.373  0.00  0.00    +0.020 A 
ATOM      5  C   LIG    1        1.239   1.864  -0.154  0.00  0.00    +0.150 A 
ATOM      6  C   LIG    1        0.043   1.190   0.051  0.00  0.00    +0.050 A 
ATOM      7  C   LIG    1       -1.155   1.887   0.030  0.00  0.00    +0.140 A 
ENDROOT
BRANCH   7   8
ATOM      8  N   LIG    1       -2.366   1.209   0.230  0.00  0.00    -0.530 N 
ATOM      9  C   LIG    1       -3.105   0.671  -0.760  0.00  0.00    +0.520 C 
ATOM     10  C   LIG    1       -4.308   0.048  -0.081  0.00  0.00    +0.320 C 
ATOM     11  N   LIG    1       -4.090   0.340   1.346  0.00  0.00    -0.730 N 
ATOM     12  H   LIG    1       -4.669   0.091   2.083  0.00  0.00    +0.440 HD
ATOM     13  O   LIG    1       -2.858   0.683  -1.947  0.00  0.00    -0.450 OA
ATOM     14  C   LIG    1       -2.933   1.020   1.427  0.00  0.00    +0.700 C 
ATOM     15  O   LIG    1       -2.455   1.418   2.471  0.00  0.00    -0.530 OA
ENDBRANCH   7   8
BRANCH   5  16
ATOM     16  N   LIG    1        2.449   1.163  -0.139  0.00  0.00    -0.650 N 
ATOM     17  H   LIG    1        3.253   1.591   0.195  0.00  0.00    +0.420 HD
ATOM     18  C   LIG    1        2.498  -0.106  -0.589  0.00  0.00    +0.590 C 
ATOM     19  O   LIG    1        1.514  -0.610  -1.095  0.00  0.00    -0.520 OA
BRANCH  18  20
ATOM     20  C   LIG    1        3.747  -0.885  -0.469  0.00  0.00    -0.040 A 
ATOM     21  N   LIG    1        4.788  -0.380   0.187  0.00  0.00    -0.350 NA
ATOM     22  C   LIG    1        5.902  -1.077   0.293  0.00  0.00    +0.000 A 
ATOM     23  C   LIG    1        5.995  -2.340  -0.277  0.00  0.00    +0.370 A 
ATOM     24  N   LIG    1        4.969  -2.853  -0.931  0.00  0.00    -0.490 NA
ATOM     25 BR   LIG    1        7.379  -0.356   1.227  0.00  0.00    +0.020 Br
ATOM     26  C   LIG    1        3.839  -2.164  -1.041  0.00  0.00    +0.430 A 
BRANCH  26  27
ATOM     27  N   LIG    1        2.760  -2.701  -1.720  0.00  0.00    -0.810 N 
ATOM     28  H   LIG    1        2.681  -3.662  -1.822  0.00  0.00    +0.410 HD
ATOM     29  H   LIG    1        2.083  -2.116  -2.094  0.00  0.00    +0.430 HD
ENDBRANCH  26  27
ENDBRANCH  18  20
ENDBRANCH   5  16
TORSDOF 4
