REMARK  Name = ZINCpk00000xUOmF.0
REMARK                            x       y       z     vdW  Elec       q    Type
REMARK                         _______ _______ _______ _____ _____    ______ ____
ROOT
ATOM      1  C   LIG    1       -2.482   0.853   0.018  0.00  0.00    +0.220 C 
ENDROOT
BRANCH   1   7
ATOM      2  C   LIG    1       -6.882   4.109  -0.618  0.00  0.00    +0.190 A 
ATOM      3  N   LIG    1       -6.413   4.843  -1.595  0.00  0.00    -0.290 NA
ATOM      4  N   LIG    1       -5.246   4.415  -1.941  0.00  0.00    -0.280 NA
ATOM      5  C   LIG    1       -4.923   3.399  -1.203  0.00  0.00    +0.180 A 
ATOM      6  C   LIG    1       -3.666   2.566  -1.224  0.00  0.00    +0.340 C 
ATOM      7  N   LIG    1       -3.611   1.792   0.029  0.00  0.00    -0.530 NA
ATOM      8  C   LIG    1       -4.878   1.090   0.277  0.00  0.00    +0.200 C 
ATOM      9  C   LIG    1       -5.969   2.103   0.649  0.00  0.00    +0.310 C 
ATOM     10  N   LIG    1       -5.953   3.176  -0.345  0.00  0.00    -0.470 N 
BRANCH   2  12
ATOM     11  C   LIG    1       -8.282   5.667   0.710  0.00  0.00    +0.060 C 
ATOM     12  C   LIG    1       -8.211   4.278   0.072  0.00  0.00    +0.080 C 
ATOM     13  C   LIG    1       -9.339   4.130  -0.952  0.00  0.00    +0.050 C 
ENDBRANCH   2  12
ENDBRANCH   1   7
BRANCH   1  14
ATOM     14  C   LIG    1       -1.187   1.624   0.017  0.00  0.00    +0.510 C 
ATOM     15  N   LIG    1       -0.011   0.966   0.007  0.00  0.00    -0.730 N 
ATOM     16  H   LIG    1        0.002  -0.004   0.002  0.00  0.00    +0.400 HD
ATOM     17  O   LIG    1       -1.204   2.837   0.023  0.00  0.00    -0.520 OA
BRANCH  15  18
ATOM     18  C   LIG    1        1.248   1.716  -0.001  0.00  0.00    +0.290 C 
BRANCH  18  19
ATOM     19  C   LIG    1        2.424   0.737  -0.017  0.00  0.00    +0.200 C 
BRANCH  19  20
ATOM     20  O   LIG    1        2.414   0.001  -1.242  0.00  0.00    -0.310 OA
BRANCH  20  21
ATOM     21  C   LIG    1        3.400  -0.917  -1.418  0.00  0.00    +0.130 A 
ATOM     22  C   LIG    1        4.361  -1.102  -0.434  0.00  0.00    -0.080 A 
ATOM     23  C   LIG    1        5.359  -2.040  -0.613  0.00  0.00    +0.050 A 
ATOM     24  C   LIG    1        5.408  -2.787  -1.776  0.00  0.00    -0.040 A 
ATOM     25  C   LIG    1        4.455  -2.600  -2.760  0.00  0.00    +0.050 A 
ATOM     26  C   LIG    1        3.452  -1.667  -2.584  0.00  0.00    -0.020 A 
ENDBRANCH  20  21
ENDBRANCH  19  20
ENDBRANCH  18  19
ENDBRANCH  15  18
ENDBRANCH   1  14
TORSDOF 7
