REMARK  Name = ZINCnE000001SQAo.0
REMARK                            x       y       z     vdW  Elec       q    Type
REMARK                         _______ _______ _______ _____ _____    ______ ____
ROOT
ATOM      1  O   LIG    1       -2.975   1.204   3.802  0.00  0.00    -0.550 OA
ATOM      2  C   LIG    1       -1.921   1.798   3.687  0.00  0.00    +0.560 C 
ATOM      3  N   LIG    1       -1.408   2.028   2.462  0.00  0.00    -0.710 N 
ATOM      4  H   LIG    1       -0.566   2.502   2.370  0.00  0.00    +0.400 HD
ENDROOT
BRANCH   2   5
ATOM      5  C   LIG    1       -1.202   2.266   4.888  0.00  0.00    -0.130 A 
ATOM      6  C   LIG    1        0.017   2.945   4.754  0.00  0.00    +0.070 A 
ATOM      7  C   LIG    1        0.681   3.383   5.858  0.00  0.00    +0.040 A 
ATOM      8  C   LIG    1        0.165   3.155   7.140  0.00  0.00    -0.120 A 
ATOM      9  S   LIG    1        0.801   3.596   8.720  0.00  0.00    +0.080 S 
ATOM     10  C   LIG    1       -0.560   2.864   9.548  0.00  0.00    -0.030 A 
ATOM     11  C   LIG    1       -1.415   2.336   8.697  0.00  0.00    +0.040 A 
ATOM     12  C   LIG    1       -1.048   2.474   7.296  0.00  0.00    -0.090 A 
ATOM     13  C   LIG    1       -1.731   2.028   6.148  0.00  0.00    +0.130 A 
ENDBRANCH   2   5
BRANCH   3  14
ATOM     14  C   LIG    1       -2.121   1.563   1.270  0.00  0.00    +0.290 C 
BRANCH  14  15
ATOM     15  C   LIG    1       -1.330   1.951   0.019  0.00  0.00    -0.060 C 
BRANCH  15  16
ATOM     16  C   LIG    1       -2.121   1.583  -1.210  0.00  0.00    -0.050 A 
ATOM     17  C   LIG    1       -2.471   0.265  -1.437  0.00  0.00    +0.050 A 
ATOM     18  C   LIG    1       -3.200  -0.072  -2.562  0.00  0.00    -0.010 A 
ATOM     19  C   LIG    1       -3.572   0.907  -3.464  0.00  0.00    -0.030 A 
ATOM     20  C   LIG    1       -3.216   2.224  -3.240  0.00  0.00    -0.020 A 
ATOM     21  C   LIG    1       -2.491   2.562  -2.113  0.00  0.00    +0.000 A 
ENDBRANCH  15  16
BRANCH  15  22
ATOM     22  C   LIG    1       -0.015   1.215   0.009  0.00  0.00    +0.510 C 
ATOM     23  O   LIG    1        1.033   1.839   0.002  0.00  0.00    -0.690 OA
ATOM     24  O   LIG    1        0.002  -0.004   0.002  0.00  0.00    -0.680 OA
ENDBRANCH  15  22
ENDBRANCH  14  15
ENDBRANCH   3  14
TORSDOF 5
