REMARK  Name = ZINCrg00000KkpzM.0
REMARK                            x       y       z     vdW  Elec       q    Type
REMARK                         _______ _______ _______ _____ _____    ______ ____
ROOT
ATOM      1  N   LIG    1        1.341   5.365  -2.070  0.00  0.00    -0.490 N 
ATOM      2  H   LIG    1        1.367   4.367  -1.926  0.00  0.00    +0.440 HD
ATOM      3  H   LIG    1        2.101   5.798  -1.566  0.00  0.00    +0.410 HD
ENDROOT
BRANCH   1   4
ATOM      4  C   LIG    1        0.062   5.897  -1.581  0.00  0.00    +0.150 C 
BRANCH   4   5
ATOM      5  C   LIG    1       -1.086   5.293  -2.392  0.00  0.00    +0.090 C 
BRANCH   5   7
ATOM      6  O   LIG    1       -2.026   3.270  -1.607  0.00  0.00    -0.630 OA
ATOM      7  C   LIG    1       -1.102   3.798  -2.202  0.00  0.00    +0.490 C 
ATOM      8  O   LIG    1       -0.192   3.117  -2.642  0.00  0.00    -0.690 OA
ENDBRANCH   5   7
BRANCH   5   9
ATOM      9  O   LIG    1       -2.326   5.844  -1.945  0.00  0.00    -0.510 OA
ATOM     10  H   LIG    1       -2.386   6.805  -2.038  0.00  0.00    +0.360 HD
ENDBRANCH   5   9
ENDBRANCH   4   5
BRANCH   4  11
ATOM     11  C   LIG    1        0.051   7.419  -1.736  0.00  0.00    +0.110 C 
BRANCH  11  12
ATOM     12  C   LIG    1        1.103   8.024  -0.842  0.00  0.00    -0.110 A 
ATOM     13  C   LIG    1        2.386   8.217  -1.318  0.00  0.00    -0.020 A 
ATOM     14  C   LIG    1        3.351   8.771  -0.498  0.00  0.00    +0.020 A 
ATOM     15  C   LIG    1        3.033   9.133   0.798  0.00  0.00    +0.020 A 
ATOM     16  C   LIG    1        1.750   8.935   1.275  0.00  0.00    +0.020 A 
ATOM     17  C   LIG    1        0.784   8.385   0.454  0.00  0.00    +0.030 A 
ENDBRANCH  11  12
ENDBRANCH   4  11
ENDBRANCH   1   4
BRANCH   1  18
ATOM     18  C   LIG    1        1.476   5.656  -3.504  0.00  0.00    +0.330 C 
BRANCH  18  19
ATOM     19  C   LIG    1        2.772   5.079  -4.014  0.00  0.00    -0.230 A 
ATOM     20  C   LIG    1        2.815   3.784  -4.512  0.00  0.00    +0.150 A 
ATOM     21  C   LIG    1        4.024   3.293  -4.970  0.00  0.00    -0.030 A 
ATOM     22  C   LIG    1        5.150   4.109  -4.916  0.00  0.00    +0.340 A 
ATOM     23  N   LIG    1        5.068   5.339  -4.433  0.00  0.00    -0.520 NA
ATOM     24  C   LIG    1        3.926   5.836  -3.995  0.00  0.00    +0.310 A 
BRANCH  22  25
ATOM     25  N   LIG    1        6.371   3.628  -5.373  0.00  0.00    -0.480 N 
ATOM     26  C   LIG    1        6.744   2.388  -4.677  0.00  0.00    +0.180 C 
ATOM     27  C   LIG    1        8.062   1.863  -5.251  0.00  0.00    +0.240 C 
ATOM     28  O   LIG    1        9.066   2.874  -5.129  0.00  0.00    -0.380 OA
ATOM     29  C   LIG    1        8.736   4.096  -5.796  0.00  0.00    +0.230 C 
ATOM     30  C   LIG    1        7.425   4.644  -5.228  0.00  0.00    +0.190 C 
ENDBRANCH  22  25
ENDBRANCH  18  19
ENDBRANCH   1  18
TORSDOF 9
