REMARK  Name = ZINCvU0000000Fia.0
REMARK                            x       y       z     vdW  Elec       q    Type
REMARK                         _______ _______ _______ _____ _____    ______ ____
ROOT
ATOM      1  N   LIG    1        5.911  -1.220  -6.295  0.00  0.00    -0.560 N 
ATOM      2  C   LIG    1        7.015  -1.822  -5.838  0.00  0.00    +0.710 C 
ATOM      3  N   LIG    1        8.120  -1.072  -6.013  0.00  0.00    -0.710 N 
ATOM      4  H   LIG    1        9.027  -1.305  -5.760  0.00  0.00    +0.440 HD
ATOM      5  C   LIG    1        7.680   0.169  -6.664  0.00  0.00    +0.130 C 
ATOM      6  C   LIG    1        8.343   0.320  -8.029  0.00  0.00    +0.050 C 
ATOM      7  C   LIG    1        9.857   0.462  -7.849  0.00  0.00    +0.030 C 
ATOM      8  C   LIG    1       10.154   1.685  -6.981  0.00  0.00    +0.000 C 
ATOM      9  C   LIG    1        9.501   1.510  -5.608  0.00  0.00    +0.030 C 
ATOM     10  C   LIG    1        7.985   1.373  -5.779  0.00  0.00    +0.060 C 
ATOM     11  O   LIG    1        7.021  -2.923  -5.323  0.00  0.00    -0.540 OA
ATOM     12  C   LIG    1        6.188  -0.010  -6.824  0.00  0.00    +0.540 C 
ATOM     13  O   LIG    1        5.404   0.771  -7.321  0.00  0.00    -0.460 OA
ENDROOT
BRANCH   8  14
ATOM     14  C   LIG    1       11.667   1.833  -6.809  0.00  0.00    -0.060 C 
ATOM     15  C   LIG    1       12.229   0.581  -6.133  0.00  0.00    +0.030 C 
ATOM     16  C   LIG    1       11.965   3.058  -5.942  0.00  0.00    +0.020 C 
BRANCH  14  17
ATOM     17  C   LIG    1       12.320   2.009  -8.182  0.00  0.00    +0.000 C 
ATOM     18  C   LIG    1       13.834   2.157  -8.011  0.00  0.00    +0.010 C 
ENDBRANCH  14  17
ENDBRANCH   8  14
BRANCH   1  19
ATOM     19  C   LIG    1        4.569  -1.804  -6.235  0.00  0.00    +0.360 C 
BRANCH  19  22
ATOM     20  N   LIG    1        2.658  -1.834  -4.665  0.00  0.00    -0.670 N 
ATOM     21  H   LIG    1        2.214  -2.456  -5.263  0.00  0.00    +0.410 HD
ATOM     22  C   LIG    1        3.906  -1.408  -4.941  0.00  0.00    +0.500 C 
ATOM     23  O   LIG    1        4.497  -0.707  -4.147  0.00  0.00    -0.500 OA
BRANCH  20  27
ATOM     24  C   LIG    1        0.700  -0.475  -1.248  0.00  0.00    -0.090 A 
ATOM     25  C   LIG    1        0.475  -1.760  -1.707  0.00  0.00    +0.040 A 
ATOM     26  C   LIG    1        1.119  -2.212  -2.843  0.00  0.00    -0.010 A 
ATOM     27  C   LIG    1        2.000  -1.377  -3.518  0.00  0.00    +0.140 A 
ATOM     28  C   LIG    1        2.228  -0.089  -3.051  0.00  0.00    +0.010 A 
ATOM     29  C   LIG    1        1.577   0.358  -1.918  0.00  0.00    +0.020 A 
BRANCH  24  30
ATOM     30  C   LIG    1       -0.009   0.016  -0.012  0.00  0.00    +0.030 C 
ATOM     31  C   LIG    1        0.358  -0.877   1.175  0.00  0.00    +0.030 C 
BRANCH  30  33
ATOM     32  C   LIG    1       -2.236   0.583   0.967  0.00  0.00    +0.000 C 
ATOM     33  C   LIG    1       -1.521  -0.032  -0.238  0.00  0.00    +0.000 C 
ENDBRANCH  30  33
ENDBRANCH  24  30
ENDBRANCH  20  27
ENDBRANCH  19  22
ENDBRANCH   1  19
TORSDOF 7
