REMARK  Name = ZINCrD000000AgfW.0
REMARK                            x       y       z     vdW  Elec       q    Type
REMARK                         _______ _______ _______ _____ _____    ______ ____
ROOT
ATOM      1  O   LIG    1        4.981   5.800  -0.363  0.00  0.00    -0.510 OA
ATOM      2  C   LIG    1        3.983   6.478  -0.242  0.00  0.00    +0.520 C 
ATOM      3  N   LIG    1        4.078   7.823  -0.243  0.00  0.00    -0.670 N 
ATOM      4  H   LIG    1        3.289   8.365  -0.084  0.00  0.00    +0.420 HD
ENDROOT
BRANCH   3   5
ATOM      5  C   LIG    1        5.315   8.437  -0.473  0.00  0.00    +0.180 A 
ATOM      6  C   LIG    1        5.375   9.634  -1.174  0.00  0.00    +0.010 A 
ATOM      7  C   LIG    1        6.595  10.241  -1.402  0.00  0.00    +0.080 A 
ATOM      8  C   LIG    1        7.761   9.655  -0.931  0.00  0.00    +0.070 A 
ATOM      9  C   LIG    1        7.702   8.455  -0.229  0.00  0.00    +0.130 A 
ATOM     10  F   LIG    1        8.836   7.884   0.229  0.00  0.00    -0.120 F 
ATOM     11  C   LIG    1        6.480   7.851   0.004  0.00  0.00    +0.020 A 
BRANCH   8  12
ATOM     12  N   LIG    1        9.000  10.272  -1.163  0.00  0.00    -0.420 N 
ATOM     13  C   LIG    1        9.969  10.532  -0.228  0.00  0.00    +0.140 A 
ATOM     14  C   LIG    1       10.986  11.130  -0.876  0.00  0.00    +0.160 A 
ATOM     15  N   LIG    1       10.654  11.234  -2.171  0.00  0.00    -0.480 NA
ATOM     16  C   LIG    1        9.469  10.719  -2.356  0.00  0.00    +0.400 A 
ENDBRANCH   8  12
ENDBRANCH   3   5
BRANCH   2  17
ATOM     17  C   LIG    1        2.636   5.818  -0.092  0.00  0.00    +0.070 C 
BRANCH  17  18
ATOM     18  C   LIG    1        2.807   4.298  -0.123  0.00  0.00    +0.290 C 
BRANCH  18  19
ATOM     19  N   LIG    1        1.499   3.656   0.023  0.00  0.00    -0.720 N 
ATOM     20  H   LIG    1        0.700   4.199   0.119  0.00  0.00    +0.420 HD
BRANCH  19  21
ATOM     21  C   LIG    1        1.400   2.263   0.024  0.00  0.00    +0.290 A 
ATOM     22  C   LIG    1        2.550   1.484  -0.002  0.00  0.00    -0.050 A 
ATOM     23  C   LIG    1        2.449   0.106  -0.002  0.00  0.00    +0.120 A 
ATOM     24  C   LIG    1        1.205  -0.497   0.024  0.00  0.00    -0.040 A 
ATOM     25  C   LIG    1        0.058   0.276   0.050  0.00  0.00    +0.140 A 
ATOM     26  C   LIG    1        0.152   1.653   0.050  0.00  0.00    -0.130 A 
BRANCH  26  27
ATOM     27  N   LIG    1       -1.076   2.479   0.071  0.00  0.00    +0.050 N 
ATOM     28  O   LIG    1       -0.993   3.690   0.174  0.00  0.00    -0.210 OA
ATOM     29  O   LIG    1       -2.169   1.948  -0.013  0.00  0.00    -0.150 OA
ENDBRANCH  26  27
ENDBRANCH  19  21
ENDBRANCH  18  19
ENDBRANCH  17  18
ENDBRANCH   2  17
TORSDOF 7
