REMARK  Name = ZINCpk00000kORKK.0
REMARK                            x       y       z     vdW  Elec       q    Type
REMARK                         _______ _______ _______ _____ _____    ______ ____
ROOT
ATOM      1  C   LIG    1       -0.019   1.528   0.010  0.00  0.00    +0.250 C 
ATOM      2  C   LIG    1        0.002  -0.004   0.002  0.00  0.00    +0.280 C 
ATOM      3  N   LIG    1        0.803  -0.460  -1.143  0.00  0.00    -0.620 N 
ATOM      4  C   LIG    1        2.170   0.056  -1.299  0.00  0.00    +0.280 C 
ATOM      5  C   LIG    1        2.124   1.587  -1.276  0.00  0.00    -0.000 C 
ATOM      6  C   LIG    1        0.293  -1.334  -2.033  0.00  0.00    +0.520 C 
ATOM      7  O   LIG    1       -0.837  -1.752  -1.893  0.00  0.00    -0.520 OA
ATOM      8  C   LIG    1        1.419   2.053  -0.001  0.00  0.00    +0.160 C 
ENDROOT
BRANCH   1  10
ATOM      9  C   LIG    1       -2.046   2.111   1.229  0.00  0.00    +0.600 C 
ATOM     10  N   LIG    1       -0.703   2.001   1.216  0.00  0.00    -0.720 N 
ATOM     11  H   LIG    1       -0.190   2.234   2.005  0.00  0.00    +0.400 HD
ATOM     12  O   LIG    1       -2.691   1.819   0.239  0.00  0.00    -0.510 OA
BRANCH   9  15
ATOM     13  C   LIG    1       -5.141   2.487   1.567  0.00  0.00    +0.160 C 
ATOM     14  C   LIG    1       -4.078   2.755   2.602  0.00  0.00    +0.110 A 
ATOM     15  C   LIG    1       -2.732   2.586   2.437  0.00  0.00    -0.100 A 
ATOM     16  N   LIG    1       -2.145   2.955   3.632  0.00  0.00    -0.560 N 
ATOM     17  H   LIG    1       -1.197   2.950   3.834  0.00  0.00    +0.420 HD
ATOM     18  C   LIG    1       -3.138   3.322   4.462  0.00  0.00    +0.450 A 
ATOM     19  N   LIG    1       -4.284   3.198   3.842  0.00  0.00    -0.500 NA
ENDBRANCH   9  15
ENDBRANCH   1  10
BRANCH   8  20
ATOM     20  O   LIG    1        1.403   3.482   0.040  0.00  0.00    -0.560 OA
ATOM     21  H   LIG    1        2.282   3.885   0.036  0.00  0.00    +0.380 HD
ENDBRANCH   8  20
BRANCH   6  22
ATOM     22  C   LIG    1        1.127  -1.792  -3.201  0.00  0.00    +0.060 C 
BRANCH  22  23
ATOM     23  C   LIG    1        0.318  -2.774  -4.051  0.00  0.00    +0.020 C 
ATOM     24  C   LIG    1       -0.880  -2.049  -4.668  0.00  0.00    +0.020 C 
BRANCH  23  25
ATOM     25  C   LIG    1        1.204  -3.335  -5.165  0.00  0.00    -0.070 C 
ATOM     26  C   LIG    1        1.701  -2.187  -6.047  0.00  0.00    +0.010 C 
ATOM     27  C   LIG    1        0.395  -4.317  -6.015  0.00  0.00    +0.020 C 
ATOM     28  C   LIG    1        2.402  -4.060  -4.549  0.00  0.00    +0.020 C 
ENDBRANCH  23  25
ENDBRANCH  22  23
ENDBRANCH   6  22
TORSDOF 6
