REMARK  Name = ZINCpe000000UBlE.0
REMARK                            x       y       z     vdW  Elec       q    Type
REMARK                         _______ _______ _______ _____ _____    ______ ____
ROOT
ATOM      1  C   LIG    1       -1.648  -1.126   1.898  0.00  0.00    -0.660 A 
ATOM      2  C   LIG    1       -2.309  -0.204   2.690  0.00  0.00    +0.120 A 
ATOM      3  C   LIG    1       -3.622  -0.420   3.055  0.00  0.00    +0.030 A 
ATOM      4  C   LIG    1       -4.280  -1.576   2.631  0.00  0.00    -0.080 A 
ATOM      5  C   LIG    1       -3.605  -2.504   1.836  0.00  0.00    +0.070 A 
ATOM      6  C   LIG    1       -2.294  -2.273   1.474  0.00  0.00    +0.120 A 
ENDROOT
BRANCH   4   7
ATOM      7  C   LIG    1       -5.685  -1.817   3.024  0.00  0.00    +0.550 C 
ATOM      8  N   LIG    1       -6.333  -0.919   3.792  0.00  0.00    -0.720 N 
ATOM      9  H   LIG    1       -5.878  -0.115   4.087  0.00  0.00    +0.400 HD
ATOM     10  O   LIG    1       -6.255  -2.825   2.654  0.00  0.00    -0.530 OA
BRANCH   8  11
ATOM     11  C   LIG    1       -7.726  -1.157   4.180  0.00  0.00    +0.260 C 
BRANCH  11  12
ATOM     12  C   LIG    1       -8.220   0.005   5.044  0.00  0.00    +0.030 C 
BRANCH  12  13
ATOM     13  C   LIG    1       -9.674  -0.244   5.450  0.00  0.00    +0.030 C 
BRANCH  13  14
ATOM     14  C   LIG    1      -10.169   0.918   6.313  0.00  0.00    -0.060 C 
ATOM     15  C   LIG    1      -10.079   2.220   5.515  0.00  0.00    +0.030 C 
ATOM     16  C   LIG    1       -9.301   1.027   7.568  0.00  0.00    +0.030 C 
BRANCH  14  17
ATOM     17  C   LIG    1      -11.623   0.669   6.719  0.00  0.00    +0.180 C 
BRANCH  17  18
ATOM     18  O   LIG    1      -12.085   1.754   7.525  0.00  0.00    -0.570 OA
ATOM     19  H   LIG    1      -13.002   1.663   7.819  0.00  0.00    +0.380 HD
ENDBRANCH  17  18
ENDBRANCH  14  17
ENDBRANCH  13  14
ENDBRANCH  12  13
ENDBRANCH  11  12
ENDBRANCH   8  11
ENDBRANCH   4   7
BRANCH   1  20
ATOM     20  S   LIG    1        0.027  -0.840   1.431  0.00  0.00    +2.690 S 
ATOM     21  O   LIG    1        0.569   0.044   2.404  0.00  0.00    -0.950 OA
ATOM     22  O   LIG    1        0.586  -2.114   1.142  0.00  0.00    -0.920 OA
BRANCH  20  24
ATOM     23  C   LIG    1       -0.018   1.461   0.010  0.00  0.00    +0.290 C 
ATOM     24  N   LIG    1        0.002  -0.004   0.002  0.00  0.00    -1.000 NA
BRANCH  24  25
ATOM     25  C   LIG    1       -0.000  -0.730  -1.271  0.00  0.00    +0.310 C 
BRANCH  25  26
ATOM     26  C   LIG    1        1.434  -0.854  -1.790  0.00  0.00    +0.160 C 
BRANCH  26  27
ATOM     27  O   LIG    1        2.196  -1.664  -0.893  0.00  0.00    -0.560 OA
ATOM     28  H   LIG    1        3.118  -1.786  -1.160  0.00  0.00    +0.380 HD
ENDBRANCH  26  27
ENDBRANCH  25  26
ENDBRANCH  24  25
ENDBRANCH  20  24
ENDBRANCH   1  20
TORSDOF 12
