REMARK  Name = ZINCrD000000CO2G.0
REMARK                            x       y       z     vdW  Elec       q    Type
REMARK                         _______ _______ _______ _____ _____    ______ ____
ROOT
ATOM      1  C   LIG    1       -5.994   2.914   0.450  0.00  0.00    +0.230 C 
ENDROOT
BRANCH   1   2
ATOM      2  O   LIG    1       -4.841   3.655   0.043  0.00  0.00    -0.310 OA
BRANCH   2   9
ATOM      3  O   LIG    1        2.200   1.047  -0.028  0.00  0.00    -0.530 OA
ATOM      4  C   LIG    1        1.148   1.650   0.000  0.00  0.00    +0.520 C 
ATOM      5  C   LIG    1        1.153   3.155   0.026  0.00  0.00    +0.080 C 
ATOM      6  C   LIG    1       -0.033   3.694  -0.774  0.00  0.00    +0.110 C 
ATOM      7  C   LIG    1       -1.291   2.981  -0.352  0.00  0.00    -0.080 A 
ATOM      8  C   LIG    1       -2.497   3.653  -0.338  0.00  0.00    +0.030 A 
ATOM      9  C   LIG    1       -3.654   2.993   0.034  0.00  0.00    +0.110 A 
ATOM     10  C   LIG    1       -3.601   1.659   0.409  0.00  0.00    -0.050 A 
ATOM     11  C   LIG    1       -2.395   0.985   0.401  0.00  0.00    +0.020 A 
ATOM     12  C   LIG    1       -1.236   1.645   0.017  0.00  0.00    +0.120 A 
ATOM     13  N   LIG    1       -0.011   0.966   0.007  0.00  0.00    -0.660 N 
ATOM     14  H   LIG    1        0.002  -0.004   0.002  0.00  0.00    +0.410 HD
ENDBRANCH   2   9
ENDBRANCH   1   2
BRANCH   1  15
ATOM     15  C   LIG    1       -7.227   3.819   0.396  0.00  0.00    +0.260 C 
BRANCH  15  16
ATOM     16  O   LIG    1       -7.484   4.207  -0.979  0.00  0.00    -0.350 OA
BRANCH  16  17
ATOM     17  C   LIG    1       -8.543   5.010  -1.201  0.00  0.00    +0.520 C 
ATOM     18  O   LIG    1       -9.233   5.377  -0.270  0.00  0.00    -0.500 OA
BRANCH  17  19
ATOM     19  C   LIG    1       -8.865   5.443  -2.572  0.00  0.00    -0.140 A 
ATOM     20  C   LIG    1       -8.083   5.038  -3.648  0.00  0.00    +0.130 A 
ATOM     21  C   LIG    1       -8.394   5.443  -4.939  0.00  0.00    +0.000 A 
ATOM     22  C   LIG    1       -9.455   6.255  -5.204  0.00  0.00    +0.100 A 
ATOM     23  C   LIG    1      -10.283   6.707  -4.165  0.00  0.00    -0.130 A 
ATOM     24  C   LIG    1      -11.386   7.545  -4.400  0.00  0.00    +0.320 A 
ATOM     25  N   LIG    1      -12.131   7.941  -3.394  0.00  0.00    -0.490 NA
ATOM     26  C   LIG    1      -11.893   7.586  -2.140  0.00  0.00    +0.250 A 
ATOM     27  C   LIG    1      -10.846   6.776  -1.809  0.00  0.00    +0.010 A 
ATOM     28  C   LIG    1      -10.007   6.312  -2.831  0.00  0.00    +0.020 A 
ENDBRANCH  17  19
ENDBRANCH  16  17
ENDBRANCH  15  16
ENDBRANCH   1  15
TORSDOF 6
