REMARK  Name = ZINCpk000000pUpZ.0
REMARK                            x       y       z     vdW  Elec       q    Type
REMARK                         _______ _______ _______ _____ _____    ______ ____
ROOT
ATOM      1  N   LIG    1        4.137   7.063  -1.004  0.00  0.00    -0.500 N 
ATOM      2  H   LIG    1        3.432   7.651  -0.689  0.00  0.00    +0.430 HD
ATOM      3  C   LIG    1        3.957   5.727  -0.988  0.00  0.00    +0.570 C 
ATOM      4  O   LIG    1        4.839   4.990  -1.383  0.00  0.00    -0.500 OA
ENDROOT
BRANCH   3   5
ATOM      5  C   LIG    1        2.689   5.160  -0.491  0.00  0.00    -0.090 A 
ATOM      6  C   LIG    1        1.675   6.008  -0.038  0.00  0.00    +0.050 A 
ATOM      7  C   LIG    1        0.491   5.475   0.423  0.00  0.00    +0.090 A 
ATOM      8  C   LIG    1        0.306   4.099   0.438  0.00  0.00    -0.100 A 
ATOM      9  S   LIG    1       -1.214   3.417   1.020  0.00  0.00    -0.060 S 
ATOM     10  C   LIG    1       -1.348   1.903   0.019  0.00  0.00    +0.060 C 
ATOM     11  C   LIG    1       -0.014   1.209   0.009  0.00  0.00    +0.530 C 
ATOM     12  N   LIG    1        1.149   1.855   0.001  0.00  0.00    -0.650 N 
ATOM     13  H   LIG    1        1.954   1.314   0.004  0.00  0.00    +0.420 HD
ATOM     14  O   LIG    1        0.002  -0.004   0.002  0.00  0.00    -0.510 OA
ATOM     15  C   LIG    1       -1.749   2.264  -1.413  0.00  0.00    +0.090 C 
ATOM     16  C   LIG    1        1.314   3.238  -0.011  0.00  0.00    +0.160 A 
ATOM     17  C   LIG    1        2.503   3.776  -0.475  0.00  0.00    +0.080 A 
ENDBRANCH   3   5
BRANCH   1  22
ATOM     18  C   LIG    1        6.938   8.623  -2.750  0.00  0.00    +0.130 C 
ATOM     19  N   LIG    1        7.498   8.168  -1.466  0.00  0.00    -0.710 N 
ATOM     20  H   LIG    1        8.415   8.269  -1.165  0.00  0.00    +0.440 HD
ATOM     21  C   LIG    1        6.489   7.589  -0.789  0.00  0.00    +0.710 C 
ATOM     22  N   LIG    1        5.341   7.602  -1.475  0.00  0.00    -0.380 N 
ATOM     23  O   LIG    1        6.609   7.106   0.319  0.00  0.00    -0.520 OA
ATOM     24  C   LIG    1        7.053  10.143  -2.882  0.00  0.00    +0.100 C 
ATOM     25  C   LIG    1        5.484   8.203  -2.673  0.00  0.00    +0.530 C 
ATOM     26  O   LIG    1        4.628   8.371  -3.515  0.00  0.00    -0.450 OA
BRANCH  18  28
ATOM     27  C   LIG    1        9.129   8.272  -3.898  0.00  0.00    +0.050 C 
ATOM     28  C   LIG    1        7.638   7.928  -3.919  0.00  0.00    +0.050 C 
ENDBRANCH  18  28
ENDBRANCH   1  22
TORSDOF 3
