REMARK  Name = ZINCrH00000No4Ol.0
REMARK                            x       y       z     vdW  Elec       q    Type
REMARK                         _______ _______ _______ _____ _____    ______ ____
ROOT
ATOM      1  N   LIG    1        2.102   3.106   2.155  0.00  0.00    -0.550 N 
ENDROOT
BRANCH   1   5
ATOM      2  C   LIG    1        2.587   3.446  -1.361  0.00  0.00    +0.310 A 
ATOM      3  N   LIG    1        3.380   4.472  -1.249  0.00  0.00    -0.500 NA
ATOM      4  S   LIG    1        3.511   4.774   0.418  0.00  0.00    +0.160 S 
ATOM      5  C   LIG    1        2.472   3.478   0.875  0.00  0.00    +0.350 A 
ATOM      6  N   LIG    1        2.111   2.915  -0.259  0.00  0.00    -0.550 NA
BRANCH   2   8
ATOM      7  C   LIG    1        3.247   1.806  -3.100  0.00  0.00    +0.050 C 
ATOM      8  C   LIG    1        2.231   2.882  -2.713  0.00  0.00    +0.140 C 
ENDBRANCH   2   8
ENDBRANCH   1   5
BRANCH   1   9
ATOM      9  C   LIG    1        2.523   3.913   3.302  0.00  0.00    +0.300 C 
BRANCH   9  10
ATOM     10  C   LIG    1        3.935   3.502   3.724  0.00  0.00    -0.030 C 
ATOM     11  C   LIG    1        3.917   2.058   4.229  0.00  0.00    +0.030 C 
ATOM     12  C   LIG    1        5.330   1.646   4.647  0.00  0.00    +0.020 C 
ATOM     13  C   LIG    1        5.822   2.573   5.759  0.00  0.00    +0.260 C 
ATOM     14  O   LIG    1        4.944   2.468   6.892  0.00  0.00    -0.370 OA
ATOM     15  C   LIG    1        5.578   1.499   7.762  0.00  0.00    +0.200 C 
ATOM     16  C   LIG    1        7.079   1.822   7.553  0.00  0.00    +0.200 C 
ATOM     17  C   LIG    1        5.837   4.019   5.260  0.00  0.00    +0.040 C 
ATOM     18  O   LIG    1        7.143   2.187   6.159  0.00  0.00    -0.380 OA
ATOM     19  C   LIG    1        4.423   4.427   4.841  0.00  0.00    +0.040 C 
ENDBRANCH   9  10
ENDBRANCH   1   9
BRANCH   1  20
ATOM     20  C   LIG    1        1.289   1.905   2.362  0.00  0.00    +0.370 C 
BRANCH  20  21
ATOM     21  C   LIG    1       -0.171   2.263   2.256  0.00  0.00    +0.100 A 
ATOM     22  N   LIG    1       -0.741   2.332   1.069  0.00  0.00    -0.440 NA
ATOM     23  C   LIG    1       -2.015   2.641   0.927  0.00  0.00    +0.240 A 
ATOM     24  C   LIG    1       -2.804   2.905   2.030  0.00  0.00    -0.030 A 
ATOM     25  C   LIG    1       -2.242   2.837   3.296  0.00  0.00    +0.050 A 
ATOM     26  C   LIG    1       -0.898   2.515   3.404  0.00  0.00    -0.130 A 
ATOM     27  C   LIG    1       -0.240   2.434   4.758  0.00  0.00    +0.100 C 
ENDBRANCH  20  21
ENDBRANCH   1  20
TORSDOF 6
