REMARK  Name = ZINCrH000004uVxA.0
REMARK                            x       y       z     vdW  Elec       q    Type
REMARK                         _______ _______ _______ _____ _____    ______ ____
ROOT
ATOM      1  O   LIG    1        2.126  -0.309   2.283  0.00  0.00    -0.530 OA
ATOM      2  C   LIG    1        2.954   0.581   2.328  0.00  0.00    +0.580 C 
ATOM      3  N   LIG    1        3.208   1.322   1.231  0.00  0.00    -0.700 N 
ATOM      4  H   LIG    1        3.868   2.031   1.267  0.00  0.00    +0.410 HD
ENDROOT
BRANCH   2   5
ATOM      5  C   LIG    1        3.681   0.847   3.581  0.00  0.00    -0.280 A 
ATOM      6  C   LIG    1        3.438   0.105   4.729  0.00  0.00    +0.250 A 
ATOM      7  C   LIG    1        4.160   0.442   5.902  0.00  0.00    -0.170 A 
ATOM      8  C   LIG    1        4.129  -0.398   7.024  0.00  0.00    +0.110 A 
ATOM      9  C   LIG    1        4.876  -0.090   8.124  0.00  0.00    +0.000 A 
ATOM     10  C   LIG    1        5.660   1.056   8.146  0.00  0.00    +0.090 A 
ATOM     11  C   LIG    1        5.686   1.910   7.064  0.00  0.00    +0.010 A 
ATOM     12  C   LIG    1        4.928   1.622   5.937  0.00  0.00    +0.150 A 
ATOM     13  O   LIG    1        4.925   2.469   4.881  0.00  0.00    -0.270 OA
ATOM     14  C   LIG    1        4.691   1.917   3.669  0.00  0.00    +0.520 A 
ATOM     15  O   LIG    1        5.295   2.292   2.682  0.00  0.00    -0.440 OA
ENDBRANCH   2   5
BRANCH   3  16
ATOM     16  C   LIG    1        2.485   1.057  -0.015  0.00  0.00    +0.350 C 
BRANCH  16  17
ATOM     17  C   LIG    1        1.169   1.792   0.001  0.00  0.00    +0.110 A 
ATOM     18  C   LIG    1       -0.013   1.076   0.008  0.00  0.00    -0.010 A 
ATOM     19  C   LIG    1       -1.218   1.762   0.017  0.00  0.00    +0.060 A 
ATOM     20  C   LIG    1       -1.188   3.147   0.029  0.00  0.00    -0.030 A 
ATOM     21  C   LIG    1        0.033   3.795   0.021  0.00  0.00    +0.260 A 
ATOM     22  N   LIG    1        1.159   3.110   0.007  0.00  0.00    -0.470 NA
ENDBRANCH  16  17
BRANCH  16  23
ATOM     23  C   LIG    1        3.310   1.529  -1.185  0.00  0.00    -0.090 A 
ATOM     24  C   LIG    1        4.009   2.719  -1.102  0.00  0.00    +0.040 A 
ATOM     25  C   LIG    1        4.769   3.150  -2.173  0.00  0.00    +0.000 A 
ATOM     26  C   LIG    1        4.823   2.396  -3.330  0.00  0.00    +0.010 A 
ATOM     27  C   LIG    1        4.120   1.209  -3.415  0.00  0.00    +0.000 A 
ATOM     28  C   LIG    1        3.363   0.775  -2.342  0.00  0.00    +0.020 A 
ENDBRANCH  16  23
ENDBRANCH   3  16
TORSDOF 4
