REMARK  Name = ZINCqH0000000kaK.0
REMARK                            x       y       z     vdW  Elec       q    Type
REMARK                         _______ _______ _______ _____ _____    ______ ____
ROOT
ATOM      1  N   LIG    1        0.350   1.399  -0.057  0.00  0.00    -0.450 N 
ATOM      2  C   LIG    1        0.318   0.036  -0.011  0.00  0.00    +0.150 A 
ATOM      3  N   LIG    1        1.564  -0.385  -0.038  0.00  0.00    -0.290 NA
ATOM      4  N   LIG    1        2.366   0.617  -0.097  0.00  0.00    -0.250 NA
ATOM      5  C   LIG    1        1.683   1.738  -0.111  0.00  0.00    +0.220 A 
ENDROOT
BRANCH   5   6
ATOM      6  C   LIG    1        2.240   3.105  -0.174  0.00  0.00    +0.030 A 
ATOM      7  C   LIG    1        3.554   3.328  -0.605  0.00  0.00    +0.020 A 
ATOM      8  C   LIG    1        4.031   4.621  -0.654  0.00  0.00    +0.280 A 
ATOM      9  N   LIG    1        3.272   5.638  -0.291  0.00  0.00    -0.480 NA
ATOM     10  C   LIG    1        2.031   5.471   0.127  0.00  0.00    +0.270 A 
ATOM     11  C   LIG    1        1.471   4.214   0.201  0.00  0.00    -0.030 A 
ENDBRANCH   5   6
BRANCH   1  12
ATOM     12  C   LIG    1       -0.795   2.313  -0.055  0.00  0.00    +0.340 C 
BRANCH  12  14
ATOM     13  C   LIG    1       -1.368   3.780   1.811  0.00  0.00    +0.080 C 
ATOM     14  C   LIG    1       -1.242   2.555   1.364  0.00  0.00    -0.060 C 
ENDBRANCH  12  14
ENDBRANCH   1  12
BRANCH   2  15
ATOM     15  S   LIG    1       -1.125  -0.973   0.069  0.00  0.00    +0.070 S 
BRANCH  15  16
ATOM     16  C   LIG    1       -0.360  -2.613   0.097  0.00  0.00    +0.110 C 
BRANCH  16  17
ATOM     17  C   LIG    1       -1.435  -3.667   0.167  0.00  0.00    +0.420 C 
ATOM     18  O   LIG    1       -2.603  -3.341   0.194  0.00  0.00    -0.410 OA
BRANCH  17  19
ATOM     19  C   LIG    1       -1.068  -5.090   0.201  0.00  0.00    -0.170 A 
ATOM     20  C   LIG    1        0.278  -5.470   0.164  0.00  0.00    +0.080 A 
ATOM     21  C   LIG    1        0.615  -6.808   0.203  0.00  0.00    +0.080 A 
ATOM     22  C   LIG    1       -0.377  -7.775   0.266  0.00  0.00    +0.070 A 
ATOM     23  C   LIG    1       -1.710  -7.409   0.298  0.00  0.00    +0.020 A 
ATOM     24  F   LIG    1        1.914  -7.177   0.172  0.00  0.00    -0.130 F 
ATOM     25  C   LIG    1       -2.064  -6.073   0.266  0.00  0.00    +0.150 A 
ATOM     26  F   LIG    1       -3.367  -5.717   0.296  0.00  0.00    -0.110 F 
ENDBRANCH  17  19
ENDBRANCH  16  17
ENDBRANCH  15  16
ENDBRANCH   2  15
TORSDOF 7
