REMARK  Name = ZINCnE000001HIlh.0
REMARK                            x       y       z     vdW  Elec       q    Type
REMARK                         _______ _______ _______ _____ _____    ______ ____
ROOT
ATOM      1  N   LIG    1        1.800  -1.677  -0.024  0.00  0.00    -0.680 NA
ATOM      2  C   LIG    1        1.359  -0.421  -0.013  0.00  0.00    +0.420 A 
ATOM      3  N   LIG    1        2.131   0.713  -0.015  0.00  0.00    -0.490 N 
ATOM      4  H   LIG    1        3.100   0.746  -0.023  0.00  0.00    +0.440 HD
ATOM      5  N   LIG    1        1.266   1.814  -0.000  0.00  0.00    -0.340 NA
ATOM      6  C   LIG    1       -0.016   1.359   0.009  0.00  0.00    -0.000 A 
ATOM      7  C   LIG    1        0.002  -0.004   0.002  0.00  0.00    -0.250 A 
ENDROOT
BRANCH   7   8
ATOM      8  C   LIG    1       -1.184  -0.893   0.009  0.00  0.00    +0.050 A 
ATOM      9  C   LIG    1       -2.036  -0.915   1.112  0.00  0.00    +0.000 A 
ATOM     10  C   LIG    1       -3.142  -1.741   1.110  0.00  0.00    -0.010 A 
ATOM     11  C   LIG    1       -3.400  -2.554   0.021  0.00  0.00    -0.030 A 
ATOM     12  C   LIG    1       -2.555  -2.541  -1.074  0.00  0.00    -0.020 A 
ATOM     13  C   LIG    1       -1.449  -1.715  -1.086  0.00  0.00    +0.010 A 
ENDBRANCH   7   8
BRANCH   6  14
ATOM     14  C   LIG    1       -1.253   2.220   0.020  0.00  0.00    +0.550 C 
ATOM     15  F   LIG    1       -1.265   3.034  -1.118  0.00  0.00    -0.180 F 
ATOM     16  F   LIG    1       -1.254   3.022   1.167  0.00  0.00    -0.180 F 
ATOM     17  F   LIG    1       -2.389   1.404   0.021  0.00  0.00    -0.160 F 
ENDBRANCH   6  14
BRANCH   1  18
ATOM     18  C   LIG    1        3.107  -1.923  -0.038  0.00  0.00    +0.450 C 
ATOM     19  O   LIG    1        3.899  -1.000  -0.041  0.00  0.00    -0.630 OA
BRANCH  18  20
ATOM     20  C   LIG    1        3.606  -3.345  -0.050  0.00  0.00    +0.170 C 
BRANCH  20  22
ATOM     21  C   LIG    1        3.608  -5.511   1.196  0.00  0.00    +0.010 C 
ATOM     22  C   LIG    1        3.212  -4.034   1.258  0.00  0.00    +0.040 C 
ENDBRANCH  20  22
BRANCH  20  23
ATOM     23  O   LIG    1        5.029  -3.349  -0.181  0.00  0.00    -0.370 OA
ATOM     24  C   LIG    1        5.488  -3.382  -1.534  0.00  0.00    +0.190 C 
ENDBRANCH  20  23
ENDBRANCH  18  20
ENDBRANCH   1  18
TORSDOF 6
