REMARK  Name = ZINCpk00000xY6qf.0
REMARK                            x       y       z     vdW  Elec       q    Type
REMARK                         _______ _______ _______ _____ _____    ______ ____
ROOT
ATOM      1  C   LIG    1        3.793   0.113   6.951  0.00  0.00    +0.300 C 
ENDROOT
BRANCH   1   4
ATOM      2  N   LIG    1        2.531   0.868   4.962  0.00  0.00    -0.620 N 
ATOM      3  H   LIG    1        3.226   1.527   4.810  0.00  0.00    +0.440 HD
ATOM      4  C   LIG    1        2.617   0.028   6.013  0.00  0.00    +0.510 C 
ATOM      5  O   LIG    1        1.748  -0.796   6.203  0.00  0.00    -0.470 OA
BRANCH   2   9
ATOM      6  C   LIG    1        0.000   1.080   2.488  0.00  0.00    +0.060 A 
ATOM      7  N   LIG    1       -0.378   0.118   3.282  0.00  0.00    -0.360 NA
ATOM      8  O   LIG    1        0.414  -0.062   4.178  0.00  0.00    +0.110 OA
ATOM      9  C   LIG    1        1.448   0.790   4.099  0.00  0.00    +0.210 A 
ATOM     10  C   LIG    1        1.221   1.566   2.998  0.00  0.00    -0.080 A 
BRANCH   6  12
ATOM     11  C   LIG    1       -0.013   1.086   0.008  0.00  0.00    +0.050 C 
ATOM     12  C   LIG    1       -0.729   1.579   1.267  0.00  0.00    +0.010 C 
ATOM     13  C   LIG    1       -2.164   1.050   1.278  0.00  0.00    +0.040 C 
ATOM     14  C   LIG    1       -0.750   3.109   1.275  0.00  0.00    +0.050 C 
ENDBRANCH   6  12
ENDBRANCH   2   9
ENDBRANCH   1   4
BRANCH   1  15
ATOM     15  O   LIG    1        3.655  -0.890   7.992  0.00  0.00    -0.330 OA
BRANCH  15  16
ATOM     16  C   LIG    1        4.631  -0.948   8.920  0.00  0.00    +0.540 C 
ATOM     17  O   LIG    1        5.573  -0.181   8.860  0.00  0.00    -0.490 OA
BRANCH  16  18
ATOM     18  C   LIG    1        4.558  -1.938  10.004  0.00  0.00    -0.180 A 
ATOM     19  C   LIG    1        3.538  -2.829  10.139  0.00  0.00    +0.050 A 
ATOM     20  S   LIG    1        3.778  -3.823  11.502  0.00  0.00    +0.350 S 
ATOM     21  C   LIG    1        5.288  -3.027  11.910  0.00  0.00    -0.830 A 
ATOM     22  C   LIG    1        5.563  -2.070  11.033  0.00  0.00    +0.250 A 
BRANCH  21  23
ATOM     23  S   LIG    1        6.303  -3.446  13.288  0.00  0.00    +2.730 S 
ATOM     24  O   LIG    1        7.615  -3.004  12.970  0.00  0.00    -0.950 OA
ATOM     25  O   LIG    1        5.995  -4.794  13.618  0.00  0.00    -0.950 OA
BRANCH  23  26
ATOM     26  N   LIG    1        5.797  -2.525  14.568  0.00  0.00    -1.250 NA
ATOM     27  H   LIG    1        6.234  -2.609  15.429  0.00  0.00    +0.420 HD
ATOM     28  H   LIG    1        5.062  -1.901  14.456  0.00  0.00    +0.420 HD
ENDBRANCH  23  26
ENDBRANCH  21  23
ENDBRANCH  16  18
ENDBRANCH  15  16
ENDBRANCH   1  15
TORSDOF 8
