REMARK  Name = ZINCvU0000000D7q.0
REMARK                            x       y       z     vdW  Elec       q    Type
REMARK                         _______ _______ _______ _____ _____    ______ ____
ROOT
ATOM      1  C   LIG    1        7.281  -2.735   0.016  0.00  0.00    -0.040 A 
ATOM      2  C   LIG    1        7.275  -4.133   0.007  0.00  0.00    +0.010 A 
ATOM      3  C   LIG    1        8.466  -4.826   0.079  0.00  0.00    +0.050 A 
ATOM      4  C   LIG    1        9.665  -4.144   0.170  0.00  0.00    -0.060 A 
ATOM      5  C   LIG    1        9.680  -2.755   0.186  0.00  0.00    +0.120 A 
ATOM      6  C   LIG    1        8.493  -2.047   0.109  0.00  0.00    +0.020 A 
ENDROOT
BRANCH   1   8
ATOM      7  C   LIG    1        4.983  -2.489  -0.773  0.00  0.00    -0.060 C 
ATOM      8  C   LIG    1        6.012  -1.990  -0.065  0.00  0.00    +0.140 C 
ATOM      9 CL   LIG    1        5.206  -3.911  -1.744  0.00  0.00    -0.040 Cl
BRANCH   7  16
ATOM     10  C   LIG    1       -1.453   1.843   0.262  0.00  0.00    +0.130 C 
ATOM     11  C   LIG    1       -0.116   1.150   0.205  0.00  0.00    -0.130 A 
ATOM     12  C   LIG    1        0.038   0.043  -0.556  0.00  0.00    +0.270 A 
ATOM     13  N   LIG    1        1.240  -0.594  -0.625  0.00  0.00    -0.430 N 
ATOM     14  C   LIG    1        1.364  -1.697  -1.394  0.00  0.00    +0.510 A 
ATOM     15  C   LIG    1        2.597  -2.345  -1.461  0.00  0.00    -0.150 A 
ATOM     16  C   LIG    1        3.668  -1.829  -0.726  0.00  0.00    +0.250 A 
ATOM     17  N   LIG    1        3.493  -0.735   0.019  0.00  0.00    -0.540 NA
ATOM     18  O   LIG    1        0.407  -2.122  -2.024  0.00  0.00    -0.530 OA
ATOM     19  C   LIG    1        2.315  -0.123   0.077  0.00  0.00    +0.400 A 
ATOM     20  C   LIG    1        2.173   1.029   0.876  0.00  0.00    +0.040 A 
ATOM     21  C   LIG    1        0.967   1.658   0.937  0.00  0.00    +0.130 A 
ENDBRANCH   7  16
ENDBRANCH   1   8
BRANCH   5  22
ATOM     22  O   LIG    1       10.862  -2.090   0.277  0.00  0.00    -0.310 OA
BRANCH  22  23
ATOM     23  C   LIG    1       12.049  -2.883   0.352  0.00  0.00    +0.260 C 
BRANCH  23  24
ATOM     24  C   LIG    1       13.251  -1.980   0.448  0.00  0.00    -0.100 A 
ATOM     25  C   LIG    1       13.890  -1.559  -0.705  0.00  0.00    +0.070 A 
ATOM     26  C   LIG    1       14.993  -0.726  -0.627  0.00  0.00    +0.020 A 
ATOM     27  C   LIG    1       15.468  -0.319   0.603  0.00  0.00    +0.080 A 
ATOM     28  C   LIG    1       14.831  -0.745   1.770  0.00  0.00    -0.030 A 
ATOM     29  C   LIG    1       13.716  -1.581   1.684  0.00  0.00    +0.090 A 
BRANCH  28  30
ATOM     30  C   LIG    1       15.319  -0.327   3.050  0.00  0.00    +0.250 C 
ATOM     31  N   LIG    1       15.706   0.005   4.065  0.00  0.00    -0.410 NA
ENDBRANCH  28  30
ENDBRANCH  23  24
ENDBRANCH  22  23
ENDBRANCH   5  22
TORSDOF 6
