REMARK  Name = ZINCtV00000L6jhT.0
REMARK                            x       y       z     vdW  Elec       q    Type
REMARK                         _______ _______ _______ _____ _____    ______ ____
ROOT
ATOM      1  O   LIG    1       -7.661   4.714   0.062  0.00  0.00    -0.490 OA
ATOM      2  C   LIG    1       -8.163   3.610   0.055  0.00  0.00    +0.520 C 
ATOM      3  N   LIG    1       -9.504   3.479   0.067  0.00  0.00    -0.670 N 
ATOM      4  H   LIG    1       -9.906   2.599  -0.004  0.00  0.00    +0.420 HD
ENDROOT
BRANCH   3   5
ATOM      5  C   LIG    1      -10.317   4.613   0.182  0.00  0.00    +0.160 A 
ATOM      6  C   LIG    1       -9.929   5.809  -0.404  0.00  0.00    +0.100 A 
ATOM      7  C   LIG    1      -10.735   6.926  -0.293  0.00  0.00    -0.160 A 
ATOM      8  C   LIG    1      -11.923   6.855   0.410  0.00  0.00    +0.080 A 
ATOM      9  C   LIG    1      -12.311   5.666   1.002  0.00  0.00    +0.060 A 
ATOM     10  C   LIG    1      -11.511   4.545   0.890  0.00  0.00    -0.030 A 
ATOM     11 CL   LIG    1      -11.998   3.053   1.632  0.00  0.00    -0.040 Cl
BRANCH   7  12
ATOM     12  C   LIG    1      -10.317   8.223  -0.935  0.00  0.00    +0.510 C 
ATOM     13  F   LIG    1      -10.188   8.040  -2.316  0.00  0.00    -0.170 F 
ATOM     14  F   LIG    1       -9.090   8.633  -0.402  0.00  0.00    -0.170 F 
ATOM     15  F   LIG    1      -11.285   9.202  -0.682  0.00  0.00    -0.170 F 
ENDBRANCH   7  12
ENDBRANCH   3   5
BRANCH   2  16
ATOM     16  C   LIG    1       -7.287   2.384   0.032  0.00  0.00    +0.280 C 
BRANCH  16  17
ATOM     17  O   LIG    1       -5.891   2.786   0.022  0.00  0.00    -0.330 OA
BRANCH  17  18
ATOM     18  C   LIG    1       -4.970   1.801   0.002  0.00  0.00    +0.540 C 
ATOM     19  O   LIG    1       -5.324   0.638  -0.007  0.00  0.00    -0.470 OA
BRANCH  18  20
ATOM     20  C   LIG    1       -3.542   2.133  -0.009  0.00  0.00    -0.220 A 
ATOM     21  C   LIG    1       -2.551   1.233  -0.029  0.00  0.00    +0.050 A 
ATOM     22  C   LIG    1       -1.251   1.765  -0.036  0.00  0.00    -0.090 A 
ATOM     23  C   LIG    1       -0.012   1.080  -0.057  0.00  0.00    +0.110 A 
ATOM     24  C   LIG    1        1.159   1.771  -0.066  0.00  0.00    +0.040 A 
ATOM     25  C   LIG    1        1.162   3.161  -0.051  0.00  0.00    +0.000 A 
ATOM     26  C   LIG    1       -0.026   3.855  -0.026  0.00  0.00    +0.070 A 
ATOM     27 CL   LIG    1        2.668   4.024  -0.065  0.00  0.00    -0.050 Cl
ATOM     28  C   LIG    1       -1.242   3.166  -0.016  0.00  0.00    -0.120 A 
ATOM     29 CL   LIG    1       -2.853  -0.476  -0.044  0.00  0.00    -0.000 Cl
ATOM     30  S   LIG    1       -2.897   3.765   0.014  0.00  0.00    +0.240 S 
ENDBRANCH  18  20
ENDBRANCH  17  18
ENDBRANCH  16  17
ENDBRANCH   2  16
TORSDOF 6
