REMARK  Name = ZINCrH000004keU5.0
REMARK                            x       y       z     vdW  Elec       q    Type
REMARK                         _______ _______ _______ _____ _____    ______ ____
ROOT
ATOM      1  N   LIG    1        3.542   3.140   0.000  0.00  0.00    -0.680 N 
ATOM      2  H   LIG    1        4.368   3.630  -0.133  0.00  0.00    +0.410 HD
ATOM      3  C   LIG    1        3.561   1.795   0.079  0.00  0.00    +0.710 C 
ATOM      4  N   LIG    1        4.737   1.142   0.166  0.00  0.00    -0.620 N 
ATOM      5  C   LIG    1        4.787  -0.328   0.166  0.00  0.00    +0.320 C 
ATOM      6  C   LIG    1        5.531  -0.799  -1.094  0.00  0.00    +0.100 C 
ATOM      7  C   LIG    1        6.785   0.026  -1.262  0.00  0.00    +0.100 A 
ATOM      8  C   LIG    1        6.994   1.217  -0.661  0.00  0.00    -0.190 A 
ATOM      9  C   LIG    1        8.296   1.688  -1.081  0.00  0.00    -0.080 A 
ATOM     10  C   LIG    1        9.028   2.842  -0.786  0.00  0.00    +0.080 A 
ATOM     11  C   LIG    1       10.270   2.963  -1.385  0.00  0.00    -0.060 A 
ATOM     12  C   LIG    1       10.770   1.990  -2.236  0.00  0.00    +0.040 A 
ATOM     13  C   LIG    1       10.063   0.840  -2.540  0.00  0.00    +0.030 A 
ATOM     14 CL   LIG    1       11.229   4.373  -1.060  0.00  0.00    -0.070 Cl
ATOM     15  C   LIG    1        8.809   0.693  -1.952  0.00  0.00    +0.100 A 
ATOM     16  N   LIG    1        7.870  -0.296  -2.036  0.00  0.00    -0.580 N 
ATOM     17  H   LIG    1        7.958  -1.105  -2.563  0.00  0.00    +0.420 HD
ATOM     18  C   LIG    1        6.008   1.880   0.270  0.00  0.00    +0.360 C 
ATOM     19  O   LIG    1        2.518   1.170   0.072  0.00  0.00    -0.560 OA
ENDROOT
BRANCH   1  23
ATOM     20  C   LIG    1       -0.068   5.193   0.326  0.00  0.00    -0.160 A 
ATOM     21  C   LIG    1        1.114   5.777   0.791  0.00  0.00    +0.070 A 
ATOM     22  C   LIG    1        2.306   5.097   0.677  0.00  0.00    -0.030 A 
ATOM     23  C   LIG    1        2.333   3.828   0.109  0.00  0.00    +0.190 A 
ATOM     24  C   LIG    1        1.158   3.242  -0.350  0.00  0.00    +0.020 A 
ATOM     25  C   LIG    1       -0.037   3.918  -0.243  0.00  0.00    +0.100 A 
BRANCH  20  29
ATOM     26  C   LIG    1       -2.644   7.873   1.108  0.00  0.00    +0.290 C 
ATOM     27  N   LIG    1       -1.375   7.151   0.993  0.00  0.00    -0.730 N 
ATOM     28  H   LIG    1       -0.554   7.558   1.312  0.00  0.00    +0.400 HD
ATOM     29  C   LIG    1       -1.347   5.921   0.443  0.00  0.00    +0.560 C 
ATOM     30  O   LIG    1       -2.375   5.410   0.042  0.00  0.00    -0.540 OA
ENDBRANCH  20  29
ENDBRANCH   1  23
TORSDOF 2
