REMARK  Name = ZINCkj000005ldgh.0
REMARK                            x       y       z     vdW  Elec       q    Type
REMARK                         _______ _______ _______ _____ _____    ______ ____
ROOT
ATOM      1  N   LIG    1       -5.094   3.782  -1.794  0.00  0.00    -0.460 N 
ATOM      2  C   LIG    1       -4.631   5.126  -2.163  0.00  0.00    +0.200 C 
ATOM      3  C   LIG    1       -3.305   5.021  -2.920  0.00  0.00    +0.070 C 
ATOM      4  C   LIG    1       -2.268   4.330  -2.029  0.00  0.00    +0.050 C 
ATOM      5  C   LIG    1       -2.796   2.952  -1.619  0.00  0.00    +0.060 C 
ATOM      6  C   LIG    1       -4.136   3.118  -0.900  0.00  0.00    +0.230 C 
ENDROOT
BRANCH   1  10
ATOM      7  C   LIG    1       -8.828   3.912  -0.070  0.00  0.00    -0.060 A 
ATOM      8  C   LIG    1       -7.729   3.333   0.566  0.00  0.00    +0.360 A 
ATOM      9  N   LIG    1       -6.549   3.311  -0.019  0.00  0.00    -0.500 NA
ATOM     10  C   LIG    1       -6.356   3.831  -1.222  0.00  0.00    +0.310 A 
ATOM     11  C   LIG    1       -7.405   4.433  -1.919  0.00  0.00    +0.040 A 
ATOM     12  F   LIG    1       -7.196   4.965  -3.143  0.00  0.00    -0.110 F 
ATOM     13  C   LIG    1       -8.660   4.473  -1.346  0.00  0.00    +0.130 A 
BRANCH   7  15
ATOM     14  N   LIG    1      -11.125   3.951   1.079  0.00  0.00    -0.380 NA
ATOM     15  C   LIG    1      -10.109   3.934   0.571  0.00  0.00    +0.240 C 
ENDBRANCH   7  15
ENDBRANCH   1  10
BRANCH   5  16
ATOM     16  C   LIG    1       -1.807   2.290  -0.695  0.00  0.00    +0.520 C 
ATOM     17  N   LIG    1       -0.781   1.601  -1.137  0.00  0.00    -0.630 NA
ATOM     18  C   LIG    1       -0.013   1.086   0.008  0.00  0.00    +0.320 C 
ATOM     19  C   LIG    1       -0.795   1.613   1.229  0.00  0.00    +0.320 C 
ATOM     20  H   LIG    1       -0.563   1.455  -2.070  0.00  0.00    +0.460 HD
ATOM     21  N   LIG    1       -1.910   2.358   0.612  0.00  0.00    -0.630 NA
ATOM     22  H   LIG    1       -2.607   2.826   1.097  0.00  0.00    +0.460 HD
ENDBRANCH   5  16
TORSDOF 3
