REMARK  Name = ZINCvU000000076L.0
REMARK                            x       y       z     vdW  Elec       q    Type
REMARK                         _______ _______ _______ _____ _____    ______ ____
ROOT
ATOM      1  S   LIG    1        3.752   2.428  -0.022  0.00  0.00    +0.040 S 
ENDROOT
BRANCH   1   2
ATOM      2  C   LIG    1        2.285   1.451  -0.012  0.00  0.00    +0.200 A 
ATOM      3  C   LIG    1        2.362   0.033  -0.020  0.00  0.00    -0.160 A 
ATOM      4  C   LIG    1        3.514  -0.843  -0.036  0.00  0.00    +0.060 A 
ATOM      5  C   LIG    1        3.222  -2.144  -0.041  0.00  0.00    -0.120 A 
ATOM      6  S   LIG    1        1.488  -2.406  -0.026  0.00  0.00    +0.200 S 
ATOM      7  C   LIG    1        1.158  -0.680  -0.013  0.00  0.00    +0.090 A 
ATOM      8  N   LIG    1        0.002  -0.004   0.002  0.00  0.00    -0.490 NA
ATOM      9  C   LIG    1       -0.016   1.309   0.009  0.00  0.00    +0.540 A 
ATOM     10  N   LIG    1        1.092   2.028   0.003  0.00  0.00    -0.530 NA
BRANCH   5  11
ATOM     11  C   LIG    1        4.230  -3.225  -0.057  0.00  0.00    -0.030 A 
ATOM     12  C   LIG    1        5.591  -2.915  -0.074  0.00  0.00    +0.030 A 
ATOM     13  C   LIG    1        6.526  -3.929  -0.084  0.00  0.00    +0.020 A 
ATOM     14  C   LIG    1        6.118  -5.251  -0.087  0.00  0.00    +0.020 A 
ATOM     15  C   LIG    1        4.770  -5.565  -0.076  0.00  0.00    +0.020 A 
ATOM     16  C   LIG    1        3.825  -4.561  -0.060  0.00  0.00    +0.010 A 
ENDBRANCH   5  11
ENDBRANCH   1   2
BRANCH   1  17
ATOM     17  C   LIG    1        3.026   4.086  -0.006  0.00  0.00    +0.100 C 
BRANCH  17  18
ATOM     18  C   LIG    1        4.126   5.116  -0.012  0.00  0.00    +0.420 C 
ATOM     19  O   LIG    1        5.286   4.763  -0.025  0.00  0.00    -0.430 OA
BRANCH  18  22
ATOM     20  C   LIG    1        4.496   8.848   0.004  0.00  0.00    +0.140 A 
ATOM     21  C   LIG    1        4.813   7.504  -0.006  0.00  0.00    -0.020 A 
ATOM     22  C   LIG    1        3.792   6.546  -0.001  0.00  0.00    -0.090 A 
ATOM     23  C   LIG    1        2.453   6.954   0.009  0.00  0.00    -0.040 A 
ATOM     24  C   LIG    1        2.144   8.300   0.022  0.00  0.00    +0.140 A 
ATOM     25  C   LIG    1        3.162   9.251   0.018  0.00  0.00    +0.070 A 
BRANCH  20  27
ATOM     26  C   LIG    1        6.831   9.297  -0.017  0.00  0.00    +0.250 C 
ATOM     27  O   LIG    1        5.487   9.780  -0.002  0.00  0.00    -0.300 OA
ENDBRANCH  20  27
BRANCH  24  28
ATOM     28  O   LIG    1        0.843   8.698   0.036  0.00  0.00    -0.300 OA
ATOM     29  C   LIG    1       -0.149   7.670   0.041  0.00  0.00    +0.250 C 
ENDBRANCH  24  28
BRANCH  25  30
ATOM     30  O   LIG    1        2.854  10.574   0.027  0.00  0.00    -0.310 OA
ATOM     31  C   LIG    1        2.695  11.212  -1.242  0.00  0.00    +0.240 C 
ENDBRANCH  25  30
ENDBRANCH  18  22
ENDBRANCH  17  18
ENDBRANCH   1  17
TORSDOF 8
