REMARK  Name = ZINCrH00000tj19g.0
REMARK                            x       y       z     vdW  Elec       q    Type
REMARK                         _______ _______ _______ _____ _____    ______ ____
ROOT
ATOM      1  S   LIG    1        4.082  -0.774  -0.061  0.00  0.00    +2.690 S 
ATOM      2  O   LIG    1        4.859   0.415  -0.014  0.00  0.00    -0.950 OA
ATOM      3  O   LIG    1        4.311  -1.816  -1.000  0.00  0.00    -0.940 OA
ENDROOT
BRANCH   1   4
ATOM      4  C   LIG    1        2.409  -0.267  -0.277  0.00  0.00    -0.670 A 
ATOM      5  C   LIG    1        1.630  -0.861  -1.222  0.00  0.00    +0.180 A 
ATOM      6  C   LIG    1        0.305  -0.473  -1.405  0.00  0.00    +0.030 A 
ATOM      7  C   LIG    1       -0.250   0.512  -0.645  0.00  0.00    +0.050 A 
ATOM      8  C   LIG    1        0.523   1.150   0.342  0.00  0.00    +0.110 A 
ATOM      9  N   LIG    1        0.007   2.120   1.103  0.00  0.00    -0.450 NA
ATOM     10  C   LIG    1        0.723   2.717   2.025  0.00  0.00    +0.300 A 
ATOM     11  C   LIG    1        2.053   2.374   2.257  0.00  0.00    +0.010 A 
ATOM     12  C   LIG    1        2.643   1.391   1.514  0.00  0.00    +0.050 A 
ATOM     13 CL   LIG    1       -1.906   0.973  -0.889  0.00  0.00    -0.020 Cl
ATOM     14  C   LIG    1        1.871   0.752   0.526  0.00  0.00    -0.010 A 
ENDBRANCH   1   4
BRANCH   1  15
ATOM     15  N   LIG    1        4.195  -1.465   1.440  0.00  0.00    -0.990 NA
ATOM     16  C   LIG    1        4.667  -0.672   2.578  0.00  0.00    +0.300 C 
BRANCH  15  17
ATOM     17  C   LIG    1        3.824  -2.870   1.630  0.00  0.00    +0.350 C 
BRANCH  17  21
ATOM     18  C   LIG    1        7.332  -5.310   1.455  0.00  0.00    +0.110 A 
ATOM     19  C   LIG    1        6.618  -5.034   0.300  0.00  0.00    -0.040 A 
ATOM     20  C   LIG    1        5.481  -4.249   0.360  0.00  0.00    +0.050 A 
ATOM     21  C   LIG    1        5.060  -3.729   1.570  0.00  0.00    -0.120 A 
ATOM     22  C   LIG    1        5.768  -4.000   2.726  0.00  0.00    -0.010 A 
ATOM     23  C   LIG    1        6.905  -4.790   2.674  0.00  0.00    +0.090 A 
BRANCH  18  25
ATOM     24  C   LIG    1        8.825  -6.585   0.113  0.00  0.00    +0.240 C 
ATOM     25  O   LIG    1        8.447  -6.086   1.397  0.00  0.00    -0.310 OA
ENDBRANCH  18  25
BRANCH  23  26
ATOM     26  O   LIG    1        7.603  -5.058   3.810  0.00  0.00    -0.310 OA
ATOM     27  C   LIG    1        7.107  -4.491   5.024  0.00  0.00    +0.230 C 
ENDBRANCH  23  26
ENDBRANCH  17  21
ENDBRANCH  15  17
ENDBRANCH   1  15
TORSDOF 6
