REMARK  Name = ZINCqH0000032c3A.0
REMARK                            x       y       z     vdW  Elec       q    Type
REMARK                         _______ _______ _______ _____ _____    ______ ____
ROOT
ATOM      1  C   LIG    1        1.169   3.624  -0.107  0.00  0.00    +0.290 C 
ATOM      2  C   LIG    1        1.316   4.087  -1.558  0.00  0.00    +0.050 C 
ENDROOT
BRANCH   1   3
ATOM      3  C   LIG    1        1.169   2.118  -0.057  0.00  0.00    -0.100 A 
ATOM      4  C   LIG    1       -0.026   1.426  -0.053  0.00  0.00    +0.020 A 
ATOM      5  C   LIG    1       -0.026   0.044  -0.007  0.00  0.00    +0.020 A 
ATOM      6  C   LIG    1        1.170  -0.649   0.034  0.00  0.00    +0.030 A 
ATOM      7  C   LIG    1        2.368   0.038   0.030  0.00  0.00    +0.020 A 
ATOM      8  C   LIG    1        2.371   1.425  -0.016  0.00  0.00    +0.100 A 
BRANCH   8   9
ATOM      9  O   LIG    1        3.548   2.103  -0.021  0.00  0.00    -0.260 OA
BRANCH   9  10
ATOM     10  C   LIG    1        4.002   2.603   1.159  0.00  0.00    +0.120 A 
ATOM     11  C   LIG    1        3.331   2.315   2.339  0.00  0.00    -0.070 A 
ATOM     12  C   LIG    1        3.797   2.819   3.537  0.00  0.00    +0.050 A 
ATOM     13  C   LIG    1        4.925   3.619   3.561  0.00  0.00    -0.020 A 
ATOM     14  C   LIG    1        5.592   3.912   2.385  0.00  0.00    +0.050 A 
ATOM     15  C   LIG    1        5.133   3.405   1.185  0.00  0.00    -0.010 A 
ENDBRANCH   9  10
ENDBRANCH   8   9
ENDBRANCH   1   3
BRANCH   1  17
ATOM     16  C   LIG    1       -0.149   5.370   0.966  0.00  0.00    +0.540 C 
ATOM     17  N   LIG    1       -0.092   4.130   0.441  0.00  0.00    -0.720 N 
ATOM     18  H   LIG    1       -0.886   3.573   0.426  0.00  0.00    +0.400 HD
ATOM     19  O   LIG    1        0.843   6.067   0.985  0.00  0.00    -0.520 OA
BRANCH  16  20
ATOM     20  C   LIG    1       -1.446   5.891   1.530  0.00  0.00    -0.350 C 
BRANCH  20  21
ATOM     21  S   LIG    1       -1.201   7.575   2.156  0.00  0.00    +2.450 S 
ATOM     22  O   LIG    1       -0.899   8.427   1.059  0.00  0.00    -0.910 OA
ATOM     23  O   LIG    1       -0.306   7.523   3.259  0.00  0.00    -0.920 OA
BRANCH  21  24
ATOM     24  C   LIG    1       -2.855   7.991   2.773  0.00  0.00    -0.340 C 
BRANCH  24  26
ATOM     25  C   LIG    1       -2.563  10.413   2.233  0.00  0.00    +0.030 C 
ATOM     26  C   LIG    1       -2.843   9.407   3.351  0.00  0.00    +0.010 C 
ATOM     27  C   LIG    1       -4.202   9.712   3.983  0.00  0.00    +0.040 C 
ENDBRANCH  24  26
ENDBRANCH  21  24
ENDBRANCH  20  21
ENDBRANCH  16  20
ENDBRANCH   1  17
TORSDOF 8
