REMARK  Name = ZINCrH00000No55p.0
REMARK                            x       y       z     vdW  Elec       q    Type
REMARK                         _______ _______ _______ _____ _____    ______ ____
ROOT
ATOM      1  N   LIG    1       -1.537   4.256   0.026  0.00  0.00    -0.490 N 
ENDROOT
BRANCH   1   2
ATOM      2  C   LIG    1       -0.297   4.799  -0.244  0.00  0.00    +0.400 A 
ATOM      3  N   LIG    1        0.067   5.957   0.296  0.00  0.00    -0.540 NA
ATOM      4  C   LIG    1        1.248   6.481   0.037  0.00  0.00    +0.540 A 
ATOM      5  N   LIG    1        2.121   5.891  -0.756  0.00  0.00    -0.520 NA
ATOM      6  C   LIG    1        1.848   4.733  -1.333  0.00  0.00    +0.380 A 
ATOM      7  C   LIG    1        0.610   4.131  -1.093  0.00  0.00    -0.100 A 
BRANCH   7   8
ATOM      8  C   LIG    1        0.270   2.877  -1.696  0.00  0.00    +0.270 C 
ATOM      9  N   LIG    1        0.001   1.883  -2.174  0.00  0.00    -0.390 NA
ENDBRANCH   7   8
ENDBRANCH   1   2
BRANCH   1  10
ATOM     10  C   LIG    1       -1.667   3.922   1.450  0.00  0.00    +0.260 C 
BRANCH  10  12
ATOM     11  C   LIG    1        0.045   2.723   2.713  0.00  0.00    -0.020 C 
ATOM     12  C   LIG    1       -0.848   2.694   1.755  0.00  0.00    -0.030 C 
BRANCH  11  13
ATOM     13  C   LIG    1        0.944   1.535   2.942  0.00  0.00    +0.200 C 
BRANCH  13  15
ATOM     14  C   LIG    1        3.237   0.923   3.276  0.00  0.00    +0.200 C 
ATOM     15  O   LIG    1        2.298   1.978   3.056  0.00  0.00    -0.390 OA
ENDBRANCH  13  15
ENDBRANCH  11  13
ENDBRANCH  10  12
ENDBRANCH   1  10
BRANCH   1  16
ATOM     16  C   LIG    1       -2.612   5.161  -0.403  0.00  0.00    +0.270 C 
BRANCH  16  17
ATOM     17  C   LIG    1       -2.762   5.090  -1.900  0.00  0.00    -0.050 A 
ATOM     18  C   LIG    1       -2.025   5.935  -2.709  0.00  0.00    -0.040 A 
ATOM     19  C   LIG    1       -2.155   5.869  -4.084  0.00  0.00    +0.040 A 
ATOM     20  C   LIG    1       -3.031   4.965  -4.653  0.00  0.00    -0.070 A 
ATOM     21  C   LIG    1       -3.776   4.119  -3.843  0.00  0.00    +0.140 A 
ATOM     22  C   LIG    1       -3.639   4.184  -2.464  0.00  0.00    +0.000 A 
BRANCH  21  23
ATOM     23  O   LIG    1       -4.638   3.229  -4.400  0.00  0.00    -0.310 OA
BRANCH  23  24
ATOM     24  C   LIG    1       -4.822   3.302  -5.816  0.00  0.00    +0.110 C 
ATOM     25  C   LIG    1       -5.240   4.722  -6.203  0.00  0.00    +0.020 C 
ATOM     26  C   LIG    1       -5.912   2.316  -6.240  0.00  0.00    +0.080 C 
ATOM     27  C   LIG    1       -3.511   2.947  -6.519  0.00  0.00    +0.020 C 
ENDBRANCH  23  24
ENDBRANCH  21  23
ENDBRANCH  16  17
ENDBRANCH   1  16
TORSDOF 10
