REMARK  Name = ZINC9p0000002lSg.0
REMARK                            x       y       z     vdW  Elec       q    Type
REMARK                         _______ _______ _______ _____ _____    ______ ____
ROOT
ATOM      1  C   LIG    1       -0.545   3.732   1.115  0.00  0.00    -0.120 C 
ATOM      2  C   LIG    1        0.880   4.310   1.137  0.00  0.00    +0.030 C 
ATOM      3  C   LIG    1        0.267   5.585   1.746  0.00  0.00    +0.020 C 
ATOM      4  C   LIG    1       -0.871   4.693   2.270  0.00  0.00    +0.060 C 
ENDROOT
BRANCH   1   5
ATOM      5  C   LIG    1       -0.614   2.255   1.508  0.00  0.00    +0.030 C 
BRANCH   5   7
ATOM      6  C   LIG    1       -2.114   0.439   2.341  0.00  0.00    +0.020 C 
ATOM      7  C   LIG    1       -2.062   1.879   1.827  0.00  0.00    +0.000 C 
ENDBRANCH   5   7
ENDBRANCH   1   5
BRANCH   1   8
ATOM      8  C   LIG    1       -1.311   4.041  -0.174  0.00  0.00    +0.290 C 
BRANCH   8   9
ATOM      9  N   LIG    1       -0.753   3.248  -1.277  0.00  0.00    -0.640 N 
ATOM     10  H   LIG    1       -1.194   3.519  -2.143  0.00  0.00    +0.440 HD
ATOM     11  H   LIG    1       -0.921   2.268  -1.106  0.00  0.00    +0.430 HD
ATOM     12  H   LIG    1        0.241   3.412  -1.340  0.00  0.00    +0.430 HD
ENDBRANCH   8   9
ENDBRANCH   1   8
TORSDOF 4
