REMARK  Name = ZINCpk00000jdSUo.0
REMARK                            x       y       z     vdW  Elec       q    Type
REMARK                         _______ _______ _______ _____ _____    ______ ____
ROOT
ATOM      1  C   LIG    1        6.020   6.395  -0.499  0.00  0.00    +0.520 C 
ATOM      2  N   LIG    1        4.700   6.135  -0.576  0.00  0.00    -0.620 N 
ATOM      3  C   LIG    1        3.763   7.158  -1.060  0.00  0.00    +0.270 C 
ATOM      4  C   LIG    1        2.963   6.574  -2.232  0.00  0.00    +0.270 C 
ATOM      5  N   LIG    1        2.435   5.262  -1.832  0.00  0.00    -0.610 N 
ATOM      6  C   LIG    1        3.372   4.239  -1.348  0.00  0.00    +0.300 C 
ATOM      7  C   LIG    1        1.115   5.002  -1.909  0.00  0.00    +0.490 C 
ATOM      8  O   LIG    1        0.678   3.954  -1.483  0.00  0.00    -0.500 OA
ATOM      9  C   LIG    1        4.172   4.822  -0.176  0.00  0.00    +0.290 C 
ATOM     10  O   LIG    1        6.784   5.543  -0.098  0.00  0.00    -0.530 OA
ENDROOT
BRANCH   6  11
ATOM     11  C   LIG    1        2.604   3.029  -0.883  0.00  0.00    -0.220 A 
ATOM     12  C   LIG    1        2.604   1.811  -1.472  0.00  0.00    +0.230 A 
ATOM     13  N   LIG    1        1.794   1.006  -0.753  0.00  0.00    -0.480 N 
ATOM     14  H   LIG    1        1.602   0.074  -0.942  0.00  0.00    +0.440 HD
ATOM     15  N   LIG    1        1.274   1.756   0.310  0.00  0.00    -0.300 NA
ATOM     16  C   LIG    1        1.764   2.966   0.234  0.00  0.00    +0.280 A 
ENDBRANCH   6  11
BRANCH   1  17
ATOM     17  C   LIG    1        6.547   7.745  -0.912  0.00  0.00    +0.090 C 
BRANCH  17  20
ATOM     18  C   LIG    1        7.746   9.834   0.550  0.00  0.00    +0.080 C 
ATOM     19  C   LIG    1        8.598   8.736  -0.033  0.00  0.00    -0.130 C 
ATOM     20  C   LIG    1        8.043   7.777  -0.732  0.00  0.00    -0.030 C 
ATOM     21  C   LIG    1       10.089   8.741   0.188  0.00  0.00    +0.080 C 
ENDBRANCH  17  20
ENDBRANCH   1  17
BRANCH   7  22
ATOM     22  C   LIG    1        0.182   6.012  -2.525  0.00  0.00    +0.210 C 
BRANCH  22  23
ATOM     23  C   LIG    1        0.167   5.833  -4.045  0.00  0.00    -0.040 C 
ATOM     24  C   LIG    1        1.577   6.047  -4.598  0.00  0.00    +0.020 C 
ATOM     25  C   LIG    1       -0.786   6.854  -4.670  0.00  0.00    +0.040 C 
ENDBRANCH  22  23
BRANCH  22  26
ATOM     26  O   LIG    1       -1.137   5.820  -2.010  0.00  0.00    -0.540 OA
ATOM     27  H   LIG    1       -1.505   4.944  -2.190  0.00  0.00    +0.380 HD
ENDBRANCH  22  26
ENDBRANCH   7  22
TORSDOF 6
