REMARK  Name = ZINCvU00000004Gt.1
REMARK                            x       y       z     vdW  Elec       q    Type
REMARK                         _______ _______ _______ _____ _____    ______ ____
ROOT
ATOM      1  C   LIG    1        1.647  -2.483   5.035  0.00  0.00    +0.130 A 
ATOM      2  C   LIG    1        2.833  -3.159   4.789  0.00  0.00    -0.080 A 
ATOM      3  C   LIG    1        3.228  -3.407   3.489  0.00  0.00    +0.050 A 
ATOM      4  C   LIG    1        2.441  -2.986   2.433  0.00  0.00    +0.000 A 
ATOM      5  C   LIG    1        1.261  -2.307   2.676  0.00  0.00    -0.040 A 
ATOM      6  C   LIG    1        0.861  -2.057   3.974  0.00  0.00    -0.010 A 
ENDROOT
BRANCH   1   7
ATOM      7  O   LIG    1        1.255  -2.239   6.313  0.00  0.00    -0.310 OA
BRANCH   7   8
ATOM      8  C   LIG    1        2.113  -2.706   7.355  0.00  0.00    +0.270 C 
BRANCH   8  13
ATOM      9  F   LIG    1       -0.102  -1.365  12.349  0.00  0.00    -0.130 F 
ATOM     10  C   LIG    1        0.431  -1.687  11.150  0.00  0.00    +0.130 A 
ATOM     11  C   LIG    1       -0.225  -1.336   9.983  0.00  0.00    -0.010 A 
ATOM     12  C   LIG    1        0.323  -1.661   8.756  0.00  0.00    +0.110 A 
ATOM     13  C   LIG    1        1.520  -2.347   8.694  0.00  0.00    -0.140 A 
ATOM     14  C   LIG    1        2.179  -2.700   9.860  0.00  0.00    +0.140 A 
ATOM     15  F   LIG    1        3.353  -3.365   9.798  0.00  0.00    -0.130 F 
ATOM     16  C   LIG    1        1.635  -2.369  11.088  0.00  0.00    -0.040 A 
ENDBRANCH   8  13
ENDBRANCH   7   8
ENDBRANCH   1   7
BRANCH   5  17
ATOM     17  C   LIG    1        0.408  -1.844   1.522  0.00  0.00    +0.230 C 
BRANCH  17  18
ATOM     18  N   LIG    1        0.814  -0.489   1.126  0.00  0.00    -0.670 NA
ATOM     19  H   LIG    1        0.764   0.146   1.908  0.00  0.00    +0.340 HD
BRANCH  18  20
ATOM     20  C   LIG    1        0.002  -0.004   0.002  0.00  0.00    +0.190 C 
BRANCH  20  21
ATOM     21  C   LIG    1        0.597  -0.491  -1.294  0.00  0.00    -0.080 A 
ATOM     22  C   LIG    1        1.969  -0.501  -1.464  0.00  0.00    +0.050 A 
ATOM     23  C   LIG    1        2.515  -0.951  -2.652  0.00  0.00    -0.010 A 
ATOM     24  C   LIG    1        1.688  -1.385  -3.672  0.00  0.00    +0.000 A 
ATOM     25  C   LIG    1        0.316  -1.370  -3.503  0.00  0.00    +0.000 A 
ATOM     26  C   LIG    1       -0.229  -0.923  -2.315  0.00  0.00    +0.010 A 
ENDBRANCH  20  21
BRANCH  20  27
ATOM     27  C   LIG    1       -0.019   1.526   0.010  0.00  0.00    +0.340 C 
BRANCH  27  28
ATOM     28  N   LIG    1       -0.704   1.998   1.216  0.00  0.00    -0.380 N 
ATOM     29  C   LIG    1       -0.201   2.851   2.133  0.00  0.00    +0.220 A 
ATOM     30  C   LIG    1       -1.144   3.036   3.085  0.00  0.00    -0.120 A 
ATOM     31  C   LIG    1       -2.259   2.263   2.744  0.00  0.00    +0.230 A 
ATOM     32  N   LIG    1       -1.996   1.640   1.623  0.00  0.00    -0.300 NA
ENDBRANCH  27  28
ENDBRANCH  20  27
ENDBRANCH  18  20
ENDBRANCH  17  18
ENDBRANCH   5  17
TORSDOF 9
