REMARK  Name = ZINCpe00000VSWcE.2
REMARK                            x       y       z     vdW  Elec       q    Type
REMARK                         _______ _______ _______ _____ _____    ______ ____
ROOT
ATOM      1  N   LIG    1       -0.830   3.170   1.168  0.00  0.00    -0.510 NA
ATOM      2  C   LIG    1       -0.665   1.711   1.109  0.00  0.00    +0.170 C 
ATOM      3  C   LIG    1        0.123   1.340  -0.151  0.00  0.00    +0.300 C 
ATOM      4  N   LIG    1       -0.541   1.942  -1.317  0.00  0.00    -0.620 N 
ATOM      5  C   LIG    1       -0.860   3.377  -1.272  0.00  0.00    +0.290 C 
ATOM      6  C   LIG    1       -0.850   1.198  -2.397  0.00  0.00    +0.520 C 
ATOM      7  O   LIG    1       -0.579   0.016  -2.417  0.00  0.00    -0.520 OA
ATOM      8  C   LIG    1       -1.614   3.668   0.030  0.00  0.00    +0.180 C 
ENDROOT
BRANCH   1   9
ATOM      9  C   LIG    1       -1.434   3.580   2.443  0.00  0.00    +0.370 C 
BRANCH   9  10
ATOM     10  C   LIG    1       -0.487   3.264   3.572  0.00  0.00    -0.090 A 
ATOM     11  C   LIG    1       -0.984   2.885   4.805  0.00  0.00    +0.010 A 
ATOM     12  C   LIG    1       -0.116   2.591   5.839  0.00  0.00    +0.000 A 
ATOM     13  C   LIG    1        1.250   2.685   5.643  0.00  0.00    +0.010 A 
ATOM     14  C   LIG    1        1.746   3.069   4.412  0.00  0.00    +0.010 A 
ATOM     15  C   LIG    1        0.878   3.358   3.376  0.00  0.00    +0.060 A 
ENDBRANCH   9  10
BRANCH   9  17
ATOM     16  N   LIG    1       -3.673   2.291   2.799  0.00  0.00    -0.410 NA
ATOM     17  C   LIG    1       -2.698   2.853   2.644  0.00  0.00    +0.170 C 
ENDBRANCH   9  17
ENDBRANCH   1   9
BRANCH   6  18
ATOM     18  C   LIG    1       -1.530   1.835  -3.581  0.00  0.00    +0.220 C 
BRANCH  18  19
ATOM     19  N   LIG    1       -1.756   0.822  -4.620  0.00  0.00    -0.520 NA
ATOM     20  C   LIG    1       -0.483   0.333  -5.164  0.00  0.00    +0.180 C 
ATOM     21  C   LIG    1       -0.750  -0.820  -6.135  0.00  0.00    +0.030 C 
ATOM     22  C   LIG    1       -1.655  -0.327  -7.268  0.00  0.00    -0.020 C 
ATOM     23  C   LIG    1       -2.954   0.221  -6.671  0.00  0.00    +0.180 C 
ATOM     24  C   LIG    1       -2.623   1.343  -5.685  0.00  0.00    +0.180 C 
BRANCH  23  25
ATOM     25  O   LIG    1       -3.781   0.733  -7.717  0.00  0.00    -0.570 OA
ATOM     26  H   LIG    1       -4.030   0.075  -8.380  0.00  0.00    +0.380 HD
ENDBRANCH  23  25
ENDBRANCH  18  19
ENDBRANCH   6  18
TORSDOF 6
