REMARK  Name = ZINCvU0000000HFC.0
REMARK                            x       y       z     vdW  Elec       q    Type
REMARK                         _______ _______ _______ _____ _____    ______ ____
ROOT
ATOM      1  C   LIG    1        0.171  -2.494   0.983  0.00  0.00    +0.290 A 
ATOM      2  N   LIG    1       -0.159  -1.283   1.325  0.00  0.00    -0.480 NA
ATOM      3  C   LIG    1        0.961  -0.558   1.577  0.00  0.00    +0.050 A 
ATOM      4  C   LIG    1        1.185   0.763   1.972  0.00  0.00    +0.060 A 
ATOM      5  C   LIG    1        2.463   1.214   2.149  0.00  0.00    +0.000 A 
ATOM      6  C   LIG    1        3.545   0.371   1.940  0.00  0.00    +0.030 A 
ATOM      7  C   LIG    1        3.348  -0.937   1.551  0.00  0.00    +0.020 A 
ATOM      8  C   LIG    1        2.057  -1.412   1.366  0.00  0.00    +0.050 A 
ATOM      9  N   LIG    1        1.525  -2.629   0.991  0.00  0.00    -0.480 N 
ENDROOT
BRANCH   1  12
ATOM     10  N   LIG    1       -3.054  -4.185   1.202  0.00  0.00    -0.570 N 
ATOM     11  C   LIG    1       -1.753  -3.885   1.811  0.00  0.00    +0.300 C 
ATOM     12  C   LIG    1       -0.804  -3.587   0.629  0.00  0.00    +0.090 C 
ATOM     13  C   LIG    1       -1.794  -3.114  -0.460  0.00  0.00    +0.090 C 
ATOM     14  C   LIG    1       -3.107  -3.758  -0.072  0.00  0.00    +0.530 C 
ATOM     15  O   LIG    1       -4.068  -3.873  -0.804  0.00  0.00    -0.510 OA
BRANCH  10  21
ATOM     16  C   LIG    1       -4.138  -6.219   1.922  0.00  0.00    -0.070 A 
ATOM     17  C   LIG    1       -5.176  -6.855   2.574  0.00  0.00    +0.020 A 
ATOM     18  C   LIG    1       -6.180  -6.112   3.168  0.00  0.00    +0.020 A 
ATOM     19  C   LIG    1       -6.149  -4.731   3.110  0.00  0.00    +0.010 A 
ATOM     20  C   LIG    1       -5.112  -4.089   2.463  0.00  0.00    +0.030 A 
ATOM     21  C   LIG    1       -4.104  -4.832   1.862  0.00  0.00    +0.140 A 
BRANCH  16  23
ATOM     22  C   LIG    1       -3.384  -7.260  -0.199  0.00  0.00    +0.030 C 
ATOM     23  C   LIG    1       -3.045  -7.030   1.275  0.00  0.00    +0.060 C 
ENDBRANCH  16  23
ENDBRANCH  10  21
ENDBRANCH   1  12
BRANCH   9  24
ATOM     24  C   LIG    1        2.278  -3.842   0.662  0.00  0.00    +0.360 C 
BRANCH  24  25
ATOM     25  C   LIG    1        2.488  -4.657   1.912  0.00  0.00    -0.160 A 
ATOM     26  C   LIG    1        1.678  -5.746   2.172  0.00  0.00    +0.060 A 
ATOM     27  C   LIG    1        1.870  -6.493   3.319  0.00  0.00    +0.000 A 
ATOM     28  C   LIG    1        2.873  -6.153   4.207  0.00  0.00    +0.060 A 
ATOM     29  C   LIG    1        3.685  -5.065   3.950  0.00  0.00    -0.010 A 
ATOM     30  C   LIG    1        3.497  -4.319   2.799  0.00  0.00    +0.120 A 
ATOM     31  F   LIG    1        4.294  -3.258   2.543  0.00  0.00    -0.130 F 
ENDBRANCH  24  25
ENDBRANCH   9  24
TORSDOF 5
