REMARK  Name = ZINCvU000000053C.0
REMARK                            x       y       z     vdW  Elec       q    Type
REMARK                         _______ _______ _______ _____ _____    ______ ____
ROOT
ATOM      1  N   LIG    1       -0.471   1.900  -1.237  0.00  0.00    -0.510 N 
ATOM      2  C   LIG    1       -1.089   1.380  -2.284  0.00  0.00    +0.550 C 
ATOM      3  C   LIG    1       -1.241   2.288  -3.427  0.00  0.00    -0.280 C 
ATOM      4  S   LIG    1       -0.471   3.793  -2.888  0.00  0.00    +0.120 S 
ATOM      5  C   LIG    1       -1.830   2.033  -4.623  0.00  0.00    +0.280 C 
ATOM      6  O   LIG    1       -1.503   0.235  -2.298  0.00  0.00    -0.450 OA
ATOM      7  C   LIG    1       -0.035   3.163  -1.290  0.00  0.00    +0.250 C 
ATOM      8  S   LIG    1        0.789   4.010  -0.050  0.00  0.00    -0.360 S 
ENDROOT
BRANCH   5   9
ATOM      9  C   LIG    1       -2.032   3.120  -5.588  0.00  0.00    -0.120 A 
ATOM     10  C   LIG    1       -1.993   4.454  -5.165  0.00  0.00    +0.080 A 
ATOM     11  C   LIG    1       -2.183   5.469  -6.077  0.00  0.00    +0.000 A 
ATOM     12  C   LIG    1       -2.414   5.177  -7.411  0.00  0.00    +0.090 A 
ATOM     13  C   LIG    1       -2.455   3.865  -7.844  0.00  0.00    -0.050 A 
ATOM     14  C   LIG    1       -2.261   2.830  -6.944  0.00  0.00    +0.150 A 
BRANCH  14  15
ATOM     15  O   LIG    1       -2.296   1.541  -7.368  0.00  0.00    -0.320 OA
BRANCH  15  16
ATOM     16  C   LIG    1       -2.533   1.323  -8.761  0.00  0.00    +0.600 C 
ATOM     17  F   LIG    1       -1.523   1.938  -9.508  0.00  0.00    -0.190 F 
ATOM     18  F   LIG    1       -3.772   1.869  -9.114  0.00  0.00    -0.190 F 
ENDBRANCH  15  16
ENDBRANCH  14  15
ENDBRANCH   5   9
BRANCH   1  19
ATOM     19  C   LIG    1       -0.260   1.096  -0.031  0.00  0.00    +0.320 C 
BRANCH  19  20
ATOM     20  C   LIG    1       -1.449   1.273   0.915  0.00  0.00    +0.050 C 
BRANCH  20  21
ATOM     21  C   LIG    1       -1.229   0.434   2.175  0.00  0.00    +0.080 C 
BRANCH  21  23
ATOM     22  O   LIG    1       -3.322   1.333   2.793  0.00  0.00    -0.510 OA
ATOM     23  C   LIG    1       -2.401   0.608   3.106  0.00  0.00    +0.520 C 
ATOM     24  N   LIG    1       -2.426  -0.041   4.287  0.00  0.00    -0.680 N 
ATOM     25  H   LIG    1       -1.657  -0.559   4.572  0.00  0.00    +0.410 HD
BRANCH  24  26
ATOM     26  C   LIG    1       -3.561   0.033   5.102  0.00  0.00    +0.170 A 
ATOM     27  C   LIG    1       -3.427   0.024   6.484  0.00  0.00    +0.000 A 
ATOM     28  C   LIG    1       -4.549   0.102   7.286  0.00  0.00    +0.070 A 
ATOM     29  C   LIG    1       -5.806   0.178   6.713  0.00  0.00    -0.120 A 
ATOM     30  C   LIG    1       -5.943   0.181   5.337  0.00  0.00    +0.070 A 
ATOM     31  I   LIG    1       -7.505   0.287   7.933  0.00  0.00    -0.040 I 
ATOM     32  C   LIG    1       -4.824   0.108   4.530  0.00  0.00    +0.020 A 
ENDBRANCH  24  26
ENDBRANCH  21  23
ENDBRANCH  20  21
ENDBRANCH  19  20
ENDBRANCH   1  19
TORSDOF 8
