REMARK  Name = ZINC650000001I4Y.0
REMARK                            x       y       z     vdW  Elec       q    Type
REMARK                         _______ _______ _______ _____ _____    ______ ____
ROOT
ATOM      1  C   LIG    1       -1.187   1.624   0.017  0.00  0.00    +0.520 C 
ATOM      2  O   LIG    1       -2.229   1.003   0.018  0.00  0.00    -0.530 OA
ATOM      3  N   LIG    1       -0.011   0.966   0.007  0.00  0.00    -0.850 N 
ATOM      4  H   LIG    1        0.822   1.462   0.002  0.00  0.00    +0.410 HD
ATOM      5  H   LIG    1        0.002  -0.004   0.002  0.00  0.00    +0.410 HD
ENDROOT
BRANCH   1   6
ATOM      6  C   LIG    1       -1.208   3.131   0.025  0.00  0.00    +0.240 C 
BRANCH   6   8
ATOM      7  N   LIG    1       -3.678   3.966   0.041  0.00  0.00    -0.410 NA
ATOM      8  C   LIG    1       -2.602   3.602   0.034  0.00  0.00    +0.210 C 
ENDBRANCH   6   8
ENDBRANCH   1   6
TORSDOF 2
