REMARK  Name = ZINCvU0000000CKi.0
REMARK                            x       y       z     vdW  Elec       q    Type
REMARK                         _______ _______ _______ _____ _____    ______ ____
ROOT
ATOM      1  O   LIG    1        3.453   2.936  -0.669  0.00  0.00    -0.490 OA
ATOM      2  C   LIG    1        3.485   1.720  -0.615  0.00  0.00    +0.600 C 
ATOM      3  N   LIG    1        2.342   1.011  -0.701  0.00  0.00    -0.670 N 
ATOM      4  H   LIG    1        2.359   0.048  -0.583  0.00  0.00    +0.410 HD
ENDROOT
BRANCH   3   5
ATOM      5  C   LIG    1        1.132   1.663  -0.961  0.00  0.00    +0.120 A 
ATOM      6  C   LIG    1        1.111   2.791  -1.772  0.00  0.00    +0.050 A 
ATOM      7  C   LIG    1       -0.082   3.438  -2.024  0.00  0.00    -0.010 A 
ATOM      8  C   LIG    1       -1.263   2.955  -1.476  0.00  0.00    +0.150 A 
ATOM      9  C   LIG    1       -1.242   1.828  -0.665  0.00  0.00    +0.020 A 
ATOM     10  C   LIG    1       -0.049   1.184  -0.408  0.00  0.00    +0.020 A 
BRANCH   8  11
ATOM     11  N   LIG    1       -2.475   3.608  -1.736  0.00  0.00    -0.560 N 
ATOM     12  C   LIG    1       -2.627   4.730  -2.671  0.00  0.00    +0.260 C 
ATOM     13  C   LIG    1       -3.978   5.386  -2.311  0.00  0.00    +0.060 C 
ATOM     14  C   LIG    1       -4.740   4.205  -1.666  0.00  0.00    +0.070 C 
ATOM     15  C   LIG    1       -3.648   3.286  -1.166  0.00  0.00    +0.520 C 
ATOM     16  O   LIG    1       -3.808   2.389  -0.365  0.00  0.00    -0.510 OA
ENDBRANCH   8  11
ENDBRANCH   3   5
BRANCH   2  17
ATOM     17  C   LIG    1        4.763   1.029  -0.455  0.00  0.00    -0.300 A 
ATOM     18  C   LIG    1        5.987   1.628  -0.232  0.00  0.00    +0.210 A 
ATOM     19  N   LIG    1        6.995   0.796  -0.119  0.00  0.00    -0.450 NA
ATOM     20  C   LIG    1        6.737  -0.479  -0.238  0.00  0.00    +0.160 A 
ATOM     21  S   LIG    1        5.015  -0.714  -0.522  0.00  0.00    +0.190 S 
BRANCH  18  22
ATOM     22  C   LIG    1        6.149   3.096  -0.124  0.00  0.00    -0.040 A 
ATOM     23  C   LIG    1        7.177   3.740  -0.812  0.00  0.00    +0.040 A 
ATOM     24  C   LIG    1        7.319   5.109  -0.712  0.00  0.00    +0.000 A 
ATOM     25  C   LIG    1        6.451   5.841   0.078  0.00  0.00    +0.020 A 
ATOM     26  C   LIG    1        5.433   5.208   0.767  0.00  0.00    -0.010 A 
ATOM     27  C   LIG    1        5.277   3.840   0.670  0.00  0.00    +0.080 A 
ENDBRANCH  18  22
BRANCH  20  28
ATOM     28  C   LIG    1        7.732  -1.556  -0.147  0.00  0.00    +0.030 A 
ATOM     29  C   LIG    1        7.482  -2.891  -0.268  0.00  0.00    +0.010 A 
ATOM     30  C   LIG    1        8.715  -3.549  -0.116  0.00  0.00    -0.050 A 
ATOM     31  C   LIG    1        9.650  -2.598   0.088  0.00  0.00    +0.220 A 
ATOM     32  O   LIG    1        9.055  -1.396   0.063  0.00  0.00    -0.150 OA
ENDBRANCH  20  28
ENDBRANCH   2  17
TORSDOF 5
