REMARK  Name = ZINCkj00000y7O4Q.1
REMARK                            x       y       z     vdW  Elec       q    Type
REMARK                         _______ _______ _______ _____ _____    ______ ____
ROOT
ATOM      1  C   LIG    1       -3.082   3.522   2.393  0.00  0.00    +0.140 C 
ATOM      2  C   LIG    1       -3.969   3.851   3.613  0.00  0.00    +0.100 C 
ATOM      3  C   LIG    1       -4.593   5.222   3.228  0.00  0.00    +0.080 C 
ATOM      4  C   LIG    1       -4.782   5.064   1.699  0.00  0.00    +0.260 C 
ATOM      5  N   LIG    1       -3.602   4.295   1.250  0.00  0.00    -0.380 N 
ATOM      6  H   LIG    1       -3.871   3.665   0.509  0.00  0.00    +0.420 HD
ENDROOT
BRANCH   1   7
ATOM      7  C   LIG    1       -3.155   2.025   2.086  0.00  0.00    +0.330 C 
BRANCH   7  10
ATOM      8  C   LIG    1       -0.359   1.550   2.156  0.00  0.00    +0.110 C 
ATOM      9  C   LIG    1       -1.105   1.576   0.847  0.00  0.00    +0.510 C 
ATOM     10  N   LIG    1       -2.442   1.748   0.836  0.00  0.00    -0.610 N 
ATOM     11  O   LIG    1       -0.503   1.442  -0.197  0.00  0.00    -0.500 OA
BRANCH  10  12
ATOM     12  C   LIG    1       -3.182   1.659  -0.425  0.00  0.00    +0.170 C 
ATOM     13  C   LIG    1       -2.479   0.994  -1.611  0.00  0.00    +0.080 C 
ATOM     14  C   LIG    1       -2.687   2.510  -1.596  0.00  0.00    +0.000 C 
ENDBRANCH  10  12
ENDBRANCH   7  10
ENDBRANCH   1   7
BRANCH   5  15
ATOM     15  C   LIG    1       -2.566   5.217   0.765  0.00  0.00    +0.250 C 
BRANCH  15  16
ATOM     16  C   LIG    1       -2.994   5.802  -0.582  0.00  0.00    +0.210 C 
BRANCH  16  17
ATOM     17  C   LIG    1       -1.840   6.612  -1.177  0.00  0.00    +0.430 C 
ATOM     18  F   LIG    1       -1.502   7.651  -0.303  0.00  0.00    -0.170 F 
ATOM     19  F   LIG    1       -2.232   7.147  -2.408  0.00  0.00    -0.150 F 
ATOM     20  F   LIG    1       -0.732   5.779  -1.362  0.00  0.00    -0.170 F 
ENDBRANCH  16  17
BRANCH  16  21
ATOM     21  O   LIG    1       -4.126   6.654  -0.393  0.00  0.00    -0.510 OA
ATOM     22  H   LIG    1       -3.963   7.398   0.203  0.00  0.00    +0.400 HD
ENDBRANCH  16  21
ENDBRANCH  15  16
ENDBRANCH   5  15
TORSDOF 7
