REMARK  Name = ZINCkj00000y7O4Q.0
REMARK                            x       y       z     vdW  Elec       q    Type
REMARK                         _______ _______ _______ _____ _____    ______ ____
ROOT
ATOM      1  C   LIG    1        4.275   0.180  -1.073  0.00  0.00    +0.150 C 
ATOM      2  C   LIG    1        5.809   0.346  -1.066  0.00  0.00    +0.090 C 
ATOM      3  C   LIG    1        6.311  -1.016  -1.614  0.00  0.00    +0.080 C 
ATOM      4  C   LIG    1        5.215  -1.358  -2.654  0.00  0.00    +0.260 C 
ATOM      5  N   LIG    1        3.955  -0.881  -2.046  0.00  0.00    -0.380 N 
ATOM      6  H   LIG    1        3.494  -1.646  -1.575  0.00  0.00    +0.430 HD
ENDROOT
BRANCH   1   7
ATOM      7  C   LIG    1        3.611   1.492  -1.497  0.00  0.00    +0.300 C 
BRANCH   7  10
ATOM      8  C   LIG    1        2.027   1.598   0.853  0.00  0.00    +0.110 C 
ATOM      9  C   LIG    1        3.108   2.618   0.604  0.00  0.00    +0.510 C 
ATOM     10  N   LIG    1        3.884   2.523  -0.493  0.00  0.00    -0.580 N 
ATOM     11  O   LIG    1        3.279   3.525   1.391  0.00  0.00    -0.500 OA
BRANCH  10  12
ATOM     12  C   LIG    1        5.002   3.452  -0.682  0.00  0.00    +0.180 C 
ATOM     13  C   LIG    1        4.705   4.948  -0.562  0.00  0.00    +0.020 C 
ATOM     14  C   LIG    1        5.487   4.231   0.541  0.00  0.00    +0.060 C 
ENDBRANCH  10  12
ENDBRANCH   7  10
ENDBRANCH   1   7
BRANCH   5  15
ATOM     15  C   LIG    1        3.074  -0.344  -3.092  0.00  0.00    +0.250 C 
BRANCH  15  16
ATOM     16  C   LIG    1        2.699  -1.462  -4.067  0.00  0.00    +0.220 C 
BRANCH  16  17
ATOM     17  C   LIG    1        1.762  -0.907  -5.142  0.00  0.00    +0.430 C 
ATOM     18  F   LIG    1        0.653  -0.310  -4.531  0.00  0.00    -0.170 F 
ATOM     19  F   LIG    1        1.332  -1.951  -5.969  0.00  0.00    -0.150 F 
ATOM     20  F   LIG    1        2.442   0.045  -5.907  0.00  0.00    -0.170 F 
ENDBRANCH  16  17
BRANCH  16  21
ATOM     21  O   LIG    1        2.041  -2.513  -3.357  0.00  0.00    -0.520 OA
ATOM     22  H   LIG    1        1.228  -2.237  -2.912  0.00  0.00    +0.400 HD
ENDBRANCH  16  21
ENDBRANCH  15  16
ENDBRANCH   5  15
TORSDOF 7
