REMARK  Name = ZINCrm000000FGZk.1
REMARK                            x       y       z     vdW  Elec       q    Type
REMARK                         _______ _______ _______ _____ _____    ______ ____
ROOT
ATOM      1  N   LIG    1        0.047   0.699  -0.550  0.00  0.00    -0.730 N 
ATOM      2  H   LIG    1        0.113  -0.269  -0.553  0.00  0.00    +0.410 HD
ATOM      3  C   LIG    1       -1.155   1.293  -0.689  0.00  0.00    +0.710 C 
ATOM      4  N   LIG    1       -2.265   0.542  -0.832  0.00  0.00    -0.740 N 
ATOM      5  H   LIG    1       -2.199  -0.426  -0.835  0.00  0.00    +0.410 HD
ATOM      6  O   LIG    1       -1.237   2.506  -0.686  0.00  0.00    -0.570 OA
ENDROOT
BRANCH   1  10
ATOM      7  C   LIG    1        4.386   2.384  -0.799  0.00  0.00    +0.100 C 
ATOM      8  C   LIG    1        3.624   1.401   0.091  0.00  0.00    +0.060 C 
ATOM      9  C   LIG    1        2.527   0.690  -0.729  0.00  0.00    +0.090 C 
ATOM     10  C   LIG    1        1.255   1.515  -0.401  0.00  0.00    +0.280 C 
ATOM     11  C   LIG    1        1.496   1.883   1.085  0.00  0.00    +0.250 C 
ATOM     12  C   LIG    1        4.592   0.370   0.675  0.00  0.00    +0.100 C 
ATOM     13  N   LIG    1        2.950   2.130   1.181  0.00  0.00    -0.380 N 
ATOM     14  H   LIG    1        3.133   3.118   1.093  0.00  0.00    +0.430 HD
BRANCH  13  15
ATOM     15  C   LIG    1        3.448   1.648   2.477  0.00  0.00    +0.320 C 
BRANCH  15  16
ATOM     16  C   LIG    1        2.819   2.450   3.587  0.00  0.00    -0.160 A 
ATOM     17  C   LIG    1        3.393   3.640   3.991  0.00  0.00    +0.040 A 
ATOM     18  C   LIG    1        2.813   4.378   5.006  0.00  0.00    +0.030 A 
ATOM     19  C   LIG    1        1.664   3.920   5.624  0.00  0.00    +0.060 A 
ATOM     20  C   LIG    1        1.093   2.726   5.223  0.00  0.00    +0.020 A 
ATOM     21  C   LIG    1        1.670   1.991   4.205  0.00  0.00    +0.020 A 
ENDBRANCH  15  16
ENDBRANCH  13  15
ENDBRANCH   1  10
BRANCH   4  22
ATOM     22  C   LIG    1       -3.571   1.188  -0.983  0.00  0.00    +0.290 C 
BRANCH  22  23
ATOM     23  C   LIG    1       -4.655   0.118  -1.127  0.00  0.00    +0.260 C 
BRANCH  23  24
ATOM     24  N   LIG    1       -5.965   0.765  -1.278  0.00  0.00    -0.390 N 
ATOM     25  C   LIG    1       -6.043   1.459  -2.583  0.00  0.00    +0.260 C 
ATOM     26  C   LIG    1       -7.492   1.314  -3.085  0.00  0.00    +0.080 C 
ATOM     27  C   LIG    1       -8.212   0.474  -2.005  0.00  0.00    +0.010 C 
ATOM     28  C   LIG    1       -7.043  -0.257  -1.298  0.00  0.00    +0.280 C 
ATOM     29  H   LIG    1       -6.120   1.419  -0.526  0.00  0.00    +0.430 HD
BRANCH  27  30
ATOM     30  C   LIG    1       -9.170  -0.532  -2.646  0.00  0.00    +0.200 C 
BRANCH  30  31
ATOM     31  O   LIG    1      -10.296   0.162  -3.188  0.00  0.00    -0.570 OA
ATOM     32  H   LIG    1      -10.947  -0.415  -3.611  0.00  0.00    +0.400 HD
ENDBRANCH  30  31
ENDBRANCH  27  30
ENDBRANCH  23  24
ENDBRANCH  22  23
ENDBRANCH   4  22
TORSDOF 8
