REMARK  Name = ZINCrm000000FGZk.0
REMARK                            x       y       z     vdW  Elec       q    Type
REMARK                         _______ _______ _______ _____ _____    ______ ____
ROOT
ATOM      1  N   LIG    1        2.607  -0.889   5.559  0.00  0.00    -0.730 N 
ATOM      2  H   LIG    1        2.851  -0.039   5.958  0.00  0.00    +0.410 HD
ATOM      3  C   LIG    1        1.809  -0.919   4.474  0.00  0.00    +0.710 C 
ATOM      4  N   LIG    1        1.349   0.231   3.943  0.00  0.00    -0.740 N 
ATOM      5  H   LIG    1        1.593   1.081   4.342  0.00  0.00    +0.410 HD
ATOM      6  O   LIG    1        1.503  -1.985   3.973  0.00  0.00    -0.570 OA
ENDROOT
BRANCH   1  10
ATOM      7  C   LIG    1        5.940  -1.829   8.203  0.00  0.00    +0.100 C 
ATOM      8  C   LIG    1        4.790  -2.757   7.807  0.00  0.00    +0.060 C 
ATOM      9  C   LIG    1        3.498  -1.940   7.619  0.00  0.00    +0.090 C 
ATOM     10  C   LIG    1        3.107  -2.139   6.136  0.00  0.00    +0.280 C 
ATOM     11  C   LIG    1        4.445  -2.553   5.473  0.00  0.00    +0.250 C 
ATOM     12  C   LIG    1        4.580  -3.822   8.885  0.00  0.00    +0.100 C 
ATOM     13  N   LIG    1        5.087  -3.403   6.511  0.00  0.00    -0.390 N 
ATOM     14  H   LIG    1        4.695  -4.333   6.487  0.00  0.00    +0.430 HD
BRANCH  13  15
ATOM     15  C   LIG    1        6.539  -3.460   6.294  0.00  0.00    +0.320 C 
BRANCH  15  16
ATOM     16  C   LIG    1        6.821  -4.008   4.919  0.00  0.00    -0.160 A 
ATOM     17  C   LIG    1        6.979  -5.369   4.737  0.00  0.00    +0.040 A 
ATOM     18  C   LIG    1        7.233  -5.872   3.474  0.00  0.00    +0.030 A 
ATOM     19  C   LIG    1        7.339  -5.014   2.396  0.00  0.00    +0.060 A 
ATOM     20  C   LIG    1        7.187  -3.652   2.580  0.00  0.00    +0.020 A 
ATOM     21  C   LIG    1        6.928  -3.149   3.841  0.00  0.00    +0.020 A 
ENDBRANCH  15  16
ENDBRANCH  13  15
ENDBRANCH   1  10
BRANCH   4  22
ATOM     22  C   LIG    1        0.481   0.198   2.763  0.00  0.00    +0.290 C 
BRANCH  22  23
ATOM     23  C   LIG    1        0.105   1.627   2.366  0.00  0.00    +0.260 C 
BRANCH  23  24
ATOM     24  N   LIG    1       -0.766   1.593   1.183  0.00  0.00    -0.390 N 
ATOM     25  C   LIG    1       -0.013   1.086   0.008  0.00  0.00    +0.270 C 
ATOM     26  C   LIG    1       -0.821   1.628  -1.197  0.00  0.00    +0.090 C 
ATOM     27  C   LIG    1       -1.265   3.028  -0.714  0.00  0.00    +0.010 C 
ATOM     28  C   LIG    1       -1.197   2.963   0.823  0.00  0.00    +0.280 C 
ATOM     29  H   LIG    1       -1.571   1.011   1.359  0.00  0.00    +0.430 HD
BRANCH  27  30
ATOM     30  C   LIG    1       -2.696   3.319  -1.170  0.00  0.00    +0.190 C 
BRANCH  30  31
ATOM     31  O   LIG    1       -2.729   3.425  -2.595  0.00  0.00    -0.570 OA
ATOM     32  H   LIG    1       -3.607   3.610  -2.955  0.00  0.00    +0.400 HD
ENDBRANCH  30  31
ENDBRANCH  27  30
ENDBRANCH  23  24
ENDBRANCH  22  23
ENDBRANCH   4  22
TORSDOF 8
