REMARK  Name = ZINCvU00000004zL.0
REMARK                            x       y       z     vdW  Elec       q    Type
REMARK                         _______ _______ _______ _____ _____    ______ ____
ROOT
ATOM      1  N   LIG    1        1.724  -0.933  -5.665  0.00  0.00    -0.630 N 
ATOM      2  H   LIG    1        2.381  -1.587  -5.379  0.00  0.00    +0.430 HD
ATOM      3  C   LIG    1        0.835  -0.439  -4.780  0.00  0.00    +0.550 C 
ATOM      4  O   LIG    1        0.011   0.382  -5.139  0.00  0.00    -0.470 OA
ENDROOT
BRANCH   1  10
ATOM      5  C   LIG    1        1.470   1.072 -11.489  0.00  0.00    +0.150 A 
ATOM      6  C   LIG    1        0.442   1.763 -10.856  0.00  0.00    -0.040 A 
ATOM      7  C   LIG    1        0.191   1.571  -9.521  0.00  0.00    +0.120 A 
ATOM      8  C   LIG    1        0.970   0.667  -8.769  0.00  0.00    +0.070 A 
ATOM      9  N   LIG    1        0.866   0.349  -7.462  0.00  0.00    -0.460 NA
ATOM     10  C   LIG    1        1.698  -0.508  -6.982  0.00  0.00    +0.330 A 
ATOM     11  S   LIG    1        2.794  -1.067  -8.238  0.00  0.00    +0.070 S 
ATOM     12  C   LIG    1        2.001  -0.023  -9.415  0.00  0.00    -0.140 A 
ATOM     13  C   LIG    1        2.245   0.182 -10.770  0.00  0.00    +0.030 A 
BRANCH   5  14
ATOM     14  O   LIG    1        1.712   1.272 -12.812  0.00  0.00    -0.310 OA
BRANCH  14  16
ATOM     15  C   LIG    1        1.291   2.297 -14.960  0.00  0.00    +0.070 C 
ATOM     16  C   LIG    1        0.871   2.206 -13.491  0.00  0.00    +0.190 C 
ENDBRANCH  14  16
ENDBRANCH   5  14
ENDBRANCH   1  10
BRANCH   3  17
ATOM     17  C   LIG    1        0.861  -0.874  -3.433  0.00  0.00    -0.090 C 
ATOM     18  C   LIG    1       -0.030  -0.378  -2.545  0.00  0.00    +0.200 C 
BRANCH  18  19
ATOM     19  C   LIG    1       -0.003  -0.829  -1.148  0.00  0.00    -0.200 A 
ATOM     20  C   LIG    1        0.024  -2.142  -0.707  0.00  0.00    +0.140 A 
ATOM     21  N   LIG    1        0.036  -2.112   0.640  0.00  0.00    -0.300 N 
ATOM     22  N   LIG    1        0.022  -0.775   1.054  0.00  0.00    -0.260 NA
ATOM     23 CL   LIG    1        0.034  -3.563  -1.705  0.00  0.00    +0.020 Cl
ATOM     24  C   LIG    1        0.002  -0.004   0.002  0.00  0.00    +0.120 A 
ATOM     25  C   LIG    1       -0.018   1.503   0.010  0.00  0.00    +0.180 C 
BRANCH  21  26
ATOM     26  C   LIG    1        0.059  -3.231   1.484  0.00  0.00    +0.120 A 
ATOM     27  C   LIG    1       -0.623  -4.386   1.126  0.00  0.00    +0.050 A 
ATOM     28  C   LIG    1       -0.594  -5.489   1.956  0.00  0.00    +0.020 A 
ATOM     29  C   LIG    1        0.104  -5.440   3.151  0.00  0.00    +0.110 A 
ATOM     30  C   LIG    1        0.781  -4.287   3.512  0.00  0.00    +0.020 A 
ATOM     31  F   LIG    1        0.127  -6.518   3.965  0.00  0.00    -0.130 F 
ATOM     32  C   LIG    1        0.759  -3.183   2.682  0.00  0.00    +0.080 A 
ENDBRANCH  21  26
ENDBRANCH  18  19
ENDBRANCH   3  17
TORSDOF 6
