REMARK  Name = ZINCrD00000kZCot.0
REMARK                            x       y       z     vdW  Elec       q    Type
REMARK                         _______ _______ _______ _____ _____    ______ ____
ROOT
ATOM      1  C   LIG    1       -1.184  -2.067  -0.099  0.00  0.00    +0.520 C 
ATOM      2  N   LIG    1       -1.201  -0.723   0.010  0.00  0.00    -0.660 N 
ATOM      3  H   LIG    1       -2.046  -0.254   0.086  0.00  0.00    +0.420 HD
ATOM      4  O   LIG    1       -0.126  -2.660  -0.113  0.00  0.00    -0.520 OA
ENDROOT
BRANCH   2   5
ATOM      5  C   LIG    1        0.003  -0.005   0.013  0.00  0.00    +0.170 A 
ATOM      6  C   LIG    1        1.134  -0.547   0.603  0.00  0.00    +0.020 A 
ATOM      7  C   LIG    1        2.320   0.164   0.606  0.00  0.00    +0.030 A 
ATOM      8  C   LIG    1        2.382   1.415   0.022  0.00  0.00    +0.010 A 
ATOM      9  C   LIG    1        1.259   1.963  -0.569  0.00  0.00    -0.010 A 
ATOM     10  C   LIG    1        0.065   1.258  -0.576  0.00  0.00    +0.060 A 
BRANCH  10  11
ATOM     11  N   LIG    1       -1.071   1.808  -1.178  0.00  0.00    -0.500 N 
ATOM     12  C   LIG    1       -0.864   1.999  -2.621  0.00  0.00    +0.160 C 
ATOM     13  C   LIG    1       -2.149   2.546  -3.248  0.00  0.00    +0.220 C 
ATOM     14  O   LIG    1       -2.515   3.760  -2.589  0.00  0.00    -0.380 OA
ATOM     15  C   LIG    1       -2.726   3.611  -1.182  0.00  0.00    +0.220 C 
ATOM     16  C   LIG    1       -1.447   3.075  -0.534  0.00  0.00    +0.160 C 
ENDBRANCH  10  11
ENDBRANCH   2   5
BRANCH   1  17
ATOM     17  C   LIG    1       -2.478  -2.831  -0.204  0.00  0.00    +0.080 C 
BRANCH  17  18
ATOM     18  C   LIG    1       -2.179  -4.327  -0.316  0.00  0.00    +0.220 C 
BRANCH  18  19
ATOM     19  O   LIG    1       -3.407  -5.052  -0.415  0.00  0.00    -0.320 OA
BRANCH  19  23
ATOM     20  C   LIG    1       -3.139  -9.158  -0.743  0.00  0.00    +0.100 A 
ATOM     21  C   LIG    1       -4.382  -8.543  -0.733  0.00  0.00    +0.030 A 
ATOM     22  C   LIG    1       -4.471  -7.169  -0.623  0.00  0.00    +0.030 A 
ATOM     23  C   LIG    1       -3.319  -6.404  -0.523  0.00  0.00    +0.090 A 
ATOM     24  C   LIG    1       -2.075  -7.019  -0.538  0.00  0.00    -0.040 A 
ATOM     25  C   LIG    1       -1.986  -8.393  -0.643  0.00  0.00    -0.040 A 
BRANCH  20  26
ATOM     26  O   LIG    1       -3.050 -10.511  -0.851  0.00  0.00    -0.320 OA
BRANCH  26  28
ATOM     27  C   LIG    1       -1.839 -12.598  -0.983  0.00  0.00    +0.070 C 
ATOM     28  C   LIG    1       -1.738 -11.077  -0.855  0.00  0.00    +0.170 C 
ENDBRANCH  26  28
ENDBRANCH  20  26
ENDBRANCH  19  23
ENDBRANCH  18  19
ENDBRANCH  17  18
ENDBRANCH   1  17
TORSDOF 8
