REMARK  Name = ZINCrD000000AjXB.0
REMARK                            x       y       z     vdW  Elec       q    Type
REMARK                         _______ _______ _______ _____ _____    ______ ____
ROOT
ATOM      1  O   LIG    1        3.787   7.478   0.397  0.00  0.00    -0.540 OA
ATOM      2  C   LIG    1        3.603   6.897   1.446  0.00  0.00    +0.520 C 
ATOM      3  N   LIG    1        3.829   7.530   2.614  0.00  0.00    -0.730 N 
ATOM      4  H   LIG    1        3.682   7.066   3.454  0.00  0.00    +0.400 HD
ENDROOT
BRANCH   3   5
ATOM      5  C   LIG    1        4.296   8.919   2.617  0.00  0.00    +0.290 C 
BRANCH   5   6
ATOM      6  C   LIG    1        4.472   9.395   4.060  0.00  0.00    -0.010 C 
ATOM      7  C   LIG    1        5.884   9.768   4.513  0.00  0.00    +0.000 C 
ATOM      8  C   LIG    1        6.965   9.937   3.474  0.00  0.00    -0.070 A 
ATOM      9  C   LIG    1        8.120   9.197   3.266  0.00  0.00    +0.020 A 
ATOM     10  C   LIG    1        8.987   9.529   2.244  0.00  0.00    +0.010 A 
ATOM     11  C   LIG    1        8.703  10.604   1.422  0.00  0.00    +0.020 A 
ATOM     12  C   LIG    1        7.553  11.341   1.627  0.00  0.00    +0.010 A 
ATOM     13  C   LIG    1        6.682  11.008   2.654  0.00  0.00    -0.090 A 
ATOM     14  C   LIG    1        5.383  11.659   3.065  0.00  0.00    +0.120 C 
ATOM     15  C   LIG    1        4.838  10.865   4.279  0.00  0.00    -0.010 C 
ENDBRANCH   5   6
ENDBRANCH   3   5
BRANCH   2  16
ATOM     16  C   LIG    1        3.123   5.469   1.443  0.00  0.00    +0.040 C 
BRANCH  16  17
ATOM     17  C   LIG    1        2.947   4.993   0.000  0.00  0.00    +0.370 C 
BRANCH  17  18
ATOM     18  N   LIG    1        2.480   3.604  -0.003  0.00  0.00    -0.550 N 
ATOM     19  C   LIG    1        3.256   2.502  -0.015  0.00  0.00    +0.640 A 
ATOM     20  O   LIG    1        2.479   1.408  -0.014  0.00  0.00    -0.230 OA
ATOM     21  C   LIG    1        1.177   1.786   0.000  0.00  0.00    +0.050 A 
ATOM     22  C   LIG    1       -0.013   1.076   0.008  0.00  0.00    +0.080 A 
ATOM     23  C   LIG    1       -1.219   1.752   0.017  0.00  0.00    -0.030 A 
ATOM     24  C   LIG    1       -1.243   3.136   0.030  0.00  0.00    +0.070 A 
ATOM     25  C   LIG    1       -0.061   3.852   0.022  0.00  0.00    +0.060 A 
ATOM     26 CL   LIG    1       -2.709   0.861   0.019  0.00  0.00    -0.040 Cl
ATOM     27  O   LIG    1        4.472   2.500  -0.027  0.00  0.00    -0.470 OA
ATOM     28  C   LIG    1        1.151   3.181   0.008  0.00  0.00    +0.080 A 
ENDBRANCH  17  18
ENDBRANCH  16  17
ENDBRANCH   2  16
TORSDOF 5
