REMARK  Name = ZINCkj000005iBIM.0
REMARK                            x       y       z     vdW  Elec       q    Type
REMARK                         _______ _______ _______ _____ _____    ______ ____
ROOT
ATOM      1  S   LIG    1        2.177   0.838   6.188  0.00  0.00    +2.700 S 
ATOM      2  O   LIG    1        1.672   1.879   7.012  0.00  0.00    -0.940 OA
ATOM      3  O   LIG    1        3.526   0.780   5.747  0.00  0.00    -0.940 OA
ENDROOT
BRANCH   1   7
ATOM      4  C   LIG    1       -0.391   0.800   2.457  0.00  0.00    +0.200 A 
ATOM      5  C   LIG    1       -0.904   1.290   3.649  0.00  0.00    -0.100 A 
ATOM      6  C   LIG    1       -0.120   1.296   4.787  0.00  0.00    +0.070 A 
ATOM      7  C   LIG    1        1.178   0.823   4.736  0.00  0.00    -0.730 A 
ATOM      8  C   LIG    1        1.694   0.339   3.548  0.00  0.00    +0.060 A 
ATOM      9  C   LIG    1        3.109  -0.176   3.496  0.00  0.00    +0.120 C 
ATOM     10  C   LIG    1       -0.679   1.824   6.083  0.00  0.00    +0.110 C 
ATOM     11  C   LIG    1        0.912   0.326   2.409  0.00  0.00    -0.040 A 
BRANCH   4  13
ATOM     12  C   LIG    1       -2.493   1.292   1.462  0.00  0.00    +0.250 C 
ATOM     13  O   LIG    1       -1.161   0.789   1.338  0.00  0.00    -0.310 OA
ENDBRANCH   4  13
ENDBRANCH   1   7
BRANCH   1  14
ATOM     14  N   LIG    1        1.888  -0.579   6.995  0.00  0.00    -1.140 NA
ATOM     15  H   LIG    1        1.469  -0.562   7.870  0.00  0.00    +0.410 HD
BRANCH  14  16
ATOM     16  C   LIG    1        2.267  -1.858   6.389  0.00  0.00    +0.320 C 
BRANCH  16  17
ATOM     17  C   LIG    1        2.247  -2.954   7.457  0.00  0.00    +0.170 C 
ATOM     18  C   LIG    1        2.466  -4.332   6.798  0.00  0.00    +0.090 C 
ATOM     19  C   LIG    1        1.512  -5.258   7.599  0.00  0.00    +0.080 C 
ATOM     20  C   LIG    1        0.316  -4.312   7.873  0.00  0.00    +0.270 C 
ATOM     21  N   LIG    1        0.928  -2.989   8.115  0.00  0.00    -0.520 N 
ATOM     22  H   LIG    1        0.337  -2.268   7.730  0.00  0.00    +0.430 HD
ATOM     23  H   LIG    1        1.040  -2.843   9.107  0.00  0.00    +0.430 HD
ENDBRANCH  16  17
ENDBRANCH  14  16
ENDBRANCH   1  14
TORSDOF 5
