REMARK  Name = ZINCvU0000000AeM.1
REMARK                            x       y       z     vdW  Elec       q    Type
REMARK                         _______ _______ _______ _____ _____    ______ ____
ROOT
ATOM      1  C   LIG    1        0.117  -1.970   2.414  0.00  0.00    +0.100 A 
ATOM      2  C   LIG    1        0.084  -0.605   2.177  0.00  0.00    -0.040 A 
ATOM      3  C   LIG    1        0.023  -0.130   0.880  0.00  0.00    -0.070 A 
ATOM      4  C   LIG    1       -0.011  -1.013  -0.182  0.00  0.00    +0.040 A 
ATOM      5  C   LIG    1        0.028  -2.376   0.047  0.00  0.00    -0.030 A 
ATOM      6  C   LIG    1        0.089  -2.859   1.343  0.00  0.00    +0.100 A 
ENDROOT
BRANCH   1   8
ATOM      7  C   LIG    1        0.205  -1.468   4.737  0.00  0.00    +0.230 C 
ATOM      8  O   LIG    1        0.178  -2.439   3.688  0.00  0.00    -0.310 OA
ENDBRANCH   1   8
BRANCH   3   9
ATOM      9  C   LIG    1       -0.014   1.355   0.625  0.00  0.00    +0.230 C 
BRANCH   9  10
ATOM     10  N   LIG    1        1.358   1.862   0.485  0.00  0.00    -0.530 NA
ATOM     11  C   LIG    1        2.094   1.746   1.752  0.00  0.00    +0.180 C 
ATOM     12  C   LIG    1        3.538   2.209   1.544  0.00  0.00    +0.180 C 
ATOM     13  N   LIG    1        3.540   3.597   1.062  0.00  0.00    -0.530 NA
ATOM     14  C   LIG    1        2.804   3.713  -0.205  0.00  0.00    +0.180 C 
ATOM     15  C   LIG    1        1.360   3.250   0.003  0.00  0.00    +0.180 C 
BRANCH  13  16
ATOM     16  C   LIG    1        4.912   4.104   0.923  0.00  0.00    +0.190 C 
BRANCH  16  17
ATOM     17  C   LIG    1        4.891   5.633   0.901  0.00  0.00    +0.170 C 
BRANCH  17  18
ATOM     18  O   LIG    1        4.427   6.121   2.161  0.00  0.00    -0.370 OA
BRANCH  18  19
ATOM     19  C   LIG    1        4.369   7.546   2.247  0.00  0.00    +0.140 C 
ATOM     20  C   LIG    1        5.705   8.081   2.768  0.00  0.00    -0.010 C 
ATOM     21  C   LIG    1        3.248   7.955   3.205  0.00  0.00    +0.040 C 
ENDBRANCH  18  19
ENDBRANCH  17  18
ENDBRANCH  16  17
ENDBRANCH  13  16
ENDBRANCH   9  10
ENDBRANCH   3   9
BRANCH   6  22
ATOM     22  O   LIG    1        0.122  -4.200   1.570  0.00  0.00    -0.300 OA
BRANCH  22  23
ATOM     23  C   LIG    1        0.090  -5.053   0.424  0.00  0.00    +0.260 C 
BRANCH  23  24
ATOM     24  C   LIG    1        0.134  -6.492   0.868  0.00  0.00    -0.080 A 
ATOM     25  C   LIG    1        0.201  -6.798   2.214  0.00  0.00    +0.080 A 
ATOM     26  C   LIG    1        0.235  -8.119   2.623  0.00  0.00    +0.040 A 
ATOM     27  C   LIG    1        0.214  -9.134   1.683  0.00  0.00    -0.020 A 
ATOM     28  C   LIG    1        0.153  -8.828   0.335  0.00  0.00    +0.050 A 
ATOM     29 CL   LIG    1        0.264 -10.792   2.196  0.00  0.00    -0.050 Cl
ATOM     30  C   LIG    1        0.113  -7.507  -0.072  0.00  0.00    -0.020 A 
ATOM     31 CL   LIG    1        0.037  -7.122  -1.763  0.00  0.00    -0.050 Cl
ENDBRANCH  23  24
ENDBRANCH  22  23
ENDBRANCH   6  22
TORSDOF 10
