REMARK  Name = ZINCrg000000rQlx.0
REMARK                            x       y       z     vdW  Elec       q    Type
REMARK                         _______ _______ _______ _____ _____    ______ ____
ROOT
ATOM      1  C   LIG    1       -1.333  -2.688  -1.353  0.00  0.00    +0.060 C 
ATOM      2  C   LIG    1       -1.132  -2.196   0.082  0.00  0.00    +0.270 C 
ATOM      3  N   LIG    1        0.177  -2.643   0.582  0.00  0.00    -0.740 N 
ATOM      4  H   LIG    1        0.249  -3.399   1.185  0.00  0.00    +0.420 HD
ATOM      5  C   LIG    1        1.315  -1.948   0.163  0.00  0.00    +0.320 C 
ATOM      6  N   LIG    1        1.222  -0.678  -0.119  0.00  0.00    -0.270 NA
ATOM      7  N   LIG    1        0.002  -0.004   0.002  0.00  0.00    -0.390 N 
ATOM      8  C   LIG    1       -1.155  -0.686   0.117  0.00  0.00    +0.490 C 
ATOM      9  O   LIG    1       -2.205  -0.093   0.243  0.00  0.00    -0.500 OA
ENDROOT
BRANCH   7  10
ATOM     10  C   LIG    1       -0.017   1.395   0.010  0.00  0.00    +0.150 A 
ATOM     11  C   LIG    1       -0.902   2.084  -0.809  0.00  0.00    +0.020 A 
ATOM     12  C   LIG    1       -0.922   3.465  -0.795  0.00  0.00    +0.020 A 
ATOM     13  C   LIG    1       -0.054   4.162   0.025  0.00  0.00    +0.010 A 
ATOM     14  C   LIG    1        0.832   3.479   0.838  0.00  0.00    +0.020 A 
ATOM     15  C   LIG    1        0.854   2.099   0.832  0.00  0.00    +0.020 A 
ENDBRANCH   7  10
BRANCH   5  16
ATOM     16  C   LIG    1        2.609  -2.643   0.041  0.00  0.00    +0.580 C 
ATOM     17  N   LIG    1        3.703  -1.967  -0.363  0.00  0.00    -0.680 N 
ATOM     18  H   LIG    1        3.638  -1.022  -0.574  0.00  0.00    +0.430 HD
ATOM     19  O   LIG    1        2.690  -3.828   0.305  0.00  0.00    -0.520 OA
BRANCH  17  20
ATOM     20  C   LIG    1        4.989  -2.658  -0.484  0.00  0.00    +0.310 C 
ATOM     21  C   LIG    1        5.726  -2.632   0.838  0.00  0.00    -0.110 A 
ATOM     22  C   LIG    1        5.268  -2.858   2.125  0.00  0.00    +0.040 A 
ATOM     23  C   LIG    1        6.138  -2.778   3.195  0.00  0.00    +0.010 A 
ATOM     24  C   LIG    1        7.468  -2.472   2.982  0.00  0.00    +0.020 A 
ATOM     25  C   LIG    1        7.927  -2.246   1.698  0.00  0.00    +0.010 A 
ATOM     26  C   LIG    1        7.057  -2.325   0.624  0.00  0.00    -0.090 A 
ATOM     27  C   LIG    1        7.305  -2.125  -0.856  0.00  0.00    +0.070 C 
ATOM     28  C   LIG    1        5.906  -1.912  -1.476  0.00  0.00    +0.190 C 
BRANCH  28  29
ATOM     29  O   LIG    1        5.579  -0.522  -1.524  0.00  0.00    -0.560 OA
ATOM     30  H   LIG    1        6.128  -0.010  -2.133  0.00  0.00    +0.390 HD
ENDBRANCH  28  29
ENDBRANCH  17  20
ENDBRANCH   5  16
TORSDOF 4
