REMARK  Name = ZINCpe000000ZsP0.1
REMARK                            x       y       z     vdW  Elec       q    Type
REMARK                         _______ _______ _______ _____ _____    ______ ____
ROOT
ATOM      1  O   LIG    1       -0.593  -3.943  -3.703  0.00  0.00    -0.530 OA
ATOM      2  C   LIG    1       -1.468  -3.465  -3.012  0.00  0.00    +0.520 C 
ATOM      3  N   LIG    1       -1.613  -2.127  -2.939  0.00  0.00    -0.610 N 
ATOM      4  C   LIG    1       -0.722  -1.229  -3.688  0.00  0.00    +0.300 C 
ATOM      5  C   LIG    1       -0.160  -0.182  -2.720  0.00  0.00    +0.170 C 
ATOM      6  N   LIG    1       -1.269   0.483  -2.025  0.00  0.00    -0.530 NA
ATOM      7  C   LIG    1       -2.028  -0.468  -1.201  0.00  0.00    +0.160 C 
ATOM      8  C   LIG    1       -2.667  -1.527  -2.107  0.00  0.00    +0.280 C 
ENDROOT
BRANCH   2   9
ATOM      9  C   LIG    1       -2.392  -4.367  -2.235  0.00  0.00    +0.000 C 
ATOM     10  C   LIG    1       -2.265  -4.113  -0.715  0.00  0.00    +0.070 C 
ATOM     11  C   LIG    1       -1.238  -5.124  -0.255  0.00  0.00    +0.520 C 
ATOM     12  N   LIG    1       -1.077  -6.077  -1.189  0.00  0.00    -0.610 N 
ATOM     13  O   LIG    1       -0.647  -5.081   0.803  0.00  0.00    -0.520 OA
ATOM     14  C   LIG    1       -1.948  -5.842  -2.347  0.00  0.00    +0.290 C 
BRANCH  12  15
ATOM     15  C   LIG    1       -0.149  -7.205  -1.067  0.00  0.00    +0.250 C 
ATOM     16  C   LIG    1       -0.465  -8.013   0.208  0.00  0.00    +0.020 C 
ATOM     17  C   LIG    1        0.925  -8.444   0.739  0.00  0.00    +0.020 C 
ATOM     18  C   LIG    1        1.802  -7.200   0.448  0.00  0.00    +0.010 C 
ATOM     19  C   LIG    1        1.292  -6.688  -0.915  0.00  0.00    +0.010 C 
ENDBRANCH  12  15
ENDBRANCH   2   9
BRANCH   6  20
ATOM     20  C   LIG    1       -0.784   1.609  -1.216  0.00  0.00    +0.150 C 
ATOM     21  C   LIG    1       -1.975   2.398  -0.644  0.00  0.00    +0.030 C 
ATOM     22  C   LIG    1       -1.863   3.833  -1.200  0.00  0.00    +0.020 C 
ATOM     23  C   LIG    1       -0.360   3.989  -1.545  0.00  0.00    -0.010 C 
ATOM     24  C   LIG    1        0.011   2.591  -2.101  0.00  0.00    +0.170 C 
BRANCH  24  25
ATOM     25  O   LIG    1        1.414   2.358  -1.971  0.00  0.00    -0.570 OA
ATOM     26  H   LIG    1        1.962   2.948  -2.506  0.00  0.00    +0.380 HD
ENDBRANCH  24  25
ENDBRANCH   6  20
TORSDOF 4
