REMARK  Name = ZINCqH0000005s0G.0
REMARK                            x       y       z     vdW  Elec       q    Type
REMARK                         _______ _______ _______ _____ _____    ______ ____
ROOT
ATOM      1  N   LIG    1        1.753  -2.875  -1.489  0.00  0.00    -0.960 NA
ENDROOT
BRANCH   1   2
ATOM      2  S   LIG    1        1.412  -2.557   0.100  0.00  0.00    +2.690 S 
ATOM      3  O   LIG    1        0.060  -2.945   0.304  0.00  0.00    -0.940 OA
ATOM      4  O   LIG    1        2.494  -3.083   0.856  0.00  0.00    -0.930 OA
BRANCH   2   5
ATOM      5  C   LIG    1        1.464  -0.808   0.305  0.00  0.00    -0.660 A 
ATOM      6  C   LIG    1        0.305  -0.110   0.585  0.00  0.00    +0.160 A 
ATOM      7  C   LIG    1        0.347   1.264   0.746  0.00  0.00    -0.050 A 
ATOM      8  C   LIG    1        1.549   1.938   0.627  0.00  0.00    +0.110 A 
ATOM      9  C   LIG    1        2.708   1.240   0.348  0.00  0.00    +0.050 A 
ATOM     10 CL   LIG    1       -1.111   2.142   1.090  0.00  0.00    -0.040 Cl
ATOM     11  C   LIG    1        2.667  -0.134   0.187  0.00  0.00    +0.050 A 
ATOM     12 CL   LIG    1        4.123  -1.011  -0.163  0.00  0.00    -0.030 Cl
ENDBRANCH   2   5
ENDBRANCH   1   2
BRANCH   1  13
ATOM     13  C   LIG    1        0.707  -2.736  -2.506  0.00  0.00    +0.210 C 
ATOM     14  C   LIG    1        1.071  -3.094  -3.948  0.00  0.00    +0.050 C 
ATOM     15  C   LIG    1        0.876  -1.629  -3.548  0.00  0.00    +0.020 C 
ENDBRANCH   1  13
BRANCH   1  16
ATOM     16  C   LIG    1        3.102  -3.294  -1.879  0.00  0.00    +0.350 C 
BRANCH  16  20
ATOM     17  C   LIG    1        3.298  -7.565  -1.966  0.00  0.00    -0.130 A 
ATOM     18  C   LIG    1        3.053  -6.850  -3.140  0.00  0.00    +0.080 A 
ATOM     19  C   LIG    1        2.991  -5.473  -3.105  0.00  0.00    +0.020 A 
ATOM     20  C   LIG    1        3.171  -4.799  -1.910  0.00  0.00    -0.090 A 
ATOM     21  C   LIG    1        3.419  -5.501  -0.744  0.00  0.00    +0.030 A 
ATOM     22  C   LIG    1        3.478  -6.879  -0.764  0.00  0.00    +0.040 A 
BRANCH  17  26
ATOM     23  C   LIG    1        3.671 -11.192  -0.892  0.00  0.00    +0.290 C 
ATOM     24  N   LIG    1        3.603  -9.729  -0.862  0.00  0.00    -0.730 N 
ATOM     25  H   LIG    1        3.728  -9.254  -0.025  0.00  0.00    +0.400 HD
ATOM     26  C   LIG    1        3.366  -9.041  -1.997  0.00  0.00    +0.560 C 
ATOM     27  O   LIG    1        3.209  -9.636  -3.046  0.00  0.00    -0.530 OA
ENDBRANCH  17  26
ENDBRANCH  16  20
ENDBRANCH   1  16
TORSDOF 6
