REMARK  Name = ZINCkj00000y7GRd.0
REMARK                            x       y       z     vdW  Elec       q    Type
REMARK                         _______ _______ _______ _____ _____    ______ ____
ROOT
ATOM      1  C   LIG    1        3.498   2.263   0.381  0.00  0.00    +0.500 C 
ATOM      2  N   LIG    1        2.387   1.508   0.281  0.00  0.00    -0.630 N 
ATOM      3  H   LIG    1        2.459   0.542   0.232  0.00  0.00    +0.420 HD
ATOM      4  O   LIG    1        3.405   3.464   0.523  0.00  0.00    -0.510 OA
ENDROOT
BRANCH   2   5
ATOM      5  C   LIG    1        1.126   2.118   0.246  0.00  0.00    +0.030 A 
ATOM      6  C   LIG    1        0.881   3.273   0.986  0.00  0.00    +0.100 A 
ATOM      7  C   LIG    1       -0.380   3.839   0.927  0.00  0.00    +0.010 A 
ATOM      8  C   LIG    1       -1.351   3.246   0.129  0.00  0.00    +0.360 A 
ATOM      9  N   LIG    1       -1.084   2.148  -0.560  0.00  0.00    -0.490 NA
ATOM     10  C   LIG    1        0.105   1.580  -0.524  0.00  0.00    +0.300 A 
BRANCH   8  11
ATOM     11  N   LIG    1       -2.625   3.811   0.059  0.00  0.00    -0.550 N 
ATOM     12  C   LIG    1       -2.824   5.080   0.470  0.00  0.00    +0.520 C 
ATOM     13  O   LIG    1       -1.906   5.712   0.950  0.00  0.00    -0.520 OA
ATOM     14  C   LIG    1       -4.184   5.712   0.333  0.00  0.00    +0.130 C 
ATOM     15  C   LIG    1       -3.747   3.027  -0.462  0.00  0.00    +0.320 C 
ENDBRANCH   8  11
ENDBRANCH   2   5
BRANCH   1  16
ATOM     16  C   LIG    1        4.858   1.615   0.318  0.00  0.00    +0.180 C 
BRANCH  16  17
ATOM     17  N   LIG    1        5.866   2.626  -0.029  0.00  0.00    -0.620 N 
ATOM     18  H   LIG    1        5.643   3.028  -0.927  0.00  0.00    +0.440 HD
ATOM     19  H   LIG    1        6.776   2.192  -0.071  0.00  0.00    +0.440 HD
ATOM     20  H   LIG    1        5.871   3.350   0.673  0.00  0.00    +0.440 HD
ENDBRANCH  16  17
BRANCH  16  21
ATOM     21  C   LIG    1        5.195   1.004   1.680  0.00  0.00    +0.000 C 
ATOM     22  C   LIG    1        4.145  -0.048   2.041  0.00  0.00    +0.070 C 
BRANCH  21  24
ATOM     23  C   LIG    1        6.966  -0.155   3.007  0.00  0.00    +0.040 C 
ATOM     24  C   LIG    1        6.575   0.346   1.615  0.00  0.00    +0.020 C 
ENDBRANCH  21  24
ENDBRANCH  16  21
ENDBRANCH   1  16
TORSDOF 6
