REMARK  Name = ZINCnE000001CjPl.0
REMARK                            x       y       z     vdW  Elec       q    Type
REMARK                         _______ _______ _______ _____ _____    ______ ____
ROOT
ATOM      1  N   LIG    1        1.133   1.899  -0.006  0.00  0.00    -0.680 NA
ATOM      2  C   LIG    1        2.295   1.249  -0.024  0.00  0.00    +0.350 A 
ATOM      3  N   LIG    1        2.484  -0.086  -0.032  0.00  0.00    -0.410 NA
ATOM      4  N   LIG    1        3.791  -0.522  -0.050  0.00  0.00    -0.260 NA
ATOM      5  C   LIG    1        4.717   0.378  -0.058  0.00  0.00    -0.030 A 
ATOM      6  S   LIG    1        3.874   1.936  -0.049  0.00  0.00    -0.080 S 
ENDROOT
BRANCH   1   8
ATOM      7  N   LIG    1       -1.191   1.873   0.018  0.00  0.00    -0.590 N 
ATOM      8  C   LIG    1       -0.014   1.215   0.006  0.00  0.00    +0.670 C 
ATOM      9  O   LIG    1        0.002  -0.004   0.001  0.00  0.00    -0.600 OA
BRANCH   7  10
ATOM     10  C   LIG    1       -1.212   3.333   0.137  0.00  0.00    +0.250 C 
ATOM     11  C   LIG    1       -2.553   3.995   0.461  0.00  0.00    -0.020 C 
ATOM     12  C   LIG    1       -1.959   4.118  -0.944  0.00  0.00    -0.030 C 
ENDBRANCH   7  10
BRANCH   7  13
ATOM     13  C   LIG    1       -2.448   1.127  -0.088  0.00  0.00    +0.320 C 
BRANCH  13  15
ATOM     14  C   LIG    1       -4.133   1.097   1.679  0.00  0.00    -0.030 C 
ATOM     15  C   LIG    1       -2.929   0.756   1.291  0.00  0.00    -0.030 C 
ENDBRANCH  13  15
ENDBRANCH   7  13
ENDBRANCH   1   8
BRANCH   5  16
ATOM     16  C   LIG    1        6.207   0.149  -0.078  0.00  0.00    +0.200 C 
BRANCH  16  17
ATOM     17  C   LIG    1        6.488  -1.331  -0.088  0.00  0.00    -0.060 A 
ATOM     18  C   LIG    1        6.638  -2.013   1.105  0.00  0.00    +0.060 A 
ATOM     19  C   LIG    1        6.891  -3.372   1.098  0.00  0.00    -0.020 A 
ATOM     20  C   LIG    1        7.005  -4.048  -0.105  0.00  0.00    +0.090 A 
ATOM     21  C   LIG    1        6.860  -3.362  -1.300  0.00  0.00    -0.020 A 
ATOM     22  F   LIG    1        7.258  -5.375  -0.114  0.00  0.00    -0.150 F 
ATOM     23  C   LIG    1        6.601  -2.005  -1.290  0.00  0.00    +0.060 A 
ENDBRANCH  16  17
ENDBRANCH   5  16
TORSDOF 6
