REMARK  Name = ZINCah0000002Gpl.0
REMARK                            x       y       z     vdW  Elec       q    Type
REMARK                         _______ _______ _______ _____ _____    ______ ____
ROOT
ATOM      1  C   LIG    1        2.401   0.021  -0.020  0.00  0.00    +0.130 A 
ATOM      2  C   LIG    1        1.206  -0.683  -0.013  0.00  0.00    +0.020 A 
ATOM      3  C   LIG    1        0.002  -0.004   0.002  0.00  0.00    +0.060 A 
ATOM      4  C   LIG    1       -0.017   1.378   0.010  0.00  0.00    +0.030 A 
ATOM      5  C   LIG    1        1.173   2.090   0.002  0.00  0.00    +0.050 A 
ATOM      6  O   LIG    1        1.424   3.432   0.007  0.00  0.00    -0.310 OA
ATOM      7  C   LIG    1        2.792   3.570  -0.418  0.00  0.00    +0.430 C 
ATOM      8  O   LIG    1        3.400   2.327  -0.018  0.00  0.00    -0.300 OA
ATOM      9  C   LIG    1        2.387   1.411  -0.013  0.00  0.00    +0.000 A 
ENDROOT
BRANCH   1  10
ATOM     10  O   LIG    1        3.585  -0.647  -0.035  0.00  0.00    -0.490 OA
ATOM     11  H   LIG    1        3.919  -0.836  -0.923  0.00  0.00    +0.390 HD
ENDBRANCH   1  10
TORSDOF 1
