REMARK  Name = ZINCkj000005haD0.1
REMARK                            x       y       z     vdW  Elec       q    Type
REMARK                         _______ _______ _______ _____ _____    ______ ____
ROOT
ATOM      1  N   LIG    1       -1.163   3.520  -8.194  0.00  0.00    -0.670 NA
ATOM      2  H   LIG    1       -2.111   3.599  -8.006  0.00  0.00    +0.440 HD
ENDROOT
BRANCH   1   7
ATOM      3  C   LIG    1       -1.107   4.415 -11.642  0.00  0.00    +0.510 C 
ATOM      4  C   LIG    1        0.257   4.305 -11.923  0.00  0.00    -0.090 C 
ATOM      5  C   LIG    1        1.110   3.924 -10.906  0.00  0.00    +0.420 C 
ATOM      6  N   LIG    1        0.615   3.676  -9.702  0.00  0.00    -0.580 NA
ATOM      7  C   LIG    1       -0.684   3.789  -9.464  0.00  0.00    +0.660 C 
ATOM      8  H   LIG    1        1.211   3.408  -8.986  0.00  0.00    +0.440 HD
ATOM      9  N   LIG    1       -1.536   4.146 -10.413  0.00  0.00    -0.580 NA
BRANCH   3  11
ATOM     10  C   LIG    1       -1.533   4.976 -14.008  0.00  0.00    +0.330 C 
ATOM     11  N   LIG    1       -1.999   4.794 -12.631  0.00  0.00    -0.550 NA
ATOM     12  C   LIG    1       -3.410   5.013 -12.300  0.00  0.00    +0.330 C 
ENDBRANCH   3  11
ENDBRANCH   1   7
BRANCH   1  13
ATOM     13  C   LIG    1       -0.237   3.118  -7.132  0.00  0.00    +0.280 C 
BRANCH  13  14
ATOM     14  C   LIG    1       -1.017   2.884  -5.837  0.00  0.00    +0.050 C 
BRANCH  14  15
ATOM     15  C   LIG    1       -0.051   2.463  -4.728  0.00  0.00    +0.190 C 
BRANCH  15  16
ATOM     16  O   LIG    1       -0.779   2.244  -3.518  0.00  0.00    -0.380 OA
BRANCH  16  17
ATOM     17  C   LIG    1        0.035   1.845  -2.414  0.00  0.00    +0.190 C 
BRANCH  17  18
ATOM     18  C   LIG    1       -0.846   1.641  -1.179  0.00  0.00    -0.020 C 
ATOM     19  C   LIG    1       -0.013   1.086   0.008  0.00  0.00    +0.020 C 
ATOM     20  C   LIG    1       -0.821   1.627   1.214  0.00  0.00    +0.210 C 
ATOM     21  O   LIG    1       -1.283   2.924   0.804  0.00  0.00    -0.380 OA
ATOM     22  C   LIG    1       -1.346   2.992  -0.625  0.00  0.00    +0.200 C 
ENDBRANCH  17  18
ENDBRANCH  16  17
ENDBRANCH  15  16
ENDBRANCH  14  15
ENDBRANCH  13  14
ENDBRANCH   1  13
TORSDOF 8
