REMARK  Name = ZINCpk00000xRYfh.0
REMARK                            x       y       z     vdW  Elec       q    Type
REMARK                         _______ _______ _______ _____ _____    ______ ____
ROOT
ATOM      1  C   LIG    1        2.010  -0.394  -2.613  0.00  0.00    +0.020 C 
ATOM      2  C   LIG    1        2.850   0.749  -2.038  0.00  0.00    +0.100 C 
ATOM      3  C   LIG    1        2.354   1.095  -0.625  0.00  0.00    +0.290 C 
ATOM      4  N   LIG    1        1.006   1.674  -0.740  0.00  0.00    -0.600 N 
ATOM      5  C   LIG    1        0.806   2.777  -1.694  0.00  0.00    +0.260 C 
ATOM      6  C   LIG    1        1.378   2.352  -3.051  0.00  0.00    +0.160 C 
ATOM      7  C   LIG    1       -0.014   1.211   0.009  0.00  0.00    +0.570 C 
ATOM      8  O   LIG    1        0.144   0.234   0.713  0.00  0.00    -0.510 OA
ATOM      9  C   LIG    1        4.318   0.323  -1.974  0.00  0.00    +0.080 C 
ATOM     10  O   LIG    1        2.724   1.902  -2.874  0.00  0.00    -0.350 OA
ENDROOT
BRANCH   7  11
ATOM     11  C   LIG    1       -1.333   1.891  -0.032  0.00  0.00    -0.090 A 
ATOM     12  C   LIG    1       -2.512   1.165   0.015  0.00  0.00    +0.070 A 
ATOM     13  C   LIG    1       -3.728   1.889  -0.028  0.00  0.00    +0.480 A 
ATOM     14  N   LIG    1       -3.693   3.232  -0.111  0.00  0.00    -0.440 N 
ATOM     15  H   LIG    1       -4.530   3.723  -0.140  0.00  0.00    +0.440 HD
ATOM     16  N   LIG    1       -2.589   3.883  -0.153  0.00  0.00    -0.210 NA
ATOM     17  O   LIG    1       -4.797   1.301   0.011  0.00  0.00    -0.510 OA
ATOM     18  C   LIG    1       -1.424   3.299  -0.114  0.00  0.00    +0.230 A 
ENDBRANCH   7  11
BRANCH   6  19
ATOM     19  C   LIG    1        1.361   3.546  -4.008  0.00  0.00    +0.230 C 
BRANCH  19  20
ATOM     20  O   LIG    1        1.785   3.122  -5.306  0.00  0.00    -0.300 OA
BRANCH  20  21
ATOM     21  C   LIG    1        1.826   4.067  -6.281  0.00  0.00    +0.130 A 
ATOM     22  C   LIG    1        1.460   5.375  -5.997  0.00  0.00    -0.080 A 
ATOM     23  C   LIG    1        1.508   6.335  -6.989  0.00  0.00    +0.050 A 
ATOM     24  C   LIG    1        1.910   5.992  -8.266  0.00  0.00    -0.040 A 
ATOM     25  C   LIG    1        2.269   4.688  -8.553  0.00  0.00    +0.050 A 
ATOM     26  C   LIG    1        2.228   3.725  -7.564  0.00  0.00    -0.020 A 
ENDBRANCH  20  21
ENDBRANCH  19  20
ENDBRANCH   6  19
TORSDOF 4
