REMARK  Name = ZINC9p0000002hYU.0
REMARK                            x       y       z     vdW  Elec       q    Type
REMARK                         _______ _______ _______ _____ _____    ______ ____
ROOT
ATOM      1  C   LIG    1        1.402   3.145   0.006  0.00  0.00    +0.040 C 
ATOM      2  C   LIG    1        1.423   1.615  -0.003  0.00  0.00    -0.080 C 
ATOM      3  C   LIG    1        2.139   1.122  -1.262  0.00  0.00    +0.060 C 
ATOM      4  C   LIG    1        1.399   1.629  -2.501  0.00  0.00    +0.020 C 
ATOM      5  C   LIG    1       -0.037   1.099  -2.490  0.00  0.00    +0.040 C 
ATOM      6  C   LIG    1       -0.753   1.593  -1.232  0.00  0.00    +0.040 C 
ATOM      7  C   LIG    1        2.163   1.109   1.237  0.00  0.00    +0.040 C 
ATOM      8  C   LIG    1       -0.013   1.086   0.008  0.00  0.00    +0.170 C 
ENDROOT
BRANCH   8   9
ATOM      9  N   LIG    1       -0.700   1.560   1.217  0.00  0.00    -0.640 N 
ATOM     10  H   LIG    1       -0.212   1.225   2.034  0.00  0.00    +0.430 HD
ATOM     11  H   LIG    1       -1.647   1.210   1.224  0.00  0.00    +0.440 HD
ATOM     12  H   LIG    1       -0.714   2.568   1.222  0.00  0.00    +0.430 HD
ENDBRANCH   8   9
TORSDOF 1
