REMARK  Name = ZINCpe000027pHh3.0
REMARK                            x       y       z     vdW  Elec       q    Type
REMARK                         _______ _______ _______ _____ _____    ______ ____
ROOT
ATOM      1  C   LIG    1        1.217   1.625  -0.026  0.00  0.00    +0.180 A 
ATOM      2  C   LIG    1        1.256   3.009  -0.148  0.00  0.00    +0.030 A 
ATOM      3  C   LIG    1        2.468   3.675  -0.177  0.00  0.00    +0.130 A 
ATOM      4  C   LIG    1        3.652   2.957  -0.095  0.00  0.00    -0.160 A 
ATOM      5  C   LIG    1        5.081   3.326  -0.100  0.00  0.00    +0.580 C 
ATOM      6  N   LIG    1        5.815   2.204   0.009  0.00  0.00    -0.570 N 
ATOM      7  C   LIG    1        5.028   1.116   0.087  0.00  0.00    +0.580 C 
ATOM      8  O   LIG    1        5.413  -0.032   0.192  0.00  0.00    -0.440 OA
ATOM      9  O   LIG    1        5.521   4.455  -0.189  0.00  0.00    -0.460 OA
ATOM     10  C   LIG    1        3.617   1.551   0.024  0.00  0.00    -0.110 A 
ATOM     11  C   LIG    1        2.401   0.893   0.058  0.00  0.00    +0.110 A 
ENDROOT
BRANCH   6  12
ATOM     12  C   LIG    1        7.279   2.172   0.039  0.00  0.00    +0.270 C 
ATOM     13  C   LIG    1        7.863   2.821  -1.232  0.00  0.00    +0.100 C 
ATOM     14  C   LIG    1        8.660   3.993  -0.694  0.00  0.00    +0.540 C 
ATOM     15  N   LIG    1        8.561   4.019   0.641  0.00  0.00    -0.670 N 
ATOM     16  H   LIG    1        8.998   4.690   1.188  0.00  0.00    +0.420 HD
ATOM     17  O   LIG    1        9.290   4.782  -1.366  0.00  0.00    -0.470 OA
ATOM     18  C   LIG    1        7.808   3.040   1.160  0.00  0.00    +0.530 C 
ATOM     19  O   LIG    1        7.586   2.876   2.340  0.00  0.00    -0.460 OA
ENDBRANCH   6  12
BRANCH   1  21
ATOM     20  C   LIG    1       -0.140  -0.247  -0.566  0.00  0.00    +0.510 C 
ATOM     21  N   LIG    1       -0.011   0.966   0.007  0.00  0.00    -0.680 N 
ATOM     22  H   LIG    1       -0.771   1.378   0.447  0.00  0.00    +0.420 HD
ATOM     23  O   LIG    1        0.829  -0.799  -1.042  0.00  0.00    -0.510 OA
BRANCH  20  24
ATOM     24  C   LIG    1       -1.489  -0.917  -0.616  0.00  0.00    +0.060 C 
BRANCH  24  25
ATOM     25  C   LIG    1       -1.360  -2.272  -1.314  0.00  0.00    +0.030 C 
BRANCH  25  27
ATOM     26  C   LIG    1       -2.600  -4.308  -2.063  0.00  0.00    +0.030 C 
ATOM     27  C   LIG    1       -2.730  -2.952  -1.365  0.00  0.00    +0.000 C 
ENDBRANCH  25  27
ENDBRANCH  24  25
ENDBRANCH  20  24
ENDBRANCH   1  21
TORSDOF 5
