REMARK  Name = ZINCtV00000L6kwg.0
REMARK                            x       y       z     vdW  Elec       q    Type
REMARK                         _______ _______ _______ _____ _____    ______ ____
ROOT
ATOM      1  C   LIG    1        2.232   6.335   0.018  0.00  0.00    +0.150 A 
ATOM      2  C   LIG    1        3.234   5.387   0.186  0.00  0.00    +0.020 A 
ATOM      3  C   LIG    1        2.922   4.044   0.189  0.00  0.00    +0.080 A 
ATOM      4  C   LIG    1        1.599   3.637   0.022  0.00  0.00    -0.040 A 
ATOM      5  C   LIG    1        0.595   4.590  -0.153  0.00  0.00    +0.050 A 
ATOM      6  C   LIG    1        0.912   5.932  -0.149  0.00  0.00    -0.010 A 
ENDROOT
BRANCH   4   7
ATOM      7  C   LIG    1        1.260   2.193   0.023  0.00  0.00    +0.130 A 
ATOM      8  C   LIG    1       -0.000   1.750  -0.134  0.00  0.00    -0.110 A 
ATOM      9  S   LIG    1        0.023  -0.011  -0.073  0.00  0.00    +0.210 S 
ATOM     10  C   LIG    1        1.768   0.020   0.164  0.00  0.00    +0.270 A 
ATOM     11  N   LIG    1        2.178   1.250   0.180  0.00  0.00    -0.490 NA
BRANCH  10  12
ATOM     12  N   LIG    1        2.577  -1.098   0.311  0.00  0.00    -0.620 N 
ATOM     13  H   LIG    1        3.533  -0.991   0.437  0.00  0.00    +0.420 HD
ATOM     14  C   LIG    1        2.035  -2.331   0.278  0.00  0.00    +0.600 C 
ATOM     15  O   LIG    1        0.836  -2.465   0.119  0.00  0.00    -0.480 OA
BRANCH  14  16
ATOM     16  C   LIG    1        2.889  -3.511   0.433  0.00  0.00    -0.270 A 
ATOM     17  C   LIG    1        2.459  -4.809   0.417  0.00  0.00    +0.140 A 
ATOM     18  C   LIG    1        3.474  -5.720   0.585  0.00  0.00    +0.050 A 
ATOM     19  C   LIG    1        4.696  -5.188   0.733  0.00  0.00    -0.210 A 
ATOM     20 BR   LIG    1        6.278  -6.193   0.981  0.00  0.00    +0.030 Br
ATOM     21  S   LIG    1        4.632  -3.485   0.662  0.00  0.00    +0.270 S 
ENDBRANCH  14  16
ENDBRANCH  10  12
ENDBRANCH   4   7
BRANCH   1  24
ATOM     22  O   LIG    1        4.477   7.314  -1.025  0.00  0.00    -0.500 OA
ATOM     23  C   LIG    1        3.731   8.111  -0.487  0.00  0.00    +0.590 C 
ATOM     24  N   LIG    1        2.551   7.696   0.016  0.00  0.00    -0.670 N 
ATOM     25  H   LIG    1        1.923   8.342   0.376  0.00  0.00    +0.410 HD
BRANCH  23  26
ATOM     26  C   LIG    1        4.115   9.520  -0.385  0.00  0.00    -0.260 A 
ATOM     27  C   LIG    1        5.283  10.059  -0.849  0.00  0.00    +0.130 A 
ATOM     28  C   LIG    1        5.385  11.411  -0.624  0.00  0.00    +0.050 A 
ATOM     29  C   LIG    1        4.342  11.961   0.012  0.00  0.00    -0.220 A 
ATOM     30 BR   LIG    1        4.206  13.793   0.462  0.00  0.00    +0.030 Br
ATOM     31  S   LIG    1        3.153  10.789   0.361  0.00  0.00    +0.260 S 
ENDBRANCH  23  26
ENDBRANCH   1  24
TORSDOF 5
