REMARK  Name = ZINCb80000003Wta.0
REMARK                            x       y       z     vdW  Elec       q    Type
REMARK                         _______ _______ _______ _____ _____    ______ ____
ROOT
ATOM      1  C   LIG    1       -0.022   1.758   0.012  0.00  0.00    -0.650 A 
ATOM      2  C   LIG    1        1.075   2.504   0.005  0.00  0.00    +0.080 A 
ATOM      3  S   LIG    1        0.664   4.210   0.018  0.00  0.00    +0.240 S 
ATOM      4  C   LIG    1       -1.008   3.884   0.033  0.00  0.00    -0.010 A 
ATOM      5  C   LIG    1       -1.239   2.538   0.021  0.00  0.00    -0.150 A 
ENDROOT
BRANCH   1   6
ATOM      6  S   LIG    1        0.002  -0.004   0.002  0.00  0.00    +2.720 S 
ATOM      7  O   LIG    1        1.370  -0.387   0.022  0.00  0.00    -0.970 OA
ATOM      8  O   LIG    1       -0.904  -0.412  -1.014  0.00  0.00    -0.940 OA
BRANCH   6   9
ATOM      9  N   LIG    1       -0.647  -0.511   1.439  0.00  0.00    -1.240 NA
ATOM     10  H   LIG    1       -0.553   0.037   2.234  0.00  0.00    +0.410 HD
ATOM     11  H   LIG    1       -1.120  -1.356   1.486  0.00  0.00    +0.420 HD
ENDBRANCH   6   9
ENDBRANCH   1   6
BRANCH   5  12
ATOM     12  C   LIG    1       -2.578   1.948   0.023  0.00  0.00    +0.500 C 
ATOM     13  O   LIG    1       -2.709   0.741   0.017  0.00  0.00    -0.420 OA
ENDBRANCH   5  12
TORSDOF 3
