REMARK  Name = ZINCkj000005hrp5.0
REMARK                            x       y       z     vdW  Elec       q    Type
REMARK                         _______ _______ _______ _____ _____    ______ ____
ROOT
ATOM      1  C   LIG    1        1.200  -0.697  -0.012  0.00  0.00    -0.190 A 
ATOM      2  C   LIG    1        2.392   0.015  -0.026  0.00  0.00    +0.120 A 
ATOM      3  C   LIG    1        2.335   1.398  -0.017  0.00  0.00    -0.030 A 
ATOM      4  C   LIG    1        1.095   2.023   0.007  0.00  0.00    +0.330 A 
ATOM      5  N   LIG    1       -0.019   1.310   0.020  0.00  0.00    -0.540 NA
ATOM      6  C   LIG    1        0.003  -0.009   0.012  0.00  0.00    +0.320 A 
ENDROOT
BRANCH   1   7
ATOM      7  C   LIG    1        1.213  -2.204  -0.022  0.00  0.00    +0.100 C 
BRANCH   7   8
ATOM      8  C   LIG    1        1.194  -2.704  -1.468  0.00  0.00    +0.280 C 
BRANCH   8   9
ATOM      9  N   LIG    1        1.207  -4.169  -1.477  0.00  0.00    -0.700 NA
ATOM     10  H   LIG    1        1.297  -4.659  -0.645  0.00  0.00    +0.430 HD
BRANCH   9  11
ATOM     11  C   LIG    1        1.091  -4.846  -2.660  0.00  0.00    +0.720 C 
BRANCH  11  13
ATOM     12  C   LIG    1        0.903  -6.903  -1.393  0.00  0.00    +0.350 C 
ATOM     13  N   LIG    1        0.997  -6.175  -2.661  0.00  0.00    -0.680 NA
ATOM     14  H   LIG    1        0.992  -6.660  -3.501  0.00  0.00    +0.440 HD
ENDBRANCH  11  13
BRANCH  11  15
ATOM     15  N   LIG    1        1.072  -4.177  -3.812  0.00  0.00    -0.680 NA
ATOM     16  C   LIG    1        0.948  -4.902  -5.079  0.00  0.00    +0.350 C 
ATOM     17  H   LIG    1        1.140  -3.209  -3.811  0.00  0.00    +0.440 HD
ENDBRANCH  11  15
ENDBRANCH   9  11
ENDBRANCH   8   9
ENDBRANCH   7   8
ENDBRANCH   1   7
BRANCH   4  18
ATOM     18  O   LIG    1        1.026   3.378   0.016  0.00  0.00    -0.290 OA
BRANCH  18  19
ATOM     19  C   LIG    1       -0.279   3.961   0.040  0.00  0.00    +0.270 C 
BRANCH  19  20
ATOM     20  C   LIG    1       -0.156   5.486   0.047  0.00  0.00    +0.460 C 
ATOM     21  F   LIG    1        0.557   5.891   1.181  0.00  0.00    -0.170 F 
ATOM     22  F   LIG    1       -1.433   6.056   0.071  0.00  0.00    -0.170 F 
ATOM     23  F   LIG    1        0.520   5.904  -1.103  0.00  0.00    -0.170 F 
ENDBRANCH  19  20
ENDBRANCH  18  19
ENDBRANCH   4  18
TORSDOF 9
