REMARK  Name = ZINCrD0000072k8p.0
REMARK                            x       y       z     vdW  Elec       q    Type
REMARK                         _______ _______ _______ _____ _____    ______ ____
ROOT
ATOM      1  C   LIG    1        4.696   1.680  -0.168  0.00  0.00    -0.010 A 
ATOM      2  C   LIG    1        3.464   2.300  -0.144  0.00  0.00    +0.040 A 
ATOM      3  C   LIG    1        2.304   1.536  -0.120  0.00  0.00    +0.160 A 
ATOM      4  C   LIG    1        2.399   0.134  -0.120  0.00  0.00    -0.140 A 
ATOM      5  C   LIG    1        1.168  -0.663  -0.095  0.00  0.00    +0.010 A 
ATOM      6  C   LIG    1       -0.019  -0.006  -0.073  0.00  0.00    -0.040 A 
ATOM      7  C   LIG    1       -0.041   1.405  -0.075  0.00  0.00    +0.510 A 
ATOM      8  O   LIG    1       -1.113   1.982  -0.060  0.00  0.00    -0.450 OA
ATOM      9  C   LIG    1        3.655  -0.481  -0.144  0.00  0.00    +0.100 A 
ATOM     10  O   LIG    1        1.090   2.127  -0.097  0.00  0.00    -0.270 OA
ATOM     11  C   LIG    1        4.792   0.295  -0.168  0.00  0.00    -0.060 A 
ATOM     12 CL   LIG    1        6.354  -0.462  -0.198  0.00  0.00    -0.050 Cl
ENDROOT
BRANCH   1  14
ATOM     13  C   LIG    1        6.541   2.592   1.215  0.00  0.00    +0.040 C 
ATOM     14  C   LIG    1        5.950   2.515  -0.194  0.00  0.00    +0.090 C 
ENDBRANCH   1  14
BRANCH   5  15
ATOM     15  C   LIG    1        1.220  -2.169  -0.094  0.00  0.00    +0.310 C 
BRANCH  15  16
ATOM     16  O   LIG    1       -0.131  -2.700  -0.067  0.00  0.00    -0.350 OA
BRANCH  16  17
ATOM     17  C   LIG    1       -0.260  -4.036  -0.062  0.00  0.00    +0.470 C 
ATOM     18  O   LIG    1        0.723  -4.738  -0.080  0.00  0.00    -0.490 OA
BRANCH  17  19
ATOM     19  C   LIG    1       -1.632  -4.660  -0.034  0.00  0.00    +0.030 C 
ATOM     20  C   LIG    1       -1.499  -6.184  -0.034  0.00  0.00    +0.050 C 
ATOM     21  C   LIG    1       -2.892  -6.819  -0.039  0.00  0.00    +0.030 C 
ATOM     22  C   LIG    1       -3.644  -6.399   1.228  0.00  0.00    +0.270 C 
ATOM     23  N   LIG    1       -3.650  -4.932   1.310  0.00  0.00    -0.620 N 
ATOM     24  C   LIG    1       -4.808  -4.257   1.454  0.00  0.00    +0.520 C 
ATOM     25  O   LIG    1       -5.864  -4.851   1.418  0.00  0.00    -0.540 OA
ATOM     26  C   LIG    1       -4.788  -2.764   1.660  0.00  0.00    +0.100 C 
ATOM     27  C   LIG    1       -2.370  -4.215   1.233  0.00  0.00    +0.300 C 
ENDBRANCH  17  19
ENDBRANCH  16  17
ENDBRANCH  15  16
ENDBRANCH   5  15
TORSDOF 5
