REMARK  Name = ZINCrH000004tGqA.0
REMARK                            x       y       z     vdW  Elec       q    Type
REMARK                         _______ _______ _______ _____ _____    ______ ____
ROOT
ATOM      1  O   LIG    1       -0.825  -0.313  -2.134  0.00  0.00    -0.480 OA
ATOM      2  C   LIG    1       -1.412   0.739  -1.990  0.00  0.00    +0.500 C 
ATOM      3  N   LIG    1       -1.145   1.520  -0.924  0.00  0.00    -0.560 N 
ATOM      4  C   LIG    1       -1.441   2.958  -0.959  0.00  0.00    +0.270 C 
ATOM      5  C   LIG    1       -0.235   3.700  -0.370  0.00  0.00    +0.020 C 
ATOM      6  C   LIG    1       -0.067   3.289   1.092  0.00  0.00    +0.080 C 
ATOM      7  C   LIG    1       -0.048   1.789   1.221  0.00  0.00    -0.100 A 
ATOM      8  C   LIG    1        0.510   1.221   2.355  0.00  0.00    +0.020 A 
ATOM      9  C   LIG    1        0.535  -0.151   2.510  0.00  0.00    +0.010 A 
ATOM     10  C   LIG    1        0.002  -0.971   1.532  0.00  0.00    -0.010 A 
ATOM     11  C   LIG    1       -0.556  -0.413   0.394  0.00  0.00    +0.090 A 
ATOM     12  C   LIG    1       -0.579   0.972   0.238  0.00  0.00    +0.140 A 
ENDROOT
BRANCH  11  13
ATOM     13  O   LIG    1       -1.081  -1.216  -0.570  0.00  0.00    -0.470 OA
ATOM     14  H   LIG    1       -0.418  -1.671  -1.107  0.00  0.00    +0.400 HD
ENDBRANCH  11  13
BRANCH   2  15
ATOM     15  C   LIG    1       -2.439   1.172  -3.004  0.00  0.00    +0.070 C 
BRANCH  15  16
ATOM     16  C   LIG    1       -2.643   0.058  -4.032  0.00  0.00    +0.060 C 
BRANCH  16  17
ATOM     17  C   LIG    1       -3.686   0.499  -5.061  0.00  0.00    +0.200 C 
BRANCH  17  18
ATOM     18  C   LIG    1       -3.886  -0.599  -6.075  0.00  0.00    +0.170 A 
ATOM     19  N   LIG    1       -4.752  -1.571  -5.996  0.00  0.00    -0.280 NA
ATOM     20  N   LIG    1       -4.648  -2.324  -7.034  0.00  0.00    -0.270 NA
ATOM     21  C   LIG    1       -3.706  -1.854  -7.817  0.00  0.00    +0.210 A 
ATOM     22  O   LIG    1       -3.209  -0.749  -7.226  0.00  0.00    -0.220 OA
BRANCH  21  23
ATOM     23  C   LIG    1       -3.274  -2.427  -9.110  0.00  0.00    -0.030 A 
ATOM     24  C   LIG    1       -2.257  -1.814  -9.843  0.00  0.00    +0.050 A 
ATOM     25  C   LIG    1       -1.854  -2.357 -11.046  0.00  0.00    +0.010 A 
ATOM     26  C   LIG    1       -2.464  -3.499 -11.531  0.00  0.00    +0.040 A 
ATOM     27  C   LIG    1       -3.477  -4.109 -10.812  0.00  0.00    +0.020 A 
ATOM     28  C   LIG    1       -3.885  -3.580  -9.605  0.00  0.00    +0.070 A 
ENDBRANCH  21  23
ENDBRANCH  17  18
ENDBRANCH  16  17
ENDBRANCH  15  16
ENDBRANCH   2  15
TORSDOF 6
