REMARK  Name = ZINCqH0000037RCN.0
REMARK                            x       y       z     vdW  Elec       q    Type
REMARK                         _______ _______ _______ _____ _____    ______ ____
ROOT
ATOM      1  N   LIG    1       -6.633   6.346   1.509  0.00  0.00    -0.550 N 
ATOM      2  C   LIG    1       -6.395   6.054   0.090  0.00  0.00    +0.320 C 
ATOM      3  C   LIG    1       -5.565   4.751   0.071  0.00  0.00    +0.020 C 
ATOM      4  C   LIG    1       -5.970   4.100   1.414  0.00  0.00    +0.100 C 
ATOM      5  C   LIG    1       -6.407   5.265   2.275  0.00  0.00    +0.520 C 
ATOM      6  O   LIG    1       -6.535   5.229   3.480  0.00  0.00    -0.500 OA
ENDROOT
BRANCH   1  10
ATOM      7  C   LIG    1       -8.099   9.128   5.289  0.00  0.00    +0.100 C 
ATOM      8  C   LIG    1       -7.760   8.968   3.829  0.00  0.00    -0.090 A 
ATOM      9  C   LIG    1       -7.362   7.737   3.345  0.00  0.00    +0.030 A 
ATOM     10  C   LIG    1       -7.043   7.592   2.001  0.00  0.00    +0.160 A 
ATOM     11  C   LIG    1       -7.136   8.681   1.145  0.00  0.00    +0.010 A 
ATOM     12  C   LIG    1       -7.541   9.908   1.633  0.00  0.00    +0.020 A 
ATOM     13  C   LIG    1       -7.853  10.053   2.974  0.00  0.00    +0.070 A 
ATOM     14  F   LIG    1       -8.248  11.254   3.449  0.00  0.00    -0.140 F 
ENDBRANCH   1  10
BRANCH   3  15
ATOM     15  C   LIG    1       -4.089   5.053   0.042  0.00  0.00    +0.510 C 
ATOM     16  N   LIG    1       -3.195   4.044   0.022  0.00  0.00    -0.650 N 
ATOM     17  H   LIG    1       -3.502   3.124   0.027  0.00  0.00    +0.420 HD
ATOM     18  O   LIG    1       -3.705   6.203   0.035  0.00  0.00    -0.450 OA
BRANCH  16  19
ATOM     19  C   LIG    1       -1.831   4.323  -0.006  0.00  0.00    +0.410 A 
ATOM     20  C   LIG    1       -0.897   3.259  -0.026  0.00  0.00    -0.160 A 
ATOM     21  C   LIG    1       -1.109   1.823  -0.029  0.00  0.00    +0.040 A 
ATOM     22  C   LIG    1       -0.006   1.100  -0.047  0.00  0.00    -0.020 A 
ATOM     23  S   LIG    1        1.424   2.114  -0.075  0.00  0.00    +0.130 S 
ATOM     24  C   LIG    1        0.463   3.584  -0.054  0.00  0.00    -0.090 A 
ATOM     25  C   LIG    1        0.833   4.936  -0.060  0.00  0.00    -0.020 A 
ATOM     26  C   LIG    1       -0.136   5.896  -0.039  0.00  0.00    +0.310 A 
ATOM     27  N   LIG    1       -1.420   5.574  -0.013  0.00  0.00    -0.480 NA
ENDBRANCH  16  19
ENDBRANCH   3  15
TORSDOF 3
