REMARK  Name = ZINCkj00000dCVp3.1
REMARK                            x       y       z     vdW  Elec       q    Type
REMARK                         _______ _______ _______ _____ _____    ______ ____
ROOT
ATOM      1  C   LIG    1       -5.105   0.882   2.573  0.00  0.00    +0.500 C 
ATOM      2  N   LIG    1       -4.935   1.776   1.579  0.00  0.00    -0.700 N 
ATOM      3  H   LIG    1       -5.628   1.894   0.910  0.00  0.00    +0.410 HD
ATOM      4  O   LIG    1       -4.239   0.734   3.410  0.00  0.00    -0.520 OA
ENDROOT
BRANCH   1  10
ATOM      5  N   LIG    1       -6.658  -0.266   4.046  0.00  0.00    -0.370 N 
ATOM      6  C   LIG    1       -7.929  -0.995   4.134  0.00  0.00    +0.260 C 
ATOM      7  C   LIG    1       -7.811  -2.324   3.384  0.00  0.00    +0.060 C 
ATOM      8  C   LIG    1       -7.480  -2.047   1.915  0.00  0.00    +0.060 C 
ATOM      9  C   LIG    1       -6.192  -1.222   1.839  0.00  0.00    +0.090 C 
ATOM     10  C   LIG    1       -6.370   0.066   2.646  0.00  0.00    +0.160 C 
ATOM     11  H   LIG    1       -5.915  -0.841   4.414  0.00  0.00    +0.430 HD
BRANCH   5  13
ATOM     12  C   LIG    1       -7.939   1.801   4.340  0.00  0.00    +0.090 C 
ATOM     13  C   LIG    1       -6.750   0.972   4.832  0.00  0.00    +0.150 C 
ATOM     14  C   LIG    1       -6.947   0.625   6.309  0.00  0.00    +0.090 C 
ENDBRANCH   5  13
ENDBRANCH   1  10
BRANCH   2  15
ATOM     15  C   LIG    1       -3.705   2.569   1.508  0.00  0.00    +0.280 C 
BRANCH  15  16
ATOM     16  C   LIG    1       -3.767   3.499   0.295  0.00  0.00    +0.110 C 
BRANCH  16  17
ATOM     17  C   LIG    1       -2.502   4.314   0.223  0.00  0.00    -0.250 A 
ATOM     18  C   LIG    1       -2.297   5.519   0.805  0.00  0.00    +0.240 A 
ATOM     19  N   LIG    1       -1.044   5.916   0.498  0.00  0.00    -0.370 N 
ATOM     20  N   LIG    1       -0.458   4.920  -0.294  0.00  0.00    -0.290 NA
ATOM     21  C   LIG    1       -0.409   7.167   0.919  0.00  0.00    +0.360 C 
ATOM     22  C   LIG    1       -1.331   3.959  -0.455  0.00  0.00    +0.240 A 
ENDBRANCH  16  17
ENDBRANCH  15  16
ENDBRANCH   2  15
TORSDOF 5
