REMARK  Name = ZINCkj00000dCVp3.0
REMARK                            x       y       z     vdW  Elec       q    Type
REMARK                         _______ _______ _______ _____ _____    ______ ____
ROOT
ATOM      1  C   LIG    1        0.548   3.702  -1.149  0.00  0.00    +0.510 C 
ATOM      2  N   LIG    1        1.431   3.379  -2.114  0.00  0.00    -0.700 N 
ATOM      3  H   LIG    1        1.172   2.773  -2.825  0.00  0.00    +0.410 HD
ATOM      4  O   LIG    1        0.872   4.460  -0.259  0.00  0.00    -0.520 OA
ENDROOT
BRANCH   1  10
ATOM      5  N   LIG    1       -1.585   3.578   0.006  0.00  0.00    -0.360 N 
ATOM      6  C   LIG    1       -0.861   3.203   1.226  0.00  0.00    +0.250 C 
ATOM      7  C   LIG    1       -0.774   1.678   1.325  0.00  0.00    +0.060 C 
ATOM      8  C   LIG    1       -0.034   1.133   0.100  0.00  0.00    +0.040 C 
ATOM      9  C   LIG    1       -0.757   1.594  -1.169  0.00  0.00    +0.070 C 
ATOM     10  C   LIG    1       -0.843   3.121  -1.175  0.00  0.00    +0.160 C 
ATOM     11  H   LIG    1       -2.499   3.150   0.014  0.00  0.00    +0.420 HD
BRANCH   5  13
ATOM     12  C   LIG    1       -2.495   5.431  -1.311  0.00  0.00    +0.080 C 
ATOM     13  C   LIG    1       -1.732   5.039  -0.044  0.00  0.00    +0.160 C 
ATOM     14  C   LIG    1       -2.506   5.516   1.186  0.00  0.00    +0.080 C 
ENDBRANCH   5  13
ENDBRANCH   1  10
BRANCH   2  15
ATOM     15  C   LIG    1        2.783   3.943  -2.088  0.00  0.00    +0.280 C 
BRANCH  15  16
ATOM     16  C   LIG    1        3.577   3.420  -3.287  0.00  0.00    +0.110 C 
BRANCH  16  17
ATOM     17  C   LIG    1        4.967   4.000  -3.261  0.00  0.00    -0.250 A 
ATOM     18  C   LIG    1        6.045   3.458  -2.648  0.00  0.00    +0.240 A 
ATOM     19  N   LIG    1        7.094   4.280  -2.858  0.00  0.00    -0.370 N 
ATOM     20  N   LIG    1        6.646   5.364  -3.624  0.00  0.00    -0.290 NA
ATOM     21  C   LIG    1        8.460   4.075  -2.370  0.00  0.00    +0.360 C 
ATOM     22  C   LIG    1        5.373   5.192  -3.870  0.00  0.00    +0.230 A 
ENDBRANCH  16  17
ENDBRANCH  15  16
ENDBRANCH   2  15
TORSDOF 5
