REMARK  Name = ZINCqH0000003Hyj.0
REMARK                            x       y       z     vdW  Elec       q    Type
REMARK                         _______ _______ _______ _____ _____    ______ ____
ROOT
ATOM      1  N   LIG    1        5.223   3.136  -1.699  0.00  0.00    -0.660 N 
ATOM      2  H   LIG    1        5.405   3.797  -1.012  0.00  0.00    +0.420 HD
ATOM      3  C   LIG    1        4.511   2.032  -1.400  0.00  0.00    +0.510 C 
ATOM      4  O   LIG    1        4.214   1.247  -2.276  0.00  0.00    -0.510 OA
ENDROOT
BRANCH   1  14
ATOM      5  C   LIG    1        6.927   3.962  -3.204  0.00  0.00    +0.080 A 
ATOM      6  C   LIG    1        7.397   4.144  -4.495  0.00  0.00    -0.010 A 
ATOM      7  C   LIG    1        6.650   3.711  -5.569  0.00  0.00    -0.150 A 
ATOM      8  C   LIG    1        5.422   3.090  -5.380  0.00  0.00    +0.090 A 
ATOM      9  O   LIG    1        4.848   2.758  -6.571  0.00  0.00    -0.300 OA
ATOM     10  C   LIG    1        5.857   2.746  -7.596  0.00  0.00    +0.170 C 
ATOM     11  C   LIG    1        5.276   3.208  -8.934  0.00  0.00    +0.070 C 
ATOM     12  C   LIG    1        4.953   2.901  -4.083  0.00  0.00    +0.040 A 
ATOM     13  C   LIG    1        6.896   3.762  -7.065  0.00  0.00    +0.070 C 
ATOM     14  C   LIG    1        5.702   3.331  -3.001  0.00  0.00    +0.150 A 
BRANCH   5  15
ATOM     15  O   LIG    1        7.660   4.392  -2.142  0.00  0.00    -0.310 OA
BRANCH  15  17
ATOM     16  C   LIG    1        9.582   5.441  -1.119  0.00  0.00    +0.070 C 
ATOM     17  C   LIG    1        8.906   5.030  -2.429  0.00  0.00    +0.180 C 
ENDBRANCH  15  17
ENDBRANCH   5  15
ENDBRANCH   1  14
BRANCH   3  18
ATOM     18  C   LIG    1        4.083   1.772   0.021  0.00  0.00    +0.130 C 
BRANCH  18  19
ATOM     19  C   LIG    1        3.307   0.482   0.084  0.00  0.00    -0.080 A 
ATOM     20  C   LIG    1        1.935   0.495  -0.082  0.00  0.00    +0.060 A 
ATOM     21  C   LIG    1        1.219  -0.686  -0.024  0.00  0.00    -0.040 A 
ATOM     22  C   LIG    1        1.877  -1.885   0.200  0.00  0.00    +0.100 A 
ATOM     23  C   LIG    1        3.257  -1.896   0.367  0.00  0.00    +0.070 A 
ATOM     24  F   LIG    1        3.902  -3.063   0.585  0.00  0.00    -0.130 F 
ATOM     25  C   LIG    1        3.968  -0.712   0.309  0.00  0.00    +0.040 A 
BRANCH  22  26
ATOM     26  O   LIG    1        1.175  -3.048   0.256  0.00  0.00    -0.310 OA
ATOM     27  C   LIG    1       -0.240  -2.961   0.075  0.00  0.00    +0.250 C 
ENDBRANCH  22  26
ENDBRANCH  18  19
ENDBRANCH   3  18
TORSDOF 6
