REMARK  Name = ZINCah0000002Fes.0
REMARK                            x       y       z     vdW  Elec       q    Type
REMARK                         _______ _______ _______ _____ _____    ______ ____
ROOT
ATOM      1  C   LIG    1        1.747   3.209   0.002  0.00  0.00    +0.450 C 
ATOM      2  N   LIG    1        0.882   4.184   0.015  0.00  0.00    -0.400 NA
ENDROOT
BRANCH   1   3
ATOM      3  C   LIG    1        1.282   1.812  -0.000  0.00  0.00    +0.030 A 
ATOM      4  C   LIG    1       -0.017   1.402   0.010  0.00  0.00    +0.040 A 
ATOM      5  C   LIG    1        0.002  -0.004   0.002  0.00  0.00    +0.010 A 
ATOM      6  C   LIG    1        1.298  -0.383  -0.012  0.00  0.00    -0.010 A 
ATOM      7 BR   LIG    1        1.925  -2.167  -0.027  0.00  0.00    +0.070 Br
ATOM      8  O   LIG    1        2.067   0.716  -0.014  0.00  0.00    -0.150 OA
ENDBRANCH   1   3
BRANCH   1   9
ATOM      9  N   LIG    1        3.106   3.487  -0.009  0.00  0.00    -0.860 N 
ATOM     10  H   LIG    1        3.412   4.407  -0.008  0.00  0.00    +0.410 HD
ATOM     11  H   LIG    1        3.749   2.761  -0.019  0.00  0.00    +0.400 HD
ENDBRANCH   1   9
BRANCH   2  12
ATOM     12  O   LIG    1        1.330   5.528   0.017  0.00  0.00    -0.410 OA
ATOM     13  H   LIG    1        0.616   6.180   0.027  0.00  0.00    +0.410 HD
ENDBRANCH   2  12
TORSDOF 3
