REMARK  Name = ZINCrg000000sOBQ.0
REMARK                            x       y       z     vdW  Elec       q    Type
REMARK                         _______ _______ _______ _____ _____    ______ ____
ROOT
ATOM      1  N   LIG    1        3.868  -4.269  -1.252  0.00  0.00    -0.680 N 
ATOM      2  H   LIG    1        4.655  -3.802  -0.933  0.00  0.00    +0.410 HD
ATOM      3  C   LIG    1        3.977  -5.523  -1.734  0.00  0.00    +0.500 C 
ATOM      4  O   LIG    1        2.982  -6.142  -2.047  0.00  0.00    -0.480 OA
ENDROOT
BRANCH   1   9
ATOM      5  C   LIG    1        1.066  -2.145  -0.145  0.00  0.00    -0.020 A 
ATOM      6  C   LIG    1        0.133  -2.405  -1.148  0.00  0.00    +0.010 A 
ATOM      7  C   LIG    1        0.445  -3.277  -2.172  0.00  0.00    +0.050 A 
ATOM      8  C   LIG    1        1.681  -3.895  -2.207  0.00  0.00    +0.050 A 
ATOM      9  C   LIG    1        2.617  -3.642  -1.212  0.00  0.00    +0.160 A 
ATOM     10  C   LIG    1        2.315  -2.764  -0.183  0.00  0.00    +0.050 A 
BRANCH   5  16
ATOM     11  C   LIG    1       -1.782  -1.171   0.698  0.00  0.00    +0.400 C 
ATOM     12  N   LIG    1       -0.506  -0.794   1.311  0.00  0.00    -0.380 N 
ATOM     13  N   LIG    1       -0.304   0.077   2.396  0.00  0.00    -0.080 NA
ATOM     14  N   LIG    1        0.967   0.124   2.606  0.00  0.00    -0.040 NA
ATOM     15  N   LIG    1        1.587  -0.626   1.768  0.00  0.00    -0.320 NA
ATOM     16  C   LIG    1        0.735  -1.210   0.954  0.00  0.00    +0.290 A 
ENDBRANCH   5  16
ENDBRANCH   1   9
BRANCH   3  17
ATOM     17  C   LIG    1        5.336  -6.157  -1.884  0.00  0.00    +0.290 C 
BRANCH  17  18
ATOM     18  N   LIG    1        5.254  -7.270  -2.833  0.00  0.00    -0.730 N 
ATOM     19  H   LIG    1        5.789  -7.258  -3.642  0.00  0.00    +0.400 HD
ATOM     20  C   LIG    1        4.436  -8.311  -2.582  0.00  0.00    +0.710 C 
ATOM     21  O   LIG    1        3.766  -8.326  -1.568  0.00  0.00    -0.570 OA
ATOM     22  N   LIG    1        4.361  -9.335  -3.455  0.00  0.00    -0.870 N 
ATOM     23  H   LIG    1        3.771 -10.084  -3.275  0.00  0.00    +0.420 HD
ATOM     24  H   LIG    1        4.895  -9.322  -4.264  0.00  0.00    +0.390 HD
ENDBRANCH  17  18
BRANCH  17  25
ATOM     25  C   LIG    1        5.808  -6.679  -0.526  0.00  0.00    +0.100 C 
BRANCH  25  26
ATOM     26  C   LIG    1        7.216  -7.201  -0.650  0.00  0.00    -0.080 A 
ATOM     27  C   LIG    1        7.436  -8.528  -0.970  0.00  0.00    +0.020 A 
ATOM     28  C   LIG    1        8.727  -9.006  -1.089  0.00  0.00    +0.000 A 
ATOM     29  C   LIG    1        9.800  -8.160  -0.877  0.00  0.00    +0.000 A 
ATOM     30  C   LIG    1        9.581  -6.834  -0.552  0.00  0.00    +0.000 A 
ATOM     31  C   LIG    1        8.289  -6.355  -0.438  0.00  0.00    +0.000 A 
ENDBRANCH  25  26
ENDBRANCH  17  25
ENDBRANCH   3  17
TORSDOF 6
