REMARK  Name = ZINCrH000004rRp6.0
REMARK                            x       y       z     vdW  Elec       q    Type
REMARK                         _______ _______ _______ _____ _____    ______ ____
ROOT
ATOM      1  N   LIG    1       -0.017   1.395   0.010  0.00  0.00    -0.580 N 
ATOM      2  C   LIG    1       -1.240   2.207   0.019  0.00  0.00    +0.310 C 
ATOM      3  C   LIG    1       -0.792   3.618   0.465  0.00  0.00    +0.010 C 
ATOM      4  C   LIG    1        0.691   3.630   0.025  0.00  0.00    +0.080 C 
ATOM      5  C   LIG    1        1.082   2.168   0.003  0.00  0.00    +0.530 C 
ATOM      6  O   LIG    1        2.223   1.755  -0.017  0.00  0.00    -0.510 OA
ENDROOT
BRANCH   1  12
ATOM      7  C   LIG    1        0.018  -2.823  -2.515  0.00  0.00    +0.090 C 
ATOM      8  C   LIG    1        0.019  -2.075  -1.208  0.00  0.00    -0.080 A 
ATOM      9  C   LIG    1        0.039  -2.771  -0.013  0.00  0.00    +0.020 A 
ATOM     10  C   LIG    1        0.041  -2.087   1.189  0.00  0.00    +0.020 A 
ATOM     11  C   LIG    1        0.028  -0.706   1.200  0.00  0.00    +0.010 A 
ATOM     12  C   LIG    1        0.002  -0.004   0.002  0.00  0.00    +0.140 A 
ATOM     13  C   LIG    1        0.001  -0.693  -1.203  0.00  0.00    -0.070 A 
ATOM     14  C   LIG    1       -0.022   0.065  -2.506  0.00  0.00    +0.090 C 
ENDBRANCH   1  12
BRANCH   3  15
ATOM     15  C   LIG    1       -1.577   4.682  -0.258  0.00  0.00    +0.520 C 
ATOM     16  N   LIG    1       -1.250   5.981  -0.106  0.00  0.00    -0.630 N 
ATOM     17  H   LIG    1       -0.509   6.231   0.468  0.00  0.00    +0.420 HD
ATOM     18  O   LIG    1       -2.503   4.370  -0.976  0.00  0.00    -0.490 OA
BRANCH  16  19
ATOM     19  C   LIG    1       -1.973   6.961  -0.772  0.00  0.00    +0.050 A 
ATOM     20  C   LIG    1       -1.728   8.299  -0.682  0.00  0.00    -0.090 A 
ATOM     21  C   LIG    1       -2.635   9.108  -1.489  0.00  0.00    -0.070 A 
ATOM     22  C   LIG    1       -3.528   8.370  -2.144  0.00  0.00    -0.270 A 
ATOM     23  C   LIG    1       -4.455   9.258  -2.965  0.00  0.00    +0.120 C 
ATOM     24  C   LIG    1       -4.279  10.670  -2.371  0.00  0.00    +0.040 C 
ATOM     25  C   LIG    1       -2.853  10.588  -1.792  0.00  0.00    +0.110 C 
ATOM     26  S   LIG    1       -3.290   6.656  -1.804  0.00  0.00    +0.350 S 
BRANCH  20  27
ATOM     27  C   LIG    1       -0.681   8.855   0.121  0.00  0.00    +0.270 C 
ATOM     28  N   LIG    1        0.149   9.296   0.759  0.00  0.00    -0.420 NA
ENDBRANCH  20  27
ENDBRANCH  16  19
ENDBRANCH   3  15
TORSDOF 4
