REMARK  Name = ZINCpk00001AZisw.0
REMARK                            x       y       z     vdW  Elec       q    Type
REMARK                         _______ _______ _______ _____ _____    ______ ____
ROOT
ATOM      1  C   LIG    1       -0.830   2.193   1.270  0.00  0.00    +0.220 C 
ENDROOT
BRANCH   1   6
ATOM      2  N   LIG    1        0.197   2.661   3.558  0.00  0.00    -0.300 N 
ATOM      3  N   LIG    1        0.372   1.984   4.642  0.00  0.00    -0.090 NA
ATOM      4  N   LIG    1       -0.094   0.796   4.470  0.00  0.00    -0.070 NA
ATOM      5  N   LIG    1       -0.577   0.694   3.280  0.00  0.00    -0.270 NA
ATOM      6  C   LIG    1       -0.416   1.847   2.678  0.00  0.00    +0.200 A 
BRANCH   2   8
ATOM      7  C   LIG    1       -0.498   4.984   3.870  0.00  0.00    +0.070 C 
ATOM      8  C   LIG    1        0.589   4.054   3.328  0.00  0.00    +0.330 C 
ENDBRANCH   2   8
ENDBRANCH   1   6
BRANCH   1   9
ATOM      9  C   LIG    1       -0.103   1.275   0.285  0.00  0.00    +0.120 C 
ATOM     10  F   LIG    1       -0.372   1.690  -1.024  0.00  0.00    -0.180 F 
ATOM     11  C   LIG    1       -0.590  -0.163   0.474  0.00  0.00    +0.080 C 
BRANCH   9  12
ATOM     12  C   LIG    1        1.403   1.341   0.542  0.00  0.00    +0.100 C 
ATOM     13  F   LIG    1        1.667   0.969   1.865  0.00  0.00    -0.190 F 
ATOM     14  C   LIG    1        1.899   2.769   0.305  0.00  0.00    +0.040 C 
ATOM     15  C   LIG    1        2.126   0.385  -0.409  0.00  0.00    +0.070 C 
ENDBRANCH   9  12
ENDBRANCH   1   9
BRANCH   1  16
ATOM     16  N   LIG    1       -2.281   2.013   1.129  0.00  0.00    -0.510 NA
ATOM     17  C   LIG    1       -3.000   2.629   2.252  0.00  0.00    +0.210 C 
BRANCH  16  18
ATOM     18  C   LIG    1       -2.755   2.545  -0.156  0.00  0.00    +0.210 C 
BRANCH  18  19
ATOM     19  C   LIG    1       -4.240   2.221  -0.326  0.00  0.00    +0.180 C 
ATOM     20  C   LIG    1       -4.691   2.615  -1.734  0.00  0.00    +0.160 C 
ATOM     21  N   LIG    1       -6.135   2.373  -1.867  0.00  0.00    -0.540 NA
ATOM     22  C   LIG    1       -6.886   3.141  -0.863  0.00  0.00    +0.150 C 
ATOM     23  C   LIG    1       -6.413   2.741   0.537  0.00  0.00    +0.220 C 
ATOM     24  C   LIG    1       -6.600   2.686  -3.225  0.00  0.00    +0.190 C 
ATOM     25  O   LIG    1       -5.002   2.954   0.637  0.00  0.00    -0.380 OA
ENDBRANCH  18  19
ENDBRANCH  16  18
ENDBRANCH   1  16
TORSDOF 7
