REMARK  Name = ZINCvU0000000JzN.0
REMARK                            x       y       z     vdW  Elec       q    Type
REMARK                         _______ _______ _______ _____ _____    ______ ____
ROOT
ATOM      1  C   LIG    1        6.093   9.121  -0.101  0.00  0.00    +0.190 C 
ATOM      2  C   LIG    1        5.043   8.295   0.170  0.00  0.00    -0.140 C 
ENDROOT
BRANCH   1   8
ATOM      3  C   LIG    1        6.819  11.493   0.119  0.00  0.00    +0.160 A 
ATOM      4  C   LIG    1        6.593  12.844  -0.088  0.00  0.00    -0.090 A 
ATOM      5  C   LIG    1        5.428  13.267  -0.699  0.00  0.00    +0.070 A 
ATOM      6  C   LIG    1        4.480  12.347  -1.116  0.00  0.00    -0.030 A 
ATOM      7  C   LIG    1        4.688  10.998  -0.926  0.00  0.00    +0.090 A 
ATOM      8  C   LIG    1        5.863  10.554  -0.308  0.00  0.00    -0.120 A 
BRANCH   3  10
ATOM      9  C   LIG    1        8.884  12.088   1.131  0.00  0.00    +0.250 C 
ATOM     10  O   LIG    1        7.960  11.077   0.725  0.00  0.00    -0.310 OA
ENDBRANCH   3  10
ENDBRANCH   1   8
BRANCH   2  11
ATOM     11  C   LIG    1        3.694   8.862   0.397  0.00  0.00    -0.040 A 
ATOM     12  C   LIG    1        3.461   9.698   1.489  0.00  0.00    +0.020 A 
ATOM     13  C   LIG    1        2.203  10.228   1.692  0.00  0.00    +0.000 A 
ATOM     14  C   LIG    1        1.172   9.922   0.822  0.00  0.00    +0.010 A 
ATOM     15  C   LIG    1        1.396   9.089  -0.260  0.00  0.00    +0.010 A 
ATOM     16  C   LIG    1        2.650   8.557  -0.477  0.00  0.00    +0.020 A 
ENDBRANCH   2  11
BRANCH   2  17
ATOM     17  C   LIG    1        5.250   6.843   0.237  0.00  0.00    +0.520 C 
ATOM     18  O   LIG    1        6.358   6.377   0.050  0.00  0.00    -0.510 OA
BRANCH  17  19
ATOM     19  O   LIG    1        4.212   6.025   0.505  0.00  0.00    -0.320 OA
BRANCH  19  20
ATOM     20  C   LIG    1        4.490   4.601   0.555  0.00  0.00    +0.270 C 
BRANCH  20  21
ATOM     21  C   LIG    1        3.220   3.852   0.865  0.00  0.00    +0.510 C 
ATOM     22  N   LIG    1        3.236   2.508   0.962  0.00  0.00    -0.660 N 
ATOM     23  H   LIG    1        4.066   2.022   0.832  0.00  0.00    +0.420 HD
ATOM     24  O   LIG    1        2.182   4.458   1.027  0.00  0.00    -0.430 OA
BRANCH  22  25
ATOM     25  C   LIG    1        2.060   1.814   1.248  0.00  0.00    +0.380 A 
ATOM     26  N   LIG    1        0.932   2.482   1.423  0.00  0.00    -0.450 NA
ATOM     27  C   LIG    1       -0.203   1.866   1.696  0.00  0.00    +0.340 A 
ATOM     28  C   LIG    1       -0.252   0.490   1.808  0.00  0.00    -0.110 A 
ATOM     29  C   LIG    1        0.911  -0.249   1.631  0.00  0.00    +0.130 A 
ATOM     30 CL   LIG    1       -1.752  -0.308   2.166  0.00  0.00    -0.040 Cl
ATOM     31  C   LIG    1        2.085   0.426   1.346  0.00  0.00    -0.120 A 
ATOM     32 CL   LIG    1        3.568  -0.446   1.116  0.00  0.00    -0.040 Cl
ENDBRANCH  22  25
ENDBRANCH  20  21
ENDBRANCH  19  20
ENDBRANCH  17  19
ENDBRANCH   2  17
TORSDOF 8
