REMARK  Name = ZINCrD00000rOMQR.0
REMARK                            x       y       z     vdW  Elec       q    Type
REMARK                         _______ _______ _______ _____ _____    ______ ____
ROOT
ATOM      1  N   LIG    1        0.992  -2.655  -1.454  0.00  0.00    -1.120 NA
ATOM      2  H   LIG    1        1.106  -3.365  -2.106  0.00  0.00    +0.420 HD
ENDROOT
BRANCH   1   3
ATOM      3  S   LIG    1        0.234  -2.966  -0.015  0.00  0.00    +2.700 S 
ATOM      4  O   LIG    1       -0.156  -4.332  -0.054  0.00  0.00    -0.960 OA
ATOM      5  O   LIG    1        1.065  -2.422   1.002  0.00  0.00    -0.940 OA
BRANCH   3   6
ATOM      6  C   LIG    1       -1.255  -2.024   0.003  0.00  0.00    -0.700 A 
ATOM      7  C   LIG    1       -2.479  -2.665   0.011  0.00  0.00    +0.170 A 
ATOM      8  C   LIG    1       -3.648  -1.927   0.026  0.00  0.00    -0.130 A 
ATOM      9  C   LIG    1       -3.595  -0.545   0.033  0.00  0.00    +0.110 A 
ATOM     10  C   LIG    1       -2.374   0.101   0.031  0.00  0.00    -0.080 A 
ATOM     11  C   LIG    1       -1.200  -0.637   0.010  0.00  0.00    +0.220 A 
BRANCH   8  12
ATOM     12  C   LIG    1       -4.981  -2.629   0.034  0.00  0.00    +0.020 C 
ATOM     13  C   LIG    1       -5.780  -2.222  -1.205  0.00  0.00    +0.030 C 
ATOM     14  C   LIG    1       -5.757  -2.235   1.293  0.00  0.00    +0.030 C 
ENDBRANCH   8  12
BRANCH  11  15
ATOM     15  O   LIG    1        0.002  -0.004   0.002  0.00  0.00    -0.310 OA
ATOM     16  C   LIG    1       -0.017   1.425   0.010  0.00  0.00    +0.250 C 
ENDBRANCH  11  15
ENDBRANCH   3   6
ENDBRANCH   1   3
BRANCH   1  17
ATOM     17  C   LIG    1        1.491  -1.308  -1.744  0.00  0.00    +0.290 C 
BRANCH  17  18
ATOM     18  C   LIG    1        2.456  -1.365  -2.930  0.00  0.00    +0.070 C 
BRANCH  18  22
ATOM     19  C   LIG    1        3.907   2.567  -3.779  0.00  0.00    +0.100 A 
ATOM     20  C   LIG    1        2.756   2.103  -4.394  0.00  0.00    -0.030 A 
ATOM     21  C   LIG    1        2.292   0.829  -4.121  0.00  0.00    +0.020 A 
ATOM     22  C   LIG    1        2.969   0.020  -3.227  0.00  0.00    -0.080 A 
ATOM     23  C   LIG    1        4.119   0.478  -2.610  0.00  0.00    -0.030 A 
ATOM     24  C   LIG    1        4.592   1.751  -2.883  0.00  0.00    +0.100 A 
BRANCH  19  26
ATOM     25  C   LIG    1        3.614   4.599  -4.979  0.00  0.00    +0.240 C 
ATOM     26  O   LIG    1        4.368   3.817  -4.050  0.00  0.00    -0.310 OA
ENDBRANCH  19  26
BRANCH  24  27
ATOM     27  O   LIG    1        5.722   2.202  -2.277  0.00  0.00    -0.310 OA
ATOM     28  C   LIG    1        6.372   1.310  -1.369  0.00  0.00    +0.240 C 
ENDBRANCH  24  27
ENDBRANCH  18  22
ENDBRANCH  17  18
ENDBRANCH   1  17
TORSDOF 9
