REMARK  Name = ZINCpe000000UjJS.0
REMARK                            x       y       z     vdW  Elec       q    Type
REMARK                         _______ _______ _______ _____ _____    ______ ____
ROOT
ATOM      1  N   LIG    1       -0.754   3.461   1.277  0.00  0.00    -0.720 N 
ATOM      2  H   LIG    1       -0.348   3.956   0.548  0.00  0.00    +0.410 HD
ATOM      3  C   LIG    1       -1.337   4.122   2.297  0.00  0.00    +0.510 C 
ATOM      4  O   LIG    1       -1.846   3.503   3.208  0.00  0.00    -0.500 OA
ENDROOT
BRANCH   3   5
ATOM      5  C   LIG    1       -1.358   5.628   2.305  0.00  0.00    +0.290 C 
ATOM      6  C   LIG    1        0.078   6.158   2.295  0.00  0.00    +0.120 C 
BRANCH   5   7
ATOM      7  N   LIG    1       -2.043   6.101   3.511  0.00  0.00    -0.130 N 
ATOM      8  N   LIG    1       -1.683   5.848   4.720  0.00  0.00    -0.030 NA
ATOM      9  N   LIG    1       -2.506   6.420   5.531  0.00  0.00    -0.270 NA
ATOM     10  C   LIG    1       -3.425   7.051   4.786  0.00  0.00    +0.220 A 
ATOM     11  N   LIG    1       -3.106   6.830   3.527  0.00  0.00    -0.300 NA
BRANCH  10  12
ATOM     12  C   LIG    1       -4.578   7.843   5.283  0.00  0.00    -0.020 A 
ATOM     13  C   LIG    1       -5.451   8.448   4.382  0.00  0.00    +0.050 A 
ATOM     14  C   LIG    1       -6.525   9.178   4.849  0.00  0.00    +0.010 A 
ATOM     15  C   LIG    1       -6.729   9.319   6.210  0.00  0.00    +0.030 A 
ATOM     16  C   LIG    1       -5.862   8.725   7.109  0.00  0.00    +0.010 A 
ATOM     17  C   LIG    1       -4.788   7.988   6.653  0.00  0.00    +0.060 A 
ENDBRANCH  10  12
ENDBRANCH   5   7
ENDBRANCH   3   5
BRANCH   1  18
ATOM     18  C   LIG    1       -0.735   1.996   1.269  0.00  0.00    +0.290 C 
BRANCH  18  19
ATOM     19  C   LIG    1       -0.018   1.503   0.010  0.00  0.00    +0.160 C 
BRANCH  19  24
ATOM     20  N   LIG    1       -0.937  -0.817  -0.539  0.00  0.00    -0.470 N 
ATOM     21  C   LIG    1       -0.511  -2.083  -0.315  0.00  0.00    +0.380 A 
ATOM     22  N   LIG    1        0.623  -2.003   0.327  0.00  0.00    -0.290 NA
ATOM     23  N   LIG    1        0.931  -0.768   0.510  0.00  0.00    -0.280 NA
ATOM     24  C   LIG    1        0.002  -0.004   0.002  0.00  0.00    +0.170 A 
BRANCH  20  26
ATOM     25  C   LIG    1       -1.856  -0.130  -2.699  0.00  0.00    +0.040 C 
ATOM     26  C   LIG    1       -2.165  -0.409  -1.227  0.00  0.00    +0.300 C 
ENDBRANCH  20  26
ENDBRANCH  19  24
ENDBRANCH  18  19
ENDBRANCH   1  18
TORSDOF 7
