REMARK  Name = ZINCb80000003W4d.0
REMARK                            x       y       z     vdW  Elec       q    Type
REMARK                         _______ _______ _______ _____ _____    ______ ____
ROOT
ATOM      1  C   LIG    1       -1.196   3.296   0.867  0.00  0.00    -0.620 A 
ATOM      2  C   LIG    1       -0.869   3.373   2.197  0.00  0.00    -0.220 A 
ATOM      3  S   LIG    1       -0.698   5.063   2.650  0.00  0.00    +0.300 S 
ATOM      4  C   LIG    1       -1.066   5.574   1.064  0.00  0.00    -0.060 A 
ATOM      5  C   LIG    1       -1.294   4.524   0.263  0.00  0.00    +0.080 A 
ENDROOT
BRANCH   1   6
ATOM      6  S   LIG    1       -1.456   1.774   0.019  0.00  0.00    +2.720 S 
ATOM      7  O   LIG    1       -2.338   1.009   0.829  0.00  0.00    -0.940 OA
ATOM      8  O   LIG    1       -1.738   2.111  -1.333  0.00  0.00    -0.960 OA
BRANCH   6   9
ATOM      9  N   LIG    1       -0.011   0.966   0.007  0.00  0.00    -1.240 NA
ATOM     10  H   LIG    1        0.822   1.462   0.002  0.00  0.00    +0.410 HD
ATOM     11  H   LIG    1        0.002  -0.004   0.002  0.00  0.00    +0.420 HD
ENDBRANCH   6   9
ENDBRANCH   1   6
BRANCH   2  12
ATOM     12  C   LIG    1       -0.698   2.271   3.064  0.00  0.00    +0.500 C 
ATOM     13  O   LIG    1       -0.842   1.140   2.644  0.00  0.00    -0.410 OA
ENDBRANCH   2  12
TORSDOF 3
