REMARK  Name = ZINCrH000004qKvr.0
REMARK                            x       y       z     vdW  Elec       q    Type
REMARK                         _______ _______ _______ _____ _____    ______ ____
ROOT
ATOM      1  N   LIG    1        3.979   2.109   0.580  0.00  0.00    -0.650 N 
ATOM      2  H   LIG    1        4.813   1.687   0.317  0.00  0.00    +0.420 HD
ATOM      3  C   LIG    1        3.912   3.449   0.704  0.00  0.00    +0.540 C 
ATOM      4  O   LIG    1        2.899   3.969   1.122  0.00  0.00    -0.500 OA
ENDROOT
BRANCH   3   5
ATOM      5  C   LIG    1        5.095   4.301   0.324  0.00  0.00    +0.160 C 
ATOM      6  O   LIG    1        6.217   3.464   0.024  0.00  0.00    -0.310 OA
ATOM      7  C   LIG    1        7.266   4.052  -0.614  0.00  0.00    +0.050 A 
ATOM      8  C   LIG    1        8.501   3.422  -0.618  0.00  0.00    +0.030 A 
ATOM      9  C   LIG    1        9.573   4.003  -1.267  0.00  0.00    +0.030 A 
ATOM     10  C   LIG    1        9.418   5.214  -1.915  0.00  0.00    +0.030 A 
ATOM     11  C   LIG    1        8.190   5.849  -1.915  0.00  0.00    +0.030 A 
ATOM     12  C   LIG    1        7.110   5.271  -1.264  0.00  0.00    +0.050 A 
ATOM     13  O   LIG    1        5.907   5.909  -1.269  0.00  0.00    -0.300 OA
ATOM     14  C   LIG    1        4.760   5.123  -0.928  0.00  0.00    +0.160 C 
ATOM     15  C   LIG    1        3.571   6.041  -0.640  0.00  0.00    +0.100 C 
ENDBRANCH   3   5
BRANCH   1  22
ATOM     16  C   LIG    1        4.355  -0.659   1.120  0.00  0.00    +0.090 C 
ATOM     17  C   LIG    1        2.985  -0.032   1.098  0.00  0.00    -0.090 A 
ATOM     18  C   LIG    1        1.868  -0.805   1.343  0.00  0.00    -0.020 A 
ATOM     19  C   LIG    1        0.605  -0.227   1.323  0.00  0.00    +0.100 A 
ATOM     20  C   LIG    1        0.466   1.129   1.056  0.00  0.00    +0.020 A 
ATOM     21  C   LIG    1        1.583   1.902   0.810  0.00  0.00    +0.050 A 
ATOM     22  C   LIG    1        2.845   1.324   0.830  0.00  0.00    +0.120 A 
BRANCH  19  23
ATOM     23  N   LIG    1       -0.527  -1.010   1.572  0.00  0.00    -0.500 N 
ATOM     24  C   LIG    1       -0.152  -2.319   2.112  0.00  0.00    +0.200 C 
ATOM     25  C   LIG    1       -1.365  -2.975   2.779  0.00  0.00    +0.120 C 
ATOM     26  S   LIG    1       -2.650  -3.232   1.517  0.00  0.00    -0.270 S 
ATOM     27  C   LIG    1       -2.773  -1.580   0.765  0.00  0.00    +0.120 C 
ATOM     28  C   LIG    1       -1.366  -1.116   0.376  0.00  0.00    +0.210 C 
ENDBRANCH  19  23
ENDBRANCH   1  22
TORSDOF 3
