REMARK  Name = ZINCkj000005l1iF.0
REMARK                            x       y       z     vdW  Elec       q    Type
REMARK                         _______ _______ _______ _____ _____    ______ ____
ROOT
ATOM      1  C   LIG    1        2.247   1.078   2.104  0.00  0.00    +0.570 C 
ATOM      2  N   LIG    1        3.459   0.813   2.630  0.00  0.00    -0.730 N 
ATOM      3  H   LIG    1        3.615   0.940   3.579  0.00  0.00    +0.400 HD
ATOM      4  O   LIG    1        2.052   0.919   0.915  0.00  0.00    -0.530 OA
ENDROOT
BRANCH   1  13
ATOM      5  C   LIG    1        1.018   3.131   0.162  0.00  0.00    +0.340 C 
ATOM      6  N   LIG    1        0.157   3.258   1.341  0.00  0.00    -0.490 N 
ATOM      7  C   LIG    1       -0.903   4.100   1.479  0.00  0.00    +0.490 A 
ATOM      8  N   LIG    1       -1.443   3.950   2.653  0.00  0.00    -0.490 NA
ATOM      9  C   LIG    1       -0.758   3.005   3.349  0.00  0.00    +0.040 A 
ATOM     10  C   LIG    1       -0.899   2.465   4.630  0.00  0.00    +0.110 A 
ATOM     11  C   LIG    1       -0.026   1.492   5.069  0.00  0.00    +0.000 A 
ATOM     12  C   LIG    1        0.995   1.038   4.255  0.00  0.00    +0.070 A 
ATOM     13  C   LIG    1        1.157   1.562   2.973  0.00  0.00    -0.140 A 
ATOM     14  C   LIG    1        0.276   2.551   2.515  0.00  0.00    +0.090 A 
ENDBRANCH   1  13
BRANCH   2  15
ATOM     15  C   LIG    1        4.542   0.333   1.768  0.00  0.00    +0.270 C 
BRANCH  15  16
ATOM     16  C   LIG    1        5.802   0.111   2.607  0.00  0.00    -0.010 C 
ATOM     17  C   LIG    1        6.293   1.453   3.157  0.00  0.00    +0.050 C 
ATOM     18  C   LIG    1        7.598   1.235   3.927  0.00  0.00    +0.260 C 
ATOM     19  N   LIG    1        8.613   0.669   3.030  0.00  0.00    -0.510 N 
ATOM     20  C   LIG    1        8.179  -0.650   2.556  0.00  0.00    +0.260 C 
ATOM     21  H   LIG    1        8.741   1.284   2.240  0.00  0.00    +0.430 HD
ATOM     22  H   LIG    1        9.486   0.577   3.527  0.00  0.00    +0.430 HD
ATOM     23  C   LIG    1        6.898  -0.505   1.732  0.00  0.00    +0.070 C 
ENDBRANCH  15  16
ENDBRANCH   2  15
TORSDOF 3
