REMARK  Name = ZINCbu0000000GxL.0
REMARK                            x       y       z     vdW  Elec       q    Type
REMARK                         _______ _______ _______ _____ _____    ______ ____
ROOT
ATOM      1  C   LIG    1       -2.082   0.562   1.459  0.00  0.00    +0.000 C 
ATOM      2  C   LIG    1       -2.674   0.812   0.070  0.00  0.00    +0.050 C 
ATOM      3  C   LIG    1       -1.710   0.289  -0.997  0.00  0.00    +0.020 C 
ATOM      4  C   LIG    1       -0.370   1.017  -0.875  0.00  0.00    +0.000 C 
ATOM      5  C   LIG    1        0.222   0.766   0.513  0.00  0.00    +0.040 C 
ATOM      6  C   LIG    1       -0.586   2.518  -1.075  0.00  0.00    +0.030 C 
ATOM      7  C   LIG    1       -0.742   1.290   1.581  0.00  0.00    +0.170 C 
ENDROOT
BRANCH   7   8
ATOM      8  N   LIG    1       -0.173   1.049   2.914  0.00  0.00    -0.640 N 
ATOM      9  H   LIG    1       -0.119   0.056   3.082  0.00  0.00    +0.430 HD
ATOM     10  H   LIG    1       -0.762   1.477   3.612  0.00  0.00    +0.430 HD
ATOM     11  H   LIG    1        0.752   1.450   2.962  0.00  0.00    +0.440 HD
ENDBRANCH   7   8
BRANCH   1  13
ATOM     12  C   LIG    1       -3.350   2.560   2.258  0.00  0.00    +0.020 C 
ATOM     13  C   LIG    1       -3.045   1.085   2.526  0.00  0.00    -0.040 C 
ATOM     14  C   LIG    1       -4.345   0.279   2.479  0.00  0.00    +0.050 C 
ENDBRANCH   1  13
TORSDOF 2
