REMARK  Name = ZINCpe00000MJLEv.0
REMARK                            x       y       z     vdW  Elec       q    Type
REMARK                         _______ _______ _______ _____ _____    ______ ____
ROOT
ATOM      1  C   LIG    1        4.469   6.264   2.894  0.00  0.00    +0.230 C 
ATOM      2  C   LIG    1        4.555   6.136   1.376  0.00  0.00    +0.030 C 
ATOM      3  C   LIG    1        3.417   6.900   0.745  0.00  0.00    +0.030 C 
ATOM      4  C   LIG    1        2.214   5.969   0.534  0.00  0.00    +0.250 C 
ATOM      5  N   LIG    1        2.002   5.058   1.676  0.00  0.00    -0.600 N 
ATOM      6  C   LIG    1        2.120   5.489   3.051  0.00  0.00    +0.290 C 
ATOM      7  C   LIG    1        1.692   3.771   1.426  0.00  0.00    +0.490 C 
ATOM      8  O   LIG    1        1.517   3.000   2.346  0.00  0.00    -0.520 OA
ATOM      9  C   LIG    1        3.577   5.286   3.535  0.00  0.00    +0.000 C 
ENDROOT
BRANCH   1  10
ATOM     10  N   LIG    1        5.814   6.102   3.451  0.00  0.00    -0.750 N 
ATOM     11  H   LIG    1        6.465   5.546   2.995  0.00  0.00    +0.400 HD
BRANCH  10  15
ATOM     12  C   LIG    1        6.761   8.043   6.966  0.00  0.00    +0.350 A 
ATOM     13  C   LIG    1        7.738   7.260   6.360  0.00  0.00    -0.060 A 
ATOM     14  C   LIG    1        7.437   6.598   5.184  0.00  0.00    +0.020 A 
ATOM     15  C   LIG    1        6.162   6.751   4.643  0.00  0.00    +0.110 A 
ATOM     16  C   LIG    1        5.239   7.548   5.303  0.00  0.00    +0.220 A 
ATOM     17  N   LIG    1        5.558   8.162   6.427  0.00  0.00    -0.510 NA
BRANCH  12  18
ATOM     18  N   LIG    1        7.052   8.709   8.154  0.00  0.00    -0.860 N 
ATOM     19  H   LIG    1        7.932   8.626   8.554  0.00  0.00    +0.400 HD
ATOM     20  H   LIG    1        6.375   9.257   8.582  0.00  0.00    +0.400 HD
ENDBRANCH  12  18
ENDBRANCH  10  15
ENDBRANCH   1  10
BRANCH   7  21
ATOM     21  C   LIG    1        1.561   3.289   0.004  0.00  0.00    +0.370 C 
BRANCH  21  22
ATOM     22  N   LIG    1        1.220   1.865   0.000  0.00  0.00    -0.610 N 
ATOM     23  C   LIG    1        2.164   0.734  -0.015  0.00  0.00    +0.320 C 
ATOM     24  C   LIG    1        1.261  -0.484  -0.013  0.00  0.00    +0.530 C 
ATOM     25  N   LIG    1        0.002  -0.004   0.002  0.00  0.00    -0.680 N 
ATOM     26  H   LIG    1       -0.793  -0.560   0.006  0.00  0.00    +0.430 HD
ATOM     27  O   LIG    1        1.601  -1.648  -0.023  0.00  0.00    -0.470 OA
ATOM     28  C   LIG    1       -0.016   1.334   0.009  0.00  0.00    +0.710 C 
ATOM     29  O   LIG    1       -1.035   1.996   0.018  0.00  0.00    -0.540 OA
ENDBRANCH  21  22
ENDBRANCH   7  21
TORSDOF 5
