REMARK  Name = ZINCrH000004tI4g.0
REMARK                            x       y       z     vdW  Elec       q    Type
REMARK                         _______ _______ _______ _____ _____    ______ ____
ROOT
ATOM      1  C   LIG    1       -2.553   3.867   0.048  0.00  0.00    +0.330 C 
ENDROOT
BRANCH   1   2
ATOM      2  C   LIG    1       -1.237   3.133   0.031  0.00  0.00    -0.150 A 
ATOM      3  C   LIG    1       -1.218   1.751   0.017  0.00  0.00    +0.070 A 
ATOM      4  C   LIG    1       -0.013   1.076   0.008  0.00  0.00    -0.020 A 
ATOM      5  C   LIG    1        1.179   1.786   0.000  0.00  0.00    +0.140 A 
ATOM      6  C   LIG    1        1.157   3.174   0.008  0.00  0.00    -0.080 A 
ATOM      7  C   LIG    1       -0.051   3.844   0.023  0.00  0.00    +0.070 A 
BRANCH   5   8
ATOM      8  O   LIG    1        2.366   1.125  -0.015  0.00  0.00    -0.310 OA
BRANCH   8   9
ATOM      9  C   LIG    1        3.553   1.921  -0.022  0.00  0.00    +0.270 C 
BRANCH   9  10
ATOM     10  C   LIG    1        4.761   1.021  -0.039  0.00  0.00    -0.150 A 
ATOM     11  C   LIG    1        5.339   0.600   1.149  0.00  0.00    +0.090 A 
ATOM     12  C   LIG    1        6.447  -0.233   1.085  0.00  0.00    -0.030 A 
ATOM     13  C   LIG    1        6.941  -0.602  -0.152  0.00  0.00    +0.270 A 
ATOM     14  N   LIG    1        6.369  -0.177  -1.262  0.00  0.00    -0.490 NA
ATOM     15  C   LIG    1        5.311   0.610  -1.239  0.00  0.00    +0.290 A 
ENDBRANCH   9  10
ENDBRANCH   8   9
ENDBRANCH   5   8
ENDBRANCH   1   2
BRANCH   1  18
ATOM     16  O   LIG    1       -4.833   5.137  -0.628  0.00  0.00    -0.540 OA
ATOM     17  C   LIG    1       -4.153   4.759  -1.559  0.00  0.00    +0.520 C 
ATOM     18  N   LIG    1       -2.994   4.112  -1.327  0.00  0.00    -0.730 N 
ATOM     19  H   LIG    1       -2.450   3.809  -2.072  0.00  0.00    +0.400 HD
BRANCH  17  20
ATOM     20  C   LIG    1       -4.606   5.011  -2.974  0.00  0.00    +0.080 C 
BRANCH  20  21
ATOM     21  C   LIG    1       -5.943   5.756  -2.956  0.00  0.00    +0.210 C 
BRANCH  21  22
ATOM     22  O   LIG    1       -6.372   5.995  -4.298  0.00  0.00    -0.320 OA
BRANCH  22  23
ATOM     23  C   LIG    1       -7.551   6.652  -4.461  0.00  0.00    +0.130 A 
ATOM     24  C   LIG    1       -8.281   7.053  -3.352  0.00  0.00    -0.080 A 
ATOM     25  C   LIG    1       -9.476   7.725  -3.520  0.00  0.00    +0.050 A 
ATOM     26  C   LIG    1       -9.949   7.989  -4.792  0.00  0.00    -0.040 A 
ATOM     27  C   LIG    1       -9.226   7.586  -5.899  0.00  0.00    +0.050 A 
ATOM     28  C   LIG    1       -8.027   6.918  -5.736  0.00  0.00    -0.020 A 
ENDBRANCH  22  23
ENDBRANCH  21  22
ENDBRANCH  20  21
ENDBRANCH  17  20
ENDBRANCH   1  18
TORSDOF 9
