REMARK  Name = ZINCkj000005jTE2.1
REMARK                            x       y       z     vdW  Elec       q    Type
REMARK                         _______ _______ _______ _____ _____    ______ ____
ROOT
ATOM      1  C   LIG    1       -0.424   1.548  -7.202  0.00  0.00    +0.070 C 
ATOM      2  C   LIG    1       -1.018   1.466  -5.794  0.00  0.00    +0.140 C 
ATOM      3  C   LIG    1        0.022   1.938  -4.772  0.00  0.00    +0.290 C 
ATOM      4  N   LIG    1       -0.629   2.028  -3.455  0.00  0.00    -0.630 N 
ATOM      5  C   LIG    1       -1.897   2.768  -3.360  0.00  0.00    +0.240 C 
ATOM      6  C   LIG    1       -2.841   2.260  -4.450  0.00  0.00    +0.220 C 
ATOM      7  C   LIG    1       -0.082   1.445  -2.370  0.00  0.00    +0.720 C 
ATOM      8  N   LIG    1       -0.639   1.626  -1.156  0.00  0.00    -0.760 N 
ATOM      9  H   LIG    1       -1.472   2.115  -1.072  0.00  0.00    +0.390 HD
ATOM     10  O   LIG    1        0.913   0.756  -2.486  0.00  0.00    -0.570 OA
ATOM     11  O   LIG    1       -2.172   2.306  -5.713  0.00  0.00    -0.370 OA
ENDROOT
BRANCH   8  12
ATOM     12  C   LIG    1        0.015   1.084   0.038  0.00  0.00    +0.340 C 
BRANCH  12  13
ATOM     13  C   LIG    1       -0.750   1.532   1.286  0.00  0.00    +0.300 C 
BRANCH  13  14
ATOM     14  C   LIG    1       -0.662   3.030   1.418  0.00  0.00    -0.110 A 
ATOM     15  C   LIG    1        0.171   3.700   2.235  0.00  0.00    +0.030 A 
ATOM     16  C   LIG    1       -0.080   5.077   2.036  0.00  0.00    -0.050 A 
ATOM     17  C   LIG    1       -1.057   5.166   1.116  0.00  0.00    +0.230 A 
ATOM     18  O   LIG    1       -1.405   3.923   0.745  0.00  0.00    -0.190 OA
ENDBRANCH  13  14
BRANCH  13  19
ATOM     19  N   LIG    1       -2.159   1.133   1.166  0.00  0.00    -0.390 N 
ATOM     20  C   LIG    1       -2.915   1.659   2.310  0.00  0.00    +0.330 C 
ATOM     21  C   LIG    1       -2.253  -0.333   1.150  0.00  0.00    +0.330 C 
ATOM     22  H   LIG    1       -2.542   1.504   0.310  0.00  0.00    +0.420 HD
ENDBRANCH  13  19
ENDBRANCH  12  13
ENDBRANCH   8  12
TORSDOF 4
