REMARK  Name = ZINCpe00000FUpgH.0
REMARK                            x       y       z     vdW  Elec       q    Type
REMARK                         _______ _______ _______ _____ _____    ______ ____
ROOT
ATOM      1  O   LIG    1        2.117  -2.811   2.410  0.00  0.00    -0.530 OA
ATOM      2  C   LIG    1        1.909  -2.238   3.459  0.00  0.00    +0.500 C 
ATOM      3  N   LIG    1        2.101  -2.881   4.628  0.00  0.00    -0.620 N 
ATOM      4  C   LIG    1        1.861  -2.204   5.910  0.00  0.00    +0.280 C 
ATOM      5  C   LIG    1        0.941  -3.094   6.761  0.00  0.00    +0.200 C 
ATOM      6  N   LIG    1        1.529  -4.435   6.869  0.00  0.00    -0.480 N 
ATOM      7  C   LIG    1        1.620  -5.084   5.554  0.00  0.00    +0.190 C 
ATOM      8  C   LIG    1        2.562  -4.278   4.654  0.00  0.00    +0.300 C 
ENDROOT
BRANCH   6   9
ATOM      9  C   LIG    1        0.810  -5.227   7.770  0.00  0.00    +0.080 A 
ATOM     10  C   LIG    1        1.252  -6.506   8.078  0.00  0.00    +0.030 A 
ATOM     11  C   LIG    1        0.543  -7.283   8.974  0.00  0.00    +0.030 A 
ATOM     12  C   LIG    1       -0.613  -6.794   9.554  0.00  0.00    +0.020 A 
ATOM     13  C   LIG    1       -1.061  -5.522   9.245  0.00  0.00    +0.010 A 
ATOM     14  C   LIG    1       -0.353  -4.737   8.354  0.00  0.00    +0.050 A 
ATOM     15  F   LIG    1       -0.790  -3.494   8.053  0.00  0.00    -0.140 F 
ENDBRANCH   6   9
BRANCH   2  16
ATOM     16  C   LIG    1        1.437  -0.807   3.455  0.00  0.00    +0.310 C 
BRANCH  16  17
ATOM     17  N   LIG    1        1.307  -0.339   2.073  0.00  0.00    -0.580 N 
ATOM     18  C   LIG    1        2.455   0.294   1.404  0.00  0.00    +0.290 C 
ATOM     19  C   LIG    1        2.177   1.792   1.267  0.00  0.00    -0.000 C 
ATOM     20  C   LIG    1        1.393   2.083  -0.000  0.00  0.00    +0.020 C 
ATOM     21  C   LIG    1       -0.019   1.526   0.010  0.00  0.00    +0.050 C 
ATOM     22  C   LIG    1        0.002  -0.004   0.002  0.00  0.00    +0.190 C 
ATOM     23  C   LIG    1        0.149  -0.490   1.429  0.00  0.00    +0.490 C 
ATOM     24  O   LIG    1       -0.788  -1.019   1.987  0.00  0.00    -0.540 OA
BRANCH  22  25
ATOM     25  O   LIG    1        1.107  -0.465  -0.779  0.00  0.00    -0.540 OA
ATOM     26  H   LIG    1        1.180  -1.428  -0.827  0.00  0.00    +0.390 HD
ENDBRANCH  22  25
ENDBRANCH  16  17
ENDBRANCH   2  16
TORSDOF 4
