REMARK  Name = ZINCtV00000L6kvS.0
REMARK                            x       y       z     vdW  Elec       q    Type
REMARK                         _______ _______ _______ _____ _____    ______ ____
ROOT
ATOM      1  N   LIG    1       -0.079   1.126  -4.066  0.00  0.00    -0.390 N 
ATOM      2  C   LIG    1        0.927   0.435  -4.702  0.00  0.00    +0.170 A 
ATOM      3  C   LIG    1        1.709  -0.102  -3.733  0.00  0.00    +0.050 A 
ATOM      4  N   LIG    1        1.195   0.260  -2.531  0.00  0.00    -0.470 NA
ATOM      5  C   LIG    1        0.122   0.990  -2.724  0.00  0.00    +0.190 A 
ENDROOT
BRANCH   1  12
ATOM      6  C   LIG    1       -0.174   3.949  -3.709  0.00  0.00    +0.100 C 
ATOM      7  C   LIG    1       -1.199   3.216  -4.535  0.00  0.00    -0.060 A 
ATOM      8  C   LIG    1       -2.223   3.915  -5.144  0.00  0.00    +0.030 A 
ATOM      9  C   LIG    1       -3.165   3.243  -5.902  0.00  0.00    +0.030 A 
ATOM     10  C   LIG    1       -3.085   1.871  -6.052  0.00  0.00    +0.020 A 
ATOM     11  C   LIG    1       -2.060   1.167  -5.449  0.00  0.00    +0.030 A 
ATOM     12  C   LIG    1       -1.116   1.838  -4.684  0.00  0.00    +0.090 A 
ENDBRANCH   1  12
BRANCH   3  13
ATOM     13  C   LIG    1        2.919  -0.932  -3.949  0.00  0.00    -0.000 A 
ATOM     14  C   LIG    1        3.341  -1.229  -5.244  0.00  0.00    +0.010 A 
ATOM     15  C   LIG    1        4.470  -1.998  -5.439  0.00  0.00    +0.000 A 
ATOM     16  C   LIG    1        5.177  -2.483  -4.353  0.00  0.00    +0.000 A 
ATOM     17  C   LIG    1        4.760  -2.195  -3.065  0.00  0.00    +0.000 A 
ATOM     18  C   LIG    1        3.635  -1.422  -2.858  0.00  0.00    +0.040 A 
ENDBRANCH   3  13
BRANCH   5  19
ATOM     19  S   LIG    1       -0.888   1.685  -1.458  0.00  0.00    +0.050 S 
BRANCH  19  20
ATOM     20  C   LIG    1       -0.013   1.086   0.008  0.00  0.00    +0.090 C 
BRANCH  20  21
ATOM     21  C   LIG    1       -0.718   1.572   1.248  0.00  0.00    +0.420 C 
ATOM     22  O   LIG    1       -1.714   2.256   1.150  0.00  0.00    -0.430 OA
BRANCH  21  23
ATOM     23  C   LIG    1       -0.198   1.216   2.577  0.00  0.00    -0.160 A 
ATOM     24  C   LIG    1        0.948   0.422   2.694  0.00  0.00    +0.080 A 
ATOM     25  C   LIG    1        1.432   0.096   3.943  0.00  0.00    +0.020 A 
ATOM     26  C   LIG    1        0.781   0.545   5.080  0.00  0.00    -0.000 A 
ATOM     27  C   LIG    1       -0.358   1.328   4.972  0.00  0.00    +0.020 A 
ATOM     28 CL   LIG    1        1.394   0.124   6.649  0.00  0.00    -0.060 Cl
ATOM     29  C   LIG    1       -0.850   1.666   3.730  0.00  0.00    +0.110 A 
ENDBRANCH  21  23
ENDBRANCH  20  21
ENDBRANCH  19  20
ENDBRANCH   5  19
TORSDOF 6
