REMARK  Name = ZINCrD00000hQ6Y6.0
REMARK                            x       y       z     vdW  Elec       q    Type
REMARK                         _______ _______ _______ _____ _____    ______ ____
ROOT
ATOM      1  C   LIG    1       -2.545   1.708  -0.657  0.00  0.00    -0.280 A 
ATOM      2  C   LIG    1       -3.484   2.677  -0.370  0.00  0.00    +0.300 A 
ATOM      3  N   LIG    1       -2.897   3.605   0.401  0.00  0.00    -0.460 N 
ATOM      4  H   LIG    1       -3.330   4.401   0.745  0.00  0.00    +0.450 HD
ATOM      5  N   LIG    1       -1.565   3.249   0.632  0.00  0.00    -0.270 NA
ATOM      6  C   LIG    1       -1.310   2.116   0.020  0.00  0.00    +0.180 A 
ENDROOT
BRANCH   6   7
ATOM      7  C   LIG    1       -0.017   1.390   0.010  0.00  0.00    -0.000 A 
ATOM      8  C   LIG    1        0.002  -0.004   0.002  0.00  0.00    +0.080 A 
ATOM      9  C   LIG    1        1.207  -0.678  -0.013  0.00  0.00    +0.040 A 
ATOM     10  C   LIG    1        2.397   0.026  -0.021  0.00  0.00    -0.040 A 
ATOM     11  C   LIG    1        2.387   1.414  -0.014  0.00  0.00    +0.090 A 
ATOM     12  C   LIG    1        1.183   2.099   0.002  0.00  0.00    +0.040 A 
BRANCH  11  13
ATOM     13  O   LIG    1        3.559   2.102  -0.022  0.00  0.00    -0.320 OA
BRANCH  13  14
ATOM     14  C   LIG    1        4.763   1.333  -0.038  0.00  0.00    +0.590 C 
ATOM     15  F   LIG    1        4.789   0.531  -1.185  0.00  0.00    -0.200 F 
ATOM     16  F   LIG    1        4.812   0.520   1.099  0.00  0.00    -0.200 F 
ENDBRANCH  13  14
ENDBRANCH  11  13
ENDBRANCH   6   7
BRANCH   1  19
ATOM     17  N   LIG    1       -3.945   0.259  -2.040  0.00  0.00    -0.730 N 
ATOM     18  H   LIG    1       -4.678   0.880  -1.904  0.00  0.00    +0.400 HD
ATOM     19  C   LIG    1       -2.744   0.501  -1.478  0.00  0.00    +0.590 C 
ATOM     20  O   LIG    1       -1.825  -0.277  -1.648  0.00  0.00    -0.520 OA
BRANCH  17  21
ATOM     21  C   LIG    1       -4.143  -0.941  -2.856  0.00  0.00    +0.260 C 
BRANCH  21  22
ATOM     22  C   LIG    1       -5.583  -0.976  -3.371  0.00  0.00    +0.100 C 
BRANCH  22  23
ATOM     23  C   LIG    1       -5.790  -2.229  -4.223  0.00  0.00    +0.030 C 
ATOM     24  N   LIG    1       -4.902  -3.375  -4.012  0.00  0.00    -0.110 NA
ATOM     25  N   LIG    1       -4.673  -2.716  -5.037  0.00  0.00    -0.120 NA
BRANCH  23  26
ATOM     26  C   LIG    1       -7.218  -2.487  -4.710  0.00  0.00    +0.120 C 
BRANCH  26  27
ATOM     27  C   LIG    1       -7.248  -3.771  -5.542  0.00  0.00    +0.160 C 
BRANCH  27  29
ATOM     28  C   LIG    1       -9.717  -4.218  -6.384  0.00  0.00    +0.030 C 
ATOM     29  C   LIG    1       -8.621  -4.019  -6.011  0.00  0.00    -0.190 C 
ENDBRANCH  27  29
ENDBRANCH  26  27
ENDBRANCH  23  26
ENDBRANCH  22  23
ENDBRANCH  21  22
ENDBRANCH  17  21
ENDBRANCH   1  19
TORSDOF 10
