REMARK  Name = ZINCbw0000000Ho1.0
REMARK                            x       y       z     vdW  Elec       q    Type
REMARK                         _______ _______ _______ _____ _____    ______ ____
ROOT
ATOM      1  C   LIG    1        0.758   3.257   0.012  0.00  0.00    -0.020 A 
ATOM      2  C   LIG    1       -0.578   3.509   0.025  0.00  0.00    -0.010 A 
ATOM      3  S   LIG    1       -1.468   2.056   0.019  0.00  0.00    +0.290 S 
ATOM      4  C   LIG    1       -0.013   1.076   0.008  0.00  0.00    +0.020 A 
ATOM      5  C   LIG    1        1.069   1.847   0.002  0.00  0.00    -0.170 A 
ENDROOT
BRANCH   5   6
ATOM      6  C   LIG    1        2.475   1.306  -0.015  0.00  0.00    +0.530 C 
ATOM      7  F   LIG    1        3.158   1.748   1.123  0.00  0.00    -0.170 F 
ATOM      8  F   LIG    1        3.136   1.760  -1.161  0.00  0.00    -0.170 F 
ATOM      9  F   LIG    1        2.437  -0.092  -0.022  0.00  0.00    -0.170 F 
ENDBRANCH   5   6
BRANCH   1  11
ATOM     10  N   LIG    1        2.546   5.101   0.006  0.00  0.00    -0.380 NA
ATOM     11  C   LIG    1        1.755   4.285   0.009  0.00  0.00    +0.260 C 
ENDBRANCH   1  11
TORSDOF 2
