REMARK  Name = ZINCqH0000060ajw.0
REMARK                            x       y       z     vdW  Elec       q    Type
REMARK                         _______ _______ _______ _____ _____    ______ ____
ROOT
ATOM      1  N   LIG    1       -1.328   3.583   2.535  0.00  0.00    -0.360 N 
ATOM      2  N   LIG    1       -2.619   3.317   3.019  0.00  0.00    -0.280 NA
ATOM      3  C   LIG    1       -2.721   3.929   4.179  0.00  0.00    +0.270 A 
ATOM      4  N   LIG    1       -1.569   4.564   4.433  0.00  0.00    -0.470 NA
ATOM      5  C   LIG    1       -0.728   4.362   3.453  0.00  0.00    +0.280 A 
ENDROOT
BRANCH   3   6
ATOM      6  C   LIG    1       -3.917   3.922   5.057  0.00  0.00    +0.180 A 
ATOM      7  C   LIG    1       -5.041   3.219   4.665  0.00  0.00    +0.040 A 
ATOM      8  C   LIG    1       -6.164   3.224   5.509  0.00  0.00    -0.030 A 
ATOM      9  C   LIG    1       -7.343   2.537   5.185  0.00  0.00    +0.020 A 
ATOM     10  C   LIG    1       -8.400   2.577   6.043  0.00  0.00    +0.030 A 
ATOM     11  C   LIG    1       -8.328   3.291   7.237  0.00  0.00    +0.020 A 
ATOM     12  C   LIG    1       -7.199   3.970   7.584  0.00  0.00    +0.050 A 
ATOM     13  C   LIG    1       -6.089   3.952   6.726  0.00  0.00    -0.110 A 
ATOM     14  C   LIG    1       -4.900   4.635   7.035  0.00  0.00    +0.320 A 
ATOM     15  N   LIG    1       -3.882   4.591   6.212  0.00  0.00    -0.450 NA
ENDBRANCH   3   6
BRANCH   5  16
ATOM     16  C   LIG    1        0.673   4.910   3.366  0.00  0.00    -0.330 C 
ATOM     17  C   LIG    1        1.594   4.183   4.367  0.00  0.00    +0.100 C 
ATOM     18  C   LIG    1        2.651   5.181   4.877  0.00  0.00    +0.080 C 
ATOM     19  C   LIG    1        1.891   6.477   5.260  0.00  0.00    -0.290 C 
ATOM     20  S   LIG    1        0.702   6.666   3.877  0.00  0.00    +2.400 S 
ATOM     21  O   LIG    1       -0.572   7.027   4.393  0.00  0.00    -0.890 OA
ATOM     22  O   LIG    1        1.297   7.446   2.849  0.00  0.00    -0.930 OA
ENDBRANCH   5  16
BRANCH   1  23
ATOM     23  C   LIG    1       -0.750   3.109   1.275  0.00  0.00    +0.260 C 
ATOM     24  C   LIG    1       -1.595   3.614   0.104  0.00  0.00    +0.040 C 
BRANCH  23  26
ATOM     25  C   LIG    1       -0.013   1.086   0.008  0.00  0.00    +0.030 C 
ATOM     26  C   LIG    1       -0.729   1.579   1.267  0.00  0.00    +0.020 C 
ENDBRANCH  23  26
ENDBRANCH   1  23
TORSDOF 4
