REMARK  Name = ZINCqH0000005j3i.0
REMARK                            x       y       z     vdW  Elec       q    Type
REMARK                         _______ _______ _______ _____ _____    ______ ____
ROOT
ATOM      1  C   LIG    1        1.263   3.123  -0.055  0.00  0.00    -0.190 A 
ATOM      2  C   LIG    1        1.311   1.816  -0.551  0.00  0.00    +0.140 A 
ATOM      3  C   LIG    1        0.164   1.045  -0.484  0.00  0.00    -0.060 A 
ATOM      4  C   LIG    1       -0.987   1.583   0.061  0.00  0.00    +0.330 A 
ATOM      5  N   LIG    1       -1.009   2.817   0.529  0.00  0.00    -0.530 NA
ATOM      6  C   LIG    1        0.058   3.596   0.489  0.00  0.00    +0.370 A 
ENDROOT
BRANCH   1   8
ATOM      7  N   LIG    1        3.671   3.478   0.181  0.00  0.00    -0.610 N 
ATOM      8  C   LIG    1        2.456   3.989  -0.101  0.00  0.00    +0.570 C 
ATOM      9  O   LIG    1        2.344   5.164  -0.395  0.00  0.00    -0.510 OA
ATOM     10  C   LIG    1        3.793   2.095   0.648  0.00  0.00    +0.280 C 
BRANCH   7  11
ATOM     11  C   LIG    1        4.869   4.305   0.021  0.00  0.00    +0.380 C 
BRANCH  11  15
ATOM     12  C   LIG    1        6.639   5.442   4.570  0.00  0.00    +0.360 C 
ATOM     13  N   LIG    1        5.928   5.521   3.292  0.00  0.00    -0.380 N 
ATOM     14  C   LIG    1        5.926   4.580   2.325  0.00  0.00    +0.240 A 
ATOM     15  C   LIG    1        5.154   5.032   1.310  0.00  0.00    -0.260 A 
ATOM     16  C   LIG    1        4.672   6.295   1.666  0.00  0.00    +0.260 A 
ATOM     17  N   LIG    1        5.130   6.587   2.857  0.00  0.00    -0.300 NA
ENDBRANCH  11  15
ENDBRANCH   7  11
ENDBRANCH   1   8
BRANCH   6  18
ATOM     18  O   LIG    1       -0.011   4.858   0.975  0.00  0.00    -0.220 OA
BRANCH  18  19
ATOM     19  C   LIG    1       -1.159   5.240   1.596  0.00  0.00    +0.110 A 
ATOM     20  C   LIG    1       -2.127   5.942   0.895  0.00  0.00    +0.080 A 
ATOM     21  C   LIG    1       -3.295   6.327   1.526  0.00  0.00    +0.030 A 
ATOM     22  C   LIG    1       -3.494   6.020   2.861  0.00  0.00    +0.110 A 
ATOM     23  C   LIG    1       -2.526   5.324   3.565  0.00  0.00    +0.030 A 
ATOM     24  F   LIG    1       -4.634   6.400   3.478  0.00  0.00    -0.130 F 
ATOM     25  C   LIG    1       -1.359   4.934   2.935  0.00  0.00    -0.070 A 
ATOM     26 BR   LIG    1       -0.036   3.983   3.896  0.00  0.00    -0.020 Br
ENDBRANCH  18  19
ENDBRANCH   6  18
TORSDOF 5
