REMARK  Name = ZINCrD00000lbR3f.0
REMARK                            x       y       z     vdW  Elec       q    Type
REMARK                         _______ _______ _______ _____ _____    ______ ____
ROOT
ATOM      1  C   LIG    1       -8.461  -1.242   0.819  0.00  0.00    -0.020 A 
ATOM      2  C   LIG    1       -8.493   0.141   0.932  0.00  0.00    -0.050 A 
ATOM      3  C   LIG    1       -7.304   0.843   0.971  0.00  0.00    +0.300 A 
ATOM      4  N   LIG    1       -6.145   0.214   0.907  0.00  0.00    -0.520 NA
ATOM      5  C   LIG    1       -6.075  -1.102   0.794  0.00  0.00    +0.310 A 
ATOM      6  C   LIG    1       -7.231  -1.871   0.749  0.00  0.00    -0.020 A 
ENDROOT
BRANCH   1   7
ATOM      7  C   LIG    1       -9.739  -2.040   0.773  0.00  0.00    +0.340 C 
BRANCH   7   8
ATOM      8  N   LIG    1      -10.132  -2.412   2.135  0.00  0.00    -1.120 NA
ATOM      9  H   LIG    1       -9.488  -2.354   2.858  0.00  0.00    +0.420 HD
BRANCH   8  10
ATOM     10  S   LIG    1      -11.675  -2.930   2.439  0.00  0.00    +2.790 S 
ATOM     11  O   LIG    1      -12.543  -1.999   1.807  0.00  0.00    -0.970 OA
ATOM     12  O   LIG    1      -11.732  -3.226   3.828  0.00  0.00    -0.970 OA
BRANCH  10  13
ATOM     13  N   LIG    1      -11.874  -4.369   1.646  0.00  0.00    -1.010 NA
ATOM     14  C   LIG    1      -12.283  -4.380   0.239  0.00  0.00    +0.300 C 
BRANCH  13  15
ATOM     15  C   LIG    1      -11.642  -5.633   2.350  0.00  0.00    +0.280 C 
BRANCH  15  16
ATOM     16  C   LIG    1      -12.966  -6.158   2.907  0.00  0.00    +0.000 C 
BRANCH  16  18
ATOM     17  C   LIG    1      -14.031  -7.935   4.303  0.00  0.00    +0.020 C 
ATOM     18  C   LIG    1      -12.706  -7.410   3.747  0.00  0.00    +0.010 C 
ENDBRANCH  16  18
ENDBRANCH  15  16
ENDBRANCH  13  15
ENDBRANCH  10  13
ENDBRANCH   8  10
ENDBRANCH   7   8
ENDBRANCH   1   7
BRANCH   5  19
ATOM     19  O   LIG    1       -4.862  -1.706   0.726  0.00  0.00    -0.240 OA
BRANCH  19  20
ATOM     20  C   LIG    1       -3.754  -0.934   0.881  0.00  0.00    +0.050 A 
ATOM     21  C   LIG    1       -3.445  -0.407   2.127  0.00  0.00    +0.060 A 
ATOM     22  C   LIG    1       -2.320   0.377   2.285  0.00  0.00    +0.000 A 
ATOM     23  C   LIG    1       -1.498   0.639   1.199  0.00  0.00    +0.140 A 
ATOM     24  C   LIG    1       -1.810   0.117  -0.048  0.00  0.00    -0.060 A 
ATOM     25  C   LIG    1       -2.932  -0.673  -0.205  0.00  0.00    +0.060 A 
BRANCH  23  26
ATOM     26  O   LIG    1       -0.390   1.411   1.355  0.00  0.00    -0.310 OA
BRANCH  26  27
ATOM     27  C   LIG    1        0.410   1.639   0.193  0.00  0.00    +0.170 C 
ATOM     28  C   LIG    1        1.604   2.523   0.561  0.00  0.00    +0.070 C 
ENDBRANCH  26  27
ENDBRANCH  23  26
ENDBRANCH  19  20
ENDBRANCH   5  19
TORSDOF 11
