REMARK  Name = ZINCrH000004uoWE.0
REMARK                            x       y       z     vdW  Elec       q    Type
REMARK                         _______ _______ _______ _____ _____    ______ ____
ROOT
ATOM      1  O   LIG    1       -1.857   8.273   3.082  0.00  0.00    -0.530 OA
ATOM      2  C   LIG    1       -1.183   8.804   2.219  0.00  0.00    +0.570 C 
ATOM      3  N   LIG    1       -0.620   8.058   1.248  0.00  0.00    -0.730 N 
ATOM      4  H   LIG    1       -0.083   8.481   0.560  0.00  0.00    +0.400 HD
ENDROOT
BRANCH   2   5
ATOM      5  C   LIG    1       -0.985  10.253   2.235  0.00  0.00    -0.240 C 
ATOM      6  C   LIG    1       -1.550  11.007   3.210  0.00  0.00    +0.170 C 
ATOM      7  C   LIG    1       -1.334  12.462   3.166  0.00  0.00    -0.160 A 
ATOM      8  C   LIG    1       -1.583  13.268   4.276  0.00  0.00    +0.070 A 
ATOM      9  C   LIG    1       -1.365  14.628   4.190  0.00  0.00    -0.020 A 
ATOM     10  C   LIG    1       -0.903  15.190   3.011  0.00  0.00    +0.060 A 
ATOM     11  C   LIG    1       -0.654  14.400   1.904  0.00  0.00    -0.010 A 
ATOM     12  C   LIG    1       -0.866  13.035   1.971  0.00  0.00    +0.140 A 
ATOM     13  O   LIG    1       -0.632  12.232   0.903  0.00  0.00    -0.300 OA
ATOM     14  C   LIG    1       -0.146  10.914   1.171  0.00  0.00    +0.300 C 
ENDBRANCH   2   5
BRANCH   3  15
ATOM     15  C   LIG    1       -0.819   6.606   1.232  0.00  0.00    +0.290 C 
BRANCH  15  16
ATOM     16  C   LIG    1       -0.079   6.003   0.036  0.00  0.00    +0.320 C 
BRANCH  16  17
ATOM     17  C   LIG    1       -0.181   4.501   0.088  0.00  0.00    -0.110 A 
ATOM     18  C   LIG    1        0.967   3.732   0.143  0.00  0.00    +0.060 A 
ATOM     19  C   LIG    1        0.874   2.354   0.191  0.00  0.00    +0.030 A 
ATOM     20  C   LIG    1       -0.368   1.744   0.184  0.00  0.00    -0.020 A 
ATOM     21  C   LIG    1       -1.516   2.513   0.123  0.00  0.00    +0.030 A 
ATOM     22 CL   LIG    1       -0.485   0.013   0.245  0.00  0.00    -0.060 Cl
ATOM     23  C   LIG    1       -1.422   3.892   0.080  0.00  0.00    +0.050 A 
ENDBRANCH  16  17
BRANCH  16  24
ATOM     24  N   LIG    1       -0.682   6.491  -1.207  0.00  0.00    -0.370 N 
ATOM     25  C   LIG    1       -1.993   6.739  -1.410  0.00  0.00    +0.230 A 
ATOM     26  C   LIG    1       -2.138   7.173  -2.683  0.00  0.00    -0.120 A 
ATOM     27  C   LIG    1       -0.873   7.191  -3.279  0.00  0.00    +0.230 A 
ATOM     28  N   LIG    1        0.002   6.788  -2.393  0.00  0.00    -0.290 NA
ENDBRANCH  16  24
ENDBRANCH  15  16
ENDBRANCH   3  15
TORSDOF 5
