REMARK  Name = ZINCrH000004joKZ.0
REMARK                            x       y       z     vdW  Elec       q    Type
REMARK                         _______ _______ _______ _____ _____    ______ ____
ROOT
ATOM      1  C   LIG    1       -2.430  -2.974  -0.208  0.00  0.00    +0.310 C 
ATOM      2  C   LIG    1       -1.923  -4.426  -0.338  0.00  0.00    +0.060 C 
ATOM      3  C   LIG    1       -0.475  -4.242  -0.864  0.00  0.00    +0.050 C 
ATOM      4  C   LIG    1       -0.039  -2.950  -0.134  0.00  0.00    +0.260 C 
ATOM      5  N   LIG    1       -1.248  -2.107  -0.099  0.00  0.00    -0.600 N 
ATOM      6  C   LIG    1       -1.266  -0.764   0.011  0.00  0.00    +0.580 C 
ATOM      7  O   LIG    1       -2.326  -0.175   0.091  0.00  0.00    -0.520 OA
ENDROOT
BRANCH   1  16
ATOM      8  N   LIG    1       -4.635  -2.699   1.030  0.00  0.00    -0.480 N 
ATOM      9  C   LIG    1       -5.036  -2.606   2.348  0.00  0.00    +0.050 A 
ATOM     10  C   LIG    1       -6.265  -2.455   2.976  0.00  0.00    +0.010 A 
ATOM     11  C   LIG    1       -6.325  -2.394   4.352  0.00  0.00    +0.030 A 
ATOM     12  C   LIG    1       -5.167  -2.482   5.111  0.00  0.00    +0.000 A 
ATOM     13  C   LIG    1       -3.949  -2.630   4.510  0.00  0.00    +0.070 A 
ATOM     14  C   LIG    1       -3.864  -2.695   3.117  0.00  0.00    +0.050 A 
ATOM     15  N   LIG    1       -2.831  -2.841   2.248  0.00  0.00    -0.480 NA
ATOM     16  C   LIG    1       -3.282  -2.838   1.028  0.00  0.00    +0.280 A 
BRANCH   8  18
ATOM     17  C   LIG    1       -5.955  -4.076  -0.501  0.00  0.00    +0.030 C 
ATOM     18  C   LIG    1       -5.506  -2.657  -0.148  0.00  0.00    +0.280 C 
ENDBRANCH   8  18
ENDBRANCH   1  16
BRANCH   6  19
ATOM     19  C   LIG    1        0.003  -0.006   0.032  0.00  0.00    -0.090 A 
ATOM     20  C   LIG    1        1.173  -0.612   0.493  0.00  0.00    +0.030 A 
ATOM     21  C   LIG    1        2.355   0.100   0.510  0.00  0.00    +0.100 A 
ATOM     22  C   LIG    1        2.382   1.412   0.071  0.00  0.00    -0.440 A 
ATOM     23  C   LIG    1        1.226   2.018  -0.388  0.00  0.00    +0.070 A 
ATOM     24  C   LIG    1        0.037   1.317  -0.410  0.00  0.00    +0.050 A 
BRANCH  22  25
ATOM     25  S   LIG    1        3.895   2.314   0.095  0.00  0.00    +1.330 S 
ATOM     26  O   LIG    1        3.687   3.313  -0.893  0.00  0.00    -0.850 OA
ATOM     27  C   LIG    1        3.887   3.079   1.740  0.00  0.00    -0.200 C 
ENDBRANCH  22  25
ENDBRANCH   6  19
TORSDOF 4
