REMARK  Name = ZINCpk00000kJT54.0
REMARK                            x       y       z     vdW  Elec       q    Type
REMARK                         _______ _______ _______ _____ _____    ______ ____
ROOT
ATOM      1  C   LIG    1       -2.604   6.481   0.060  0.00  0.00    +0.600 C 
ATOM      2  N   LIG    1       -3.950   6.420   0.072  0.00  0.00    -0.710 N 
ATOM      3  H   LIG    1       -4.397   5.559   0.073  0.00  0.00    +0.410 HD
ATOM      4  O   LIG    1       -2.045   7.560   0.059  0.00  0.00    -0.510 OA
ENDROOT
BRANCH   1  12
ATOM      5  C   LIG    1        2.462   3.933   0.000  0.00  0.00    +0.130 C 
ATOM      6  C   LIG    1        1.175   3.150   0.008  0.00  0.00    -0.070 A 
ATOM      7  C   LIG    1        1.197   1.790   0.000  0.00  0.00    +0.050 A 
ATOM      8  C   LIG    1       -0.013   1.076   0.008  0.00  0.00    +0.020 A 
ATOM      9  C   LIG    1       -1.192   1.730   0.017  0.00  0.00    +0.260 A 
ATOM     10  N   LIG    1       -1.233   3.095   0.030  0.00  0.00    -0.260 N 
ATOM     11  N   LIG    1       -2.298   4.005   0.045  0.00  0.00    -0.290 NA
ATOM     12  C   LIG    1       -1.808   5.236   0.046  0.00  0.00    +0.060 A 
ATOM     13  C   LIG    1       -0.412   5.160   0.033  0.00  0.00    -0.050 A 
ATOM     14  C   LIG    1       -0.066   3.818   0.023  0.00  0.00    +0.100 A 
ENDBRANCH   1  12
BRANCH   2  15
ATOM     15  C   LIG    1       -4.739   7.654   0.086  0.00  0.00    +0.260 C 
ATOM     16  C   LIG    1       -6.131   7.385   0.695  0.00  0.00    +0.060 C 
ATOM     17  C   LIG    1       -7.041   7.136  -0.534  0.00  0.00    -0.020 C 
ATOM     18  C   LIG    1       -6.504   8.155  -1.569  0.00  0.00    +0.000 C 
ATOM     19  C   LIG    1       -4.976   8.144  -1.354  0.00  0.00    +0.150 C 
BRANCH  19  20
ATOM     20  O   LIG    1       -4.449   9.463  -1.514  0.00  0.00    -0.550 OA
ATOM     21  H   LIG    1       -4.566   9.828  -2.402  0.00  0.00    +0.380 HD
ENDBRANCH  19  20
BRANCH  17  22
ATOM     22  C   LIG    1       -8.504   7.429  -0.193  0.00  0.00    +0.310 C 
BRANCH  22  23
ATOM     23  N   LIG    1       -9.352   7.072  -1.333  0.00  0.00    -0.460 N 
ATOM     24  C   LIG    1       -9.716   7.895  -2.364  0.00  0.00    +0.120 A 
ATOM     25  C   LIG    1      -10.491   7.167  -3.190  0.00  0.00    +0.140 A 
ATOM     26  N   LIG    1      -10.605   5.935  -2.672  0.00  0.00    -0.500 NA
ATOM     27  C   LIG    1       -9.925   5.871  -1.560  0.00  0.00    +0.380 A 
ENDBRANCH  22  23
ENDBRANCH  17  22
ENDBRANCH   2  15
TORSDOF 5
