REMARK  Name = ZINCrD0000073ejF.0
REMARK                            x       y       z     vdW  Elec       q    Type
REMARK                         _______ _______ _______ _____ _____    ______ ____
ROOT
ATOM      1  C   LIG    1        7.585  -1.540  -1.625  0.00  0.00    +0.520 C 
ATOM      2  O   LIG    1        8.242  -1.902  -0.670  0.00  0.00    -0.490 OA
ENDROOT
BRANCH   1   5
ATOM      3  C   LIG    1        9.724  -2.719  -4.478  0.00  0.00    +0.140 A 
ATOM      4  C   LIG    1        9.276  -2.472  -3.194  0.00  0.00    -0.020 A 
ATOM      5  C   LIG    1        8.065  -1.805  -2.994  0.00  0.00    -0.050 A 
ATOM      6  C   LIG    1        7.307  -1.394  -4.094  0.00  0.00    -0.030 A 
ATOM      7  C   LIG    1        7.762  -1.639  -5.376  0.00  0.00    +0.140 A 
ATOM      8  C   LIG    1        8.970  -2.304  -5.572  0.00  0.00    +0.070 A 
BRANCH   3  10
ATOM      9  C   LIG    1       11.625  -3.768  -3.507  0.00  0.00    +0.250 C 
ATOM     10  O   LIG    1       10.903  -3.369  -4.673  0.00  0.00    -0.300 OA
ENDBRANCH   3  10
BRANCH   7  11
ATOM     11  O   LIG    1        7.027  -1.234  -6.447  0.00  0.00    -0.300 OA
ATOM     12  C   LIG    1        5.799  -0.557  -6.172  0.00  0.00    +0.250 C 
ENDBRANCH   7  11
BRANCH   8  13
ATOM     13  O   LIG    1        9.412  -2.548  -6.833  0.00  0.00    -0.310 OA
ATOM     14  C   LIG    1        9.009  -3.780  -7.436  0.00  0.00    +0.240 C 
ENDBRANCH   8  13
ENDBRANCH   1   5
BRANCH   1  15
ATOM     15  O   LIG    1        6.417  -0.896  -1.434  0.00  0.00    -0.340 OA
BRANCH  15  16
ATOM     16  C   LIG    1        6.006  -0.669  -0.060  0.00  0.00    +0.320 C 
BRANCH  16  17
ATOM     17  C   LIG    1        4.686   0.058  -0.043  0.00  0.00    +0.100 A 
ATOM     18  N   LIG    1        3.567  -0.628  -0.036  0.00  0.00    -0.400 NA
ATOM     19  C   LIG    1        2.394   0.016  -0.021  0.00  0.00    +0.070 A 
ATOM     20  C   LIG    1        1.178  -0.689  -0.013  0.00  0.00    +0.060 A 
ATOM     21  C   LIG    1        0.002  -0.004   0.002  0.00  0.00    +0.040 A 
ATOM     22  C   LIG    1       -0.017   1.389   0.010  0.00  0.00    +0.050 A 
ATOM     23  C   LIG    1        1.141   2.106   0.003  0.00  0.00    +0.050 A 
ATOM     24  C   LIG    1        2.375   1.434  -0.013  0.00  0.00    +0.090 A 
ATOM     25  N   LIG    1        3.529   2.110  -0.021  0.00  0.00    -0.430 NA
ATOM     26  C   LIG    1        4.667   1.455  -0.035  0.00  0.00    +0.130 A 
ATOM     27  C   LIG    1        5.967   2.218  -0.045  0.00  0.00    +0.150 C 
ENDBRANCH  16  17
ENDBRANCH  15  16
ENDBRANCH   1  15
TORSDOF 7
