REMARK  Name = ZINCrH000004pykz.0
REMARK                            x       y       z     vdW  Elec       q    Type
REMARK                         _______ _______ _______ _____ _____    ______ ____
ROOT
ATOM      1  C   LIG    1       -5.038   7.651  -1.364  0.00  0.00    +0.520 C 
ATOM      2  N   LIG    1       -5.932   8.433  -0.727  0.00  0.00    -0.670 N 
ATOM      3  H   LIG    1       -5.760   8.724   0.182  0.00  0.00    +0.410 HD
ATOM      4  O   LIG    1       -5.208   7.362  -2.530  0.00  0.00    -0.490 OA
ENDROOT
BRANCH   2   5
ATOM      5  C   LIG    1       -7.109   8.825  -1.377  0.00  0.00    +0.120 A 
ATOM      6  C   LIG    1       -7.657  10.076  -1.127  0.00  0.00    +0.020 A 
ATOM      7  C   LIG    1       -8.814  10.465  -1.771  0.00  0.00    +0.020 A 
ATOM      8  C   LIG    1       -9.436   9.600  -2.662  0.00  0.00    +0.150 A 
ATOM      9  C   LIG    1       -8.891   8.347  -2.909  0.00  0.00    -0.010 A 
ATOM     10  C   LIG    1       -7.731   7.961  -2.268  0.00  0.00    +0.050 A 
BRANCH   8  11
ATOM     11  N   LIG    1      -10.613   9.992  -3.312  0.00  0.00    -0.560 N 
ATOM     12  C   LIG    1      -11.413   9.116  -4.176  0.00  0.00    +0.260 C 
ATOM     13  C   LIG    1      -12.324  10.061  -4.991  0.00  0.00    +0.060 C 
ATOM     14  C   LIG    1      -12.415  11.293  -4.060  0.00  0.00    +0.070 C 
ATOM     15  C   LIG    1      -11.159  11.217  -3.220  0.00  0.00    +0.520 C 
ATOM     16  O   LIG    1      -10.708  12.131  -2.561  0.00  0.00    -0.510 OA
ENDBRANCH   8  11
ENDBRANCH   2   5
BRANCH   1  18
ATOM     17  C   LIG    1       -2.995   8.316  -0.127  0.00  0.00    +0.060 C 
ATOM     18  C   LIG    1       -3.828   7.135  -0.628  0.00  0.00    +0.180 C 
BRANCH  18  19
ATOM     19  O   LIG    1       -3.039   6.336  -1.512  0.00  0.00    -0.280 OA
BRANCH  19  20
ATOM     20  C   LIG    1       -2.295   5.347  -0.950  0.00  0.00    +0.130 A 
ATOM     21  C   LIG    1       -2.231   5.224   0.431  0.00  0.00    -0.080 A 
ATOM     22  C   LIG    1       -1.474   4.218   0.997  0.00  0.00    +0.050 A 
ATOM     23  C   LIG    1       -0.778   3.330   0.193  0.00  0.00    -0.130 A 
ATOM     24  C   LIG    1        0.113   2.161   0.566  0.00  0.00    +0.070 C 
ATOM     25  C   LIG    1        0.926   1.853  -0.709  0.00  0.00    +0.030 C 
ATOM     26  C   LIG    1        0.000   2.371  -1.831  0.00  0.00    +0.080 C 
ATOM     27  C   LIG    1       -0.840   3.451  -1.184  0.00  0.00    -0.060 A 
ATOM     28  C   LIG    1       -1.598   4.458  -1.754  0.00  0.00    -0.010 A 
ENDBRANCH  19  20
ENDBRANCH  18  19
ENDBRANCH   1  18
TORSDOF 5
