REMARK  Name = ZINCrD000003Lkze.0
REMARK                            x       y       z     vdW  Elec       q    Type
REMARK                         _______ _______ _______ _____ _____    ______ ____
ROOT
ATOM      1  C   LIG    1       -2.325   7.734   3.347  0.00  0.00    +0.260 C 
ATOM      2  C   LIG    1       -2.897   8.262   4.664  0.00  0.00    +0.030 C 
ENDROOT
BRANCH   1   3
ATOM      3  N   LIG    1       -3.216   8.103   2.244  0.00  0.00    -0.690 N 
ATOM      4  H   LIG    1       -3.889   7.477   1.935  0.00  0.00    +0.420 HD
BRANCH   3  10
ATOM      5  C   LIG    1       -0.980  12.335   2.029  0.00  0.00    +0.160 C 
ATOM      6  C   LIG    1       -2.034  11.382   1.528  0.00  0.00    +0.230 A 
ATOM      7  C   LIG    1       -2.870  11.746   0.484  0.00  0.00    -0.080 A 
ATOM      8  C   LIG    1       -3.826  10.840   0.053  0.00  0.00    +0.140 A 
ATOM      9  N   LIG    1       -3.913   9.662   0.648  0.00  0.00    -0.540 NA
ATOM     10  C   LIG    1       -3.098   9.345   1.644  0.00  0.00    +0.580 A 
ATOM     11  N   LIG    1       -2.177  10.190   2.083  0.00  0.00    -0.540 NA
BRANCH   8  12
ATOM     12  C   LIG    1       -4.756  11.192  -1.079  0.00  0.00    +0.520 C 
ATOM     13  F   LIG    1       -4.019  11.348  -2.257  0.00  0.00    -0.170 F 
ATOM     14  F   LIG    1       -5.420  12.388  -0.782  0.00  0.00    -0.170 F 
ATOM     15  F   LIG    1       -5.694  10.168  -1.248  0.00  0.00    -0.160 F 
ENDBRANCH   8  12
ENDBRANCH   3  10
ENDBRANCH   1   3
BRANCH   1  16
ATOM     16  C   LIG    1       -2.204   6.211   3.417  0.00  0.00    +0.030 C 
BRANCH  16  17
ATOM     17  C   LIG    1       -1.517   5.694   2.151  0.00  0.00    +0.260 C 
BRANCH  17  18
ATOM     18  N   LIG    1       -1.401   4.236   2.219  0.00  0.00    -0.740 N 
ATOM     19  H   LIG    1       -1.739   3.758   2.992  0.00  0.00    +0.400 HD
ATOM     20  C   LIG    1       -0.825   3.558   1.207  0.00  0.00    +0.510 C 
ATOM     21  O   LIG    1       -0.402   4.155   0.240  0.00  0.00    -0.520 OA
BRANCH  20  22
ATOM     22  C   LIG    1       -0.706   2.057   1.276  0.00  0.00    +0.070 C 
BRANCH  22  23
ATOM     23  C   LIG    1       -0.019   1.541   0.011  0.00  0.00    +0.170 C 
ATOM     24  C   LIG    1        0.002  -0.004   0.002  0.00  0.00    +0.020 C 
ATOM     25  C   LIG    1        1.371  -0.357  -0.622  0.00  0.00    -0.100 C 
ATOM     26  C   LIG    1        2.015   1.015  -0.917  0.00  0.00    +0.200 C 
ATOM     27  C   LIG    1        1.181  -1.153  -1.915  0.00  0.00    +0.040 C 
ATOM     28  C   LIG    1        2.225  -1.148   0.371  0.00  0.00    +0.040 C 
ATOM     29  O   LIG    1        1.372   1.929  -0.001  0.00  0.00    -0.360 OA
ENDBRANCH  22  23
ENDBRANCH  20  22
ENDBRANCH  17  18
ENDBRANCH  16  17
ENDBRANCH   1  16
TORSDOF 8
