REMARK  Name = ZINCpe000000Z5HW.0
REMARK                            x       y       z     vdW  Elec       q    Type
REMARK                         _______ _______ _______ _____ _____    ______ ____
ROOT
ATOM      1  O   LIG    1       -1.543   2.132  -3.753  0.00  0.00    -0.490 OA
ATOM      2  C   LIG    1       -0.543   1.446  -3.655  0.00  0.00    +0.620 C 
ATOM      3  N   LIG    1       -0.067   1.120  -2.437  0.00  0.00    -0.700 N 
ATOM      4  H   LIG    1        0.730   0.573  -2.358  0.00  0.00    +0.420 HD
ENDROOT
BRANCH   2   5
ATOM      5  C   LIG    1        0.146   0.971  -4.867  0.00  0.00    +0.130 A 
ATOM      6  N   LIG    1        1.233   0.232  -4.904  0.00  0.00    -0.230 NA
ATOM      7  N   LIG    1        1.551   0.004  -6.130  0.00  0.00    -0.260 NA
ATOM      8  C   LIG    1        0.683   0.600  -6.924  0.00  0.00    +0.240 A 
ATOM      9  O   LIG    1       -0.218   1.220  -6.142  0.00  0.00    -0.170 OA
BRANCH   8  10
ATOM     10  C   LIG    1        0.699   0.588  -8.401  0.00  0.00    +0.170 A 
ATOM     11  C   LIG    1        1.705  -0.104  -9.077  0.00  0.00    +0.090 A 
ATOM     12  C   LIG    1        1.706  -0.106 -10.461  0.00  0.00    +0.060 A 
ATOM     13  C   LIG    1        0.701   0.584 -11.126  0.00  0.00    +0.080 A 
ATOM     14  C   LIG    1       -0.268   1.250 -10.390  0.00  0.00    +0.270 A 
ATOM     15  F   LIG    1        0.667   0.606 -12.477  0.00  0.00    -0.120 F 
ATOM     16  N   LIG    1       -0.248   1.232  -9.075  0.00  0.00    -0.430 NA
ENDBRANCH   8  10
ENDBRANCH   2   5
BRANCH   3  17
ATOM     17  C   LIG    1       -0.753   1.593  -1.232  0.00  0.00    +0.290 C 
BRANCH  17  18
ATOM     18  C   LIG    1       -0.013   1.086   0.008  0.00  0.00    +0.180 C 
BRANCH  18  19
ATOM     19  N   LIG    1       -0.700   1.560   1.217  0.00  0.00    -0.530 NA
ATOM     20  C   LIG    1       -0.165   0.904   2.419  0.00  0.00    +0.170 C 
ATOM     21  C   LIG    1       -0.885   1.466   3.655  0.00  0.00    +0.190 C 
ATOM     22  C   LIG    1       -2.406   1.420   3.379  0.00  0.00    +0.010 C 
ATOM     23  C   LIG    1       -2.697   2.770   2.684  0.00  0.00    +0.010 C 
ATOM     24  C   LIG    1       -1.314   3.462   2.628  0.00  0.00    +0.190 C 
ATOM     25  O   LIG    1       -0.576   2.878   3.727  0.00  0.00    -0.370 OA
ATOM     26  C   LIG    1       -0.621   3.024   1.328  0.00  0.00    +0.160 C 
ENDBRANCH  18  19
ENDBRANCH  17  18
ENDBRANCH   3  17
TORSDOF 5
