REMARK  Name = ZINCpe000000UjVr.0
REMARK                            x       y       z     vdW  Elec       q    Type
REMARK                         _______ _______ _______ _____ _____    ______ ____
ROOT
ATOM      1  C   LIG    1       -0.014   1.212   0.009  0.00  0.00    +0.600 C 
ATOM      2  N   LIG    1       -1.191   1.870   0.018  0.00  0.00    -0.500 N 
ATOM      3  H   LIG    1       -1.204   2.840   0.023  0.00  0.00    +0.440 HD
ATOM      4  O   LIG    1        0.002  -0.004   0.002  0.00  0.00    -0.520 OA
ENDROOT
BRANCH   1   7
ATOM      5  N   LIG    1        2.298   4.005   0.002  0.00  0.00    -0.360 N 
ATOM      6  N   LIG    1        1.245   3.278   0.008  0.00  0.00    -0.190 NA
ATOM      7  C   LIG    1        1.254   1.967   0.001  0.00  0.00    +0.060 A 
ATOM      8  C   LIG    1        2.543   1.258  -0.009  0.00  0.00    -0.030 A 
ATOM      9  C   LIG    1        2.640  -0.129  -0.012  0.00  0.00    +0.070 A 
ATOM     10  C   LIG    1        3.886  -0.721  -0.021  0.00  0.00    +0.060 A 
ATOM     11  C   LIG    1        5.039   0.051  -0.028  0.00  0.00    +0.030 A 
ATOM     12  C   LIG    1        4.966   1.428  -0.037  0.00  0.00    +0.090 A 
ATOM     13  C   LIG    1        3.719   2.044  -0.023  0.00  0.00    -0.140 A 
ATOM     14  C   LIG    1        3.550   3.504  -0.013  0.00  0.00    +0.520 A 
ATOM     15  O   LIG    1        4.517   4.243  -0.019  0.00  0.00    -0.490 OA
BRANCH   5  17
ATOM     16  C   LIG    1        2.064   5.975  -1.429  0.00  0.00    +0.040 C 
ATOM     17  C   LIG    1        2.134   5.461   0.011  0.00  0.00    +0.330 C 
ENDBRANCH   5  17
ENDBRANCH   1   7
BRANCH   2  18
ATOM     18  N   LIG    1       -2.394   1.153   0.020  0.00  0.00    -0.520 N 
ATOM     19  H   LIG    1       -2.381   0.183   0.014  0.00  0.00    +0.430 HD
ATOM     20  C   LIG    1       -3.571   1.811   0.029  0.00  0.00    +0.570 C 
ATOM     21  O   LIG    1       -3.587   3.026   0.035  0.00  0.00    -0.530 OA
BRANCH  20  22
ATOM     22  C   LIG    1       -4.841   1.054   0.031  0.00  0.00    -0.190 A 
ATOM     23  C   LIG    1       -6.069   1.725   0.046  0.00  0.00    +0.140 A 
ATOM     24  C   LIG    1       -7.229   0.971   0.042  0.00  0.00    -0.030 A 
ATOM     25  C   LIG    1       -7.139  -0.409   0.035  0.00  0.00    +0.300 A 
ATOM     26  N   LIG    1       -5.966  -1.015   0.025  0.00  0.00    -0.480 NA
ATOM     27  C   LIG    1       -4.835  -0.342   0.023  0.00  0.00    +0.300 A 
ENDBRANCH  20  22
ENDBRANCH   2  18
TORSDOF 4
