REMARK  Name = ZINCvU0000000CV7.0
REMARK                            x       y       z     vdW  Elec       q    Type
REMARK                         _______ _______ _______ _____ _____    ______ ____
ROOT
ATOM      1  C   LIG    1       -2.256   0.084  -0.064  0.00  0.00    +0.190 C 
ENDROOT
BRANCH   1   2
ATOM      2  C   LIG    1       -2.413  -0.451  -1.464  0.00  0.00    -0.080 A 
ATOM      3  C   LIG    1       -2.619   0.420  -2.517  0.00  0.00    +0.110 A 
ATOM      4  C   LIG    1       -2.763  -0.071  -3.802  0.00  0.00    +0.020 A 
ATOM      5  C   LIG    1       -2.701  -1.432  -4.032  0.00  0.00    +0.080 A 
ATOM      6  C   LIG    1       -2.495  -2.303  -2.979  0.00  0.00    -0.180 A 
ATOM      7  C   LIG    1       -2.346  -1.812  -1.695  0.00  0.00    +0.070 A 
BRANCH   6   8
ATOM      8  C   LIG    1       -2.426  -3.788  -3.231  0.00  0.00    +0.510 C 
ATOM      9  F   LIG    1       -3.438  -4.430  -2.508  0.00  0.00    -0.180 F 
ATOM     10  F   LIG    1       -1.180  -4.273  -2.821  0.00  0.00    -0.180 F 
ATOM     11  F   LIG    1       -2.598  -4.037  -4.596  0.00  0.00    -0.180 F 
ENDBRANCH   6   8
ENDBRANCH   1   2
BRANCH   1  12
ATOM     12  C   LIG    1       -1.031   0.959   0.005  0.00  0.00    +0.520 C 
ATOM     13  N   LIG    1        0.110   0.480   0.540  0.00  0.00    -0.670 N 
ATOM     14  H   LIG    1        0.161  -0.446   0.825  0.00  0.00    +0.410 HD
ATOM     15  O   LIG    1       -1.072   2.094  -0.420  0.00  0.00    -0.480 OA
BRANCH  13  16
ATOM     16  C   LIG    1        1.222   1.317   0.679  0.00  0.00    +0.150 A 
ATOM     17  C   LIG    1        1.489   2.284  -0.283  0.00  0.00    +0.030 A 
ATOM     18  C   LIG    1        2.585   3.116  -0.147  0.00  0.00    +0.030 A 
ATOM     19  C   LIG    1        3.426   2.985   0.938  0.00  0.00    +0.000 A 
ATOM     20  C   LIG    1        3.170   2.014   1.907  0.00  0.00    +0.010 A 
ATOM     21  C   LIG    1        2.062   1.178   1.774  0.00  0.00    +0.040 A 
BRANCH  20  22
ATOM     22  C   LIG    1        4.070   1.872   3.072  0.00  0.00    +0.240 A 
ATOM     23  N   LIG    1        3.769   1.289   4.211  0.00  0.00    -0.470 NA
ATOM     24  C   LIG    1        4.826   1.345   5.029  0.00  0.00    +0.150 A 
ATOM     25  C   LIG    1        5.823   1.992   4.391  0.00  0.00    +0.130 A 
ATOM     26  N   LIG    1        5.353   2.329   3.151  0.00  0.00    -0.450 N 
ATOM     27  C   LIG    1        6.088   3.046   2.106  0.00  0.00    +0.320 C 
ENDBRANCH  20  22
ENDBRANCH  13  16
ENDBRANCH   1  12
BRANCH   1  28
ATOM     28  N   LIG    1       -3.442   0.873   0.295  0.00  0.00    -0.510 NA
BRANCH  28  30
ATOM     29  C   LIG    1       -5.131  -0.067  -1.209  0.00  0.00    +0.030 C 
ATOM     30  C   LIG    1       -4.658   0.050   0.241  0.00  0.00    +0.170 C 
ENDBRANCH  28  30
BRANCH  28  31
ATOM     31  C   LIG    1       -3.283   1.491   1.618  0.00  0.00    +0.160 C 
ATOM     32  C   LIG    1       -2.873   2.955   1.451  0.00  0.00    +0.030 C 
ENDBRANCH  28  31
ENDBRANCH   1  28
TORSDOF 8
