REMARK  Name = ZINCrD00000F5LFe.0
REMARK                            x       y       z     vdW  Elec       q    Type
REMARK                         _______ _______ _______ _____ _____    ______ ____
ROOT
ATOM      1  C   LIG    1       -0.031  -0.080  -0.450  0.00  0.00    +0.180 C 
ATOM      2  C   LIG    1        1.163  -0.724  -0.097  0.00  0.00    +0.010 C 
ATOM      3  C   LIG    1        1.099  -2.031   0.353  0.00  0.00    +0.360 C 
ATOM      4  N   LIG    1       -0.078  -2.631   0.436  0.00  0.00    -0.450 NA
ATOM      5  C   LIG    1       -1.194  -1.999   0.095  0.00  0.00    +0.360 C 
ATOM      6  N   LIG    1       -1.181  -0.746  -0.336  0.00  0.00    -0.160 NA
ATOM      7  O   LIG    1       -2.398  -0.111  -0.683  0.00  0.00    -0.510 OA
ENDROOT
BRANCH   5   8
ATOM      8  C   LIG    1       -2.490  -2.713   0.205  0.00  0.00    -0.060 A 
ATOM      9  C   LIG    1       -3.651  -2.009   0.520  0.00  0.00    +0.170 A 
ATOM     10  C   LIG    1       -4.854  -2.678   0.620  0.00  0.00    +0.030 A 
ATOM     11  C   LIG    1       -4.908  -4.044   0.409  0.00  0.00    +0.130 A 
ATOM     12  C   LIG    1       -3.759  -4.747   0.095  0.00  0.00    -0.060 A 
ATOM     13  C   LIG    1       -2.551  -4.088  -0.013  0.00  0.00    +0.160 A 
BRANCH  12  14
ATOM     14  N   LIG    1       -3.825  -6.209  -0.130  0.00  0.00    +0.030 N 
ATOM     15  O   LIG    1       -2.814  -6.829  -0.406  0.00  0.00    -0.160 OA
ATOM     16  O   LIG    1       -4.891  -6.791  -0.040  0.00  0.00    -0.150 OA
ENDBRANCH  12  14
ENDBRANCH   5   8
BRANCH   1  18
ATOM     17  C   LIG    1        1.132   2.008  -0.938  0.00  0.00    +0.080 C 
ATOM     18  C   LIG    1       -0.016   1.311  -0.934  0.00  0.00    +0.060 C 
BRANCH  17  22
ATOM     19  C   LIG    1        1.116   6.113  -2.013  0.00  0.00    -0.040 A 
ATOM     20  C   LIG    1        2.305   5.497  -1.667  0.00  0.00    +0.110 A 
ATOM     21  C   LIG    1        2.318   4.163  -1.317  0.00  0.00    +0.050 A 
ATOM     22  C   LIG    1        1.126   3.434  -1.312  0.00  0.00    -0.020 A 
ATOM     23  C   LIG    1       -0.071   4.062  -1.667  0.00  0.00    +0.050 A 
ATOM     24  C   LIG    1       -0.069   5.398  -2.010  0.00  0.00    +0.110 A 
BRANCH  19  26
ATOM     25  O   LIG    1        2.151   8.178  -2.392  0.00  0.00    -0.150 OA
ATOM     26  N   LIG    1        1.110   7.545  -2.388  0.00  0.00    +0.020 N 
ATOM     27  O   LIG    1        0.065   8.091  -2.693  0.00  0.00    -0.150 OA
ENDBRANCH  19  26
ENDBRANCH  17  22
ENDBRANCH   1  18
TORSDOF 5
