REMARK  Name = ZINCrH00000tj0KX.0
REMARK                            x       y       z     vdW  Elec       q    Type
REMARK                         _______ _______ _______ _____ _____    ______ ____
ROOT
ATOM      1  C   LIG    1       -0.964   1.564   3.201  0.00  0.00    +0.420 C 
ATOM      2  C   LIG    1       -0.055   1.928   2.050  0.00  0.00    -0.290 C 
ATOM      3  C   LIG    1       -0.628   2.476   0.939  0.00  0.00    +0.200 C 
ATOM      4  N   LIG    1       -1.935   2.683   0.882  0.00  0.00    -0.510 NA
ATOM      5  C   LIG    1       -2.798   2.391   1.836  0.00  0.00    +0.400 C 
ATOM      6  S   LIG    1       -4.558   2.619   1.863  0.00  0.00    +0.050 S 
ATOM      7  C   LIG    1       -4.767   1.938   3.539  0.00  0.00    +0.170 C 
ATOM      8  C   LIG    1       -3.364   1.576   3.944  0.00  0.00    +0.530 C 
ATOM      9  O   LIG    1       -3.107   1.084   5.022  0.00  0.00    -0.450 OA
ATOM     10  C   LIG    1        0.238   2.856  -0.234  0.00  0.00    +0.140 C 
ATOM     11  N   LIG    1       -2.420   1.834   3.030  0.00  0.00    -0.580 N 
ENDROOT
BRANCH   1  16
ATOM     12  C   LIG    1       -0.232   5.293   6.518  0.00  0.00    +0.170 C 
ATOM     13  C   LIG    1       -0.174   3.938   5.861  0.00  0.00    -0.000 A 
ATOM     14  C   LIG    1        0.464   2.856   6.343  0.00  0.00    -0.060 A 
ATOM     15  C   LIG    1        0.259   1.811   5.413  0.00  0.00    -0.010 A 
ATOM     16  C   LIG    1       -0.493   2.316   4.419  0.00  0.00    -0.050 A 
ATOM     17  O   LIG    1       -0.747   3.607   4.692  0.00  0.00    -0.170 OA
ENDBRANCH   1  16
BRANCH   2  18
ATOM     18  C   LIG    1        1.334   1.710   2.121  0.00  0.00    +0.600 C 
ATOM     19  N   LIG    1        2.170   2.749   2.314  0.00  0.00    -0.660 N 
ATOM     20  H   LIG    1        1.813   3.632   2.501  0.00  0.00    +0.410 HD
ATOM     21  O   LIG    1        1.780   0.582   2.008  0.00  0.00    -0.510 OA
BRANCH  19  22
ATOM     22  C   LIG    1        3.554   2.556   2.244  0.00  0.00    +0.140 A 
ATOM     23  C   LIG    1        4.108   1.345   2.638  0.00  0.00    +0.020 A 
ATOM     24  C   LIG    1        5.474   1.157   2.568  0.00  0.00    +0.020 A 
ATOM     25  C   LIG    1        6.290   2.173   2.106  0.00  0.00    -0.010 A 
ATOM     26  C   LIG    1        5.742   3.380   1.712  0.00  0.00    +0.030 A 
ATOM     27  C   LIG    1        4.376   3.573   1.775  0.00  0.00    -0.110 A 
ATOM     28  C   LIG    1        3.778   4.886   1.341  0.00  0.00    +0.080 C 
ENDBRANCH  19  22
ENDBRANCH   2  18
TORSDOF 3
