REMARK  Name = ZINCtV00000riEEr.0
REMARK                            x       y       z     vdW  Elec       q    Type
REMARK                         _______ _______ _______ _____ _____    ______ ____
ROOT
ATOM      1  O   LIG    1       -1.430   4.191  -3.173  0.00  0.00    -0.570 OA
ATOM      2  C   LIG    1       -0.506   4.565  -2.477  0.00  0.00    +0.710 C 
ATOM      3  N   LIG    1       -0.341   4.050  -1.242  0.00  0.00    -0.730 N 
ATOM      4  H   LIG    1        0.397   4.349  -0.687  0.00  0.00    +0.400 HD
ATOM      5  N   LIG    1        0.353   5.495  -2.940  0.00  0.00    -0.690 N 
ATOM      6  H   LIG    1        1.049   5.843  -2.361  0.00  0.00    +0.410 HD
ENDROOT
BRANCH   5   7
ATOM      7  C   LIG    1        0.239   5.959  -4.255  0.00  0.00    +0.200 A 
ATOM      8  C   LIG    1        1.379   6.291  -4.976  0.00  0.00    -0.010 A 
ATOM      9  C   LIG    1        1.264   6.744  -6.276  0.00  0.00    +0.090 A 
ATOM     10  C   LIG    1        0.015   6.878  -6.855  0.00  0.00    -0.200 A 
ATOM     11  C   LIG    1       -1.121   6.553  -6.138  0.00  0.00    +0.090 A 
ATOM     12  C   LIG    1       -1.013   6.094  -4.840  0.00  0.00    +0.030 A 
BRANCH  10  13
ATOM     13  C   LIG    1       -0.107   7.377  -8.272  0.00  0.00    +0.510 C 
ATOM     14  F   LIG    1       -1.244   6.821  -8.866  0.00  0.00    -0.180 F 
ATOM     15  F   LIG    1        1.029   7.003  -8.998  0.00  0.00    -0.180 F 
ATOM     16  F   LIG    1       -0.218   8.772  -8.266  0.00  0.00    -0.180 F 
ENDBRANCH  10  13
ENDBRANCH   5   7
BRANCH   3  17
ATOM     17  C   LIG    1       -1.274   3.039  -0.739  0.00  0.00    +0.270 C 
ATOM     18  C   LIG    1       -0.820   1.633  -1.183  0.00  0.00    +0.020 C 
ATOM     19  C   LIG    1       -0.011   1.097   0.024  0.00  0.00    +0.010 C 
ATOM     20  C   LIG    1       -0.809   1.630   1.240  0.00  0.00    +0.050 C 
ATOM     21  C   LIG    1       -1.270   3.037   0.799  0.00  0.00    +0.010 C 
BRANCH  21  22
ATOM     22  C   LIG    1       -2.656   3.315   1.320  0.00  0.00    -0.020 A 
ATOM     23  C   LIG    1       -3.700   2.470   0.991  0.00  0.00    +0.020 A 
ATOM     24  C   LIG    1       -4.971   2.723   1.472  0.00  0.00    +0.060 A 
ATOM     25  C   LIG    1       -5.201   3.825   2.274  0.00  0.00    +0.020 A 
ATOM     26  C   LIG    1       -4.158   4.673   2.598  0.00  0.00    +0.070 A 
ATOM     27  C   LIG    1       -2.886   4.418   2.121  0.00  0.00    -0.180 A 
BRANCH  27  28
ATOM     28  C   LIG    1       -1.750   5.342   2.474  0.00  0.00    +0.510 C 
ATOM     29  F   LIG    1       -1.206   5.882   1.304  0.00  0.00    -0.180 F 
ATOM     30  F   LIG    1       -0.762   4.626   3.160  0.00  0.00    -0.170 F 
ATOM     31  F   LIG    1       -2.225   6.376   3.288  0.00  0.00    -0.180 F 
ENDBRANCH  27  28
ENDBRANCH  21  22
ENDBRANCH   3  17
TORSDOF 5
