REMARK  Name = ZINCrg000000sIuy.0
REMARK                            x       y       z     vdW  Elec       q    Type
REMARK                         _______ _______ _______ _____ _____    ______ ____
ROOT
ATOM      1  C   LIG    1        0.036   1.521   0.029  0.00  0.00    +0.400 C 
ENDROOT
BRANCH   1   2
ATOM      2  C   LIG    1       -0.491   2.136   1.300  0.00  0.00    -0.130 A 
ATOM      3  C   LIG    1       -1.819   2.505   1.391  0.00  0.00    +0.060 A 
ATOM      4  C   LIG    1       -2.304   3.064   2.559  0.00  0.00    +0.020 A 
ATOM      5  C   LIG    1       -1.457   3.266   3.633  0.00  0.00    +0.060 A 
ATOM      6  C   LIG    1       -0.127   2.903   3.542  0.00  0.00    -0.010 A 
ATOM      7  C   LIG    1        0.358   2.337   2.376  0.00  0.00    +0.110 A 
ATOM      8  F   LIG    1        1.659   1.982   2.286  0.00  0.00    -0.140 F 
ENDBRANCH   1   2
BRANCH   1  14
ATOM      9  C   LIG    1        2.473  -0.343   0.459  0.00  0.00    +0.330 C 
ATOM     10  N   LIG    1        1.080  -0.778   0.336  0.00  0.00    -0.450 N 
ATOM     11  C   LIG    1        0.623  -2.067   0.390  0.00  0.00    +0.140 A 
ATOM     12  C   LIG    1       -0.713  -2.014   0.233  0.00  0.00    +0.150 A 
ATOM     13  N   LIG    1       -1.064  -0.727   0.093  0.00  0.00    -0.450 NA
ATOM     14  C   LIG    1        0.005   0.019   0.148  0.00  0.00    +0.170 A 
ENDBRANCH   1  14
BRANCH   1  15
ATOM     15  N   LIG    1       -0.801   1.938  -1.099  0.00  0.00    -0.730 N 
ATOM     16  H   LIG    1       -1.734   2.162  -0.954  0.00  0.00    +0.430 HD
BRANCH  15  17
ATOM     17  C   LIG    1       -0.269   2.013  -2.352  0.00  0.00    +0.520 A 
ATOM     18  C   LIG    1       -0.808   1.256  -3.398  0.00  0.00    -0.230 A 
ATOM     19  C   LIG    1       -0.222   1.369  -4.688  0.00  0.00    +0.570 A 
ATOM     20  N   LIG    1        0.833   2.189  -4.863  0.00  0.00    -0.550 N 
ATOM     21  C   LIG    1        1.332   2.900  -3.837  0.00  0.00    +0.700 A 
ATOM     22  O   LIG    1        2.285   3.629  -4.030  0.00  0.00    -0.520 OA
ATOM     23  C   LIG    1        1.445   2.306  -6.189  0.00  0.00    +0.360 C 
ATOM     24  O   LIG    1       -0.667   0.729  -5.623  0.00  0.00    -0.500 OA
ATOM     25  N   LIG    1        0.804   2.824  -2.603  0.00  0.00    -0.540 N 
ATOM     26  C   LIG    1        1.383   3.619  -1.517  0.00  0.00    +0.350 C 
BRANCH  18  27
ATOM     27  C   LIG    1       -1.927   0.391  -3.175  0.00  0.00    +0.280 C 
ATOM     28  N   LIG    1       -2.814  -0.296  -2.998  0.00  0.00    -0.390 NA
ENDBRANCH  18  27
ENDBRANCH  15  17
ENDBRANCH   1  15
TORSDOF 5
