REMARK  Name = ZINCb80000002s9f.0
REMARK                            x       y       z     vdW  Elec       q    Type
REMARK                         _______ _______ _______ _____ _____    ______ ____
ROOT
ATOM      1  N   LIG    1       -0.020   1.094   2.454  0.00  0.00    -0.600 N 
ATOM      2  C   LIG    1       -0.413  -0.192   3.023  0.00  0.00    +0.270 C 
ATOM      3  C   LIG    1        0.700  -0.722   3.932  0.00  0.00    +0.180 C 
ATOM      4  N   LIG    1        1.082   0.341   4.875  0.00  0.00    -0.670 NA
ATOM      5  H   LIG    1        1.660  -0.024   5.617  0.00  0.00    +0.350 HD
ATOM      6  C   LIG    1        1.766   1.429   4.162  0.00  0.00    +0.100 C 
ATOM      7  C   LIG    1        1.942   2.621   5.104  0.00  0.00    +0.080 C 
ATOM      8  C   LIG    1        3.140   0.945   3.695  0.00  0.00    +0.030 C 
ATOM      9  C   LIG    1        0.954   1.851   2.970  0.00  0.00    +0.530 C 
ATOM     10  O   LIG    1        1.192   2.922   2.455  0.00  0.00    -0.540 OA
ENDROOT
BRANCH   1  12
ATOM     11  C   LIG    1       -0.013   1.086   0.008  0.00  0.00    +0.010 C 
ATOM     12  C   LIG    1       -0.729   1.579   1.267  0.00  0.00    +0.270 C 
ENDBRANCH   1  12
TORSDOF 1
