REMARK  Name = ZINCkj000005hocr.2
REMARK                            x       y       z     vdW  Elec       q    Type
REMARK                         _______ _______ _______ _____ _____    ______ ____
ROOT
ATOM      1  C   LIG    1       -1.608   3.379  -2.429  0.00  0.00    +0.520 C 
ATOM      2  N   LIG    1       -1.758   4.681  -2.744  0.00  0.00    -0.720 N 
ATOM      3  H   LIG    1       -1.359   5.364  -2.183  0.00  0.00    +0.400 HD
ATOM      4  O   LIG    1       -2.107   2.524  -3.130  0.00  0.00    -0.480 OA
ENDROOT
BRANCH   1  10
ATOM      5  C   LIG    1       -1.491   3.525   2.448  0.00  0.00    +0.340 C 
ATOM      6  N   LIG    1       -0.801   3.048   1.242  0.00  0.00    -0.380 N 
ATOM      7  C   LIG    1       -0.731   1.580   1.266  0.00  0.00    +0.240 C 
ATOM      8  C   LIG    1       -0.013   1.086   0.008  0.00  0.00    +0.280 C 
ATOM      9  O   LIG    1       -0.706   1.560  -1.149  0.00  0.00    -0.330 OA
ATOM     10  C   LIG    1       -0.821   2.985  -1.206  0.00  0.00    +0.160 C 
ATOM     11  C   LIG    1       -1.542   3.483   0.050  0.00  0.00    +0.260 C 
ATOM     12  H   LIG    1        0.133   3.429   1.216  0.00  0.00    +0.430 HD
ENDBRANCH   1  10
BRANCH   2  13
ATOM     13  C   LIG    1       -2.523   5.063  -3.933  0.00  0.00    +0.280 C 
BRANCH  13  14
ATOM     14  C   LIG    1       -2.539   6.588  -4.060  0.00  0.00    +0.260 C 
BRANCH  14  15
ATOM     15  N   LIG    1       -3.305   6.971  -5.249  0.00  0.00    -0.750 N 
ATOM     16  H   LIG    1       -3.704   6.287  -5.810  0.00  0.00    +0.410 HD
BRANCH  15  17
ATOM     17  C   LIG    1       -3.460   8.320  -5.575  0.00  0.00    +0.220 A 
ATOM     18  C   LIG    1       -2.894   9.300  -4.771  0.00  0.00    -0.060 A 
ATOM     19  C   LIG    1       -3.044  10.633  -5.099  0.00  0.00    +0.060 A 
ATOM     20  C   LIG    1       -3.766  10.993  -6.221  0.00  0.00    -0.010 A 
ATOM     21  C   LIG    1       -4.337  10.020  -7.023  0.00  0.00    -0.040 A 
ATOM     22 BR   LIG    1       -5.324  10.518  -8.557  0.00  0.00    -0.040 Br
ATOM     23  C   LIG    1       -4.185   8.684  -6.703  0.00  0.00    -0.030 A 
ENDBRANCH  15  17
ENDBRANCH  14  15
ENDBRANCH  13  14
ENDBRANCH   2  13
TORSDOF 5
