REMARK  Name = ZINCkj000005hocr.1
REMARK                            x       y       z     vdW  Elec       q    Type
REMARK                         _______ _______ _______ _____ _____    ______ ____
ROOT
ATOM      1  C   LIG    1        4.859   0.829  -0.040  0.00  0.00    +0.470 C 
ATOM      2  N   LIG    1        3.682   1.487  -0.025  0.00  0.00    -0.720 N 
ATOM      3  H   LIG    1        3.669   2.457  -0.020  0.00  0.00    +0.410 HD
ATOM      4  O   LIG    1        4.875  -0.384  -0.047  0.00  0.00    -0.500 OA
ENDROOT
BRANCH   1  10
ATOM      5  C   LIG    1        6.481   2.174   3.647  0.00  0.00    +0.340 C 
ATOM      6  N   LIG    1        6.347   1.431   2.387  0.00  0.00    -0.390 N 
ATOM      7  C   LIG    1        7.501   0.537   2.219  0.00  0.00    +0.250 C 
ATOM      8  C   LIG    1        7.358  -0.236   0.906  0.00  0.00    +0.270 C 
ATOM      9  O   LIG    1        7.250   0.691  -0.179  0.00  0.00    -0.320 OA
ATOM     10  C   LIG    1        6.153   1.600  -0.048  0.00  0.00    +0.230 C 
ATOM     11  C   LIG    1        6.294   2.377   1.263  0.00  0.00    +0.280 C 
ATOM     12  H   LIG    1        5.498   0.885   2.407  0.00  0.00    +0.420 HD
ENDBRANCH   1  10
BRANCH   2  13
ATOM     13  C   LIG    1        2.424   0.737  -0.017  0.00  0.00    +0.270 C 
BRANCH  13  14
ATOM     14  C   LIG    1        1.248   1.716  -0.001  0.00  0.00    +0.260 C 
BRANCH  14  15
ATOM     15  N   LIG    1       -0.011   0.966   0.007  0.00  0.00    -0.750 N 
ATOM     16  H   LIG    1        0.002  -0.004   0.002  0.00  0.00    +0.410 HD
BRANCH  15  17
ATOM     17  C   LIG    1       -1.230   1.648   0.017  0.00  0.00    +0.210 A 
ATOM     18  C   LIG    1       -1.250   3.036   0.030  0.00  0.00    -0.060 A 
ATOM     19  C   LIG    1       -2.458   3.708   0.033  0.00  0.00    +0.060 A 
ATOM     20  C   LIG    1       -3.645   3.000   0.035  0.00  0.00    -0.010 A 
ATOM     21  C   LIG    1       -3.628   1.616   0.028  0.00  0.00    -0.040 A 
ATOM     22 BR   LIG    1       -5.255   0.652   0.030  0.00  0.00    -0.040 Br
ATOM     23  C   LIG    1       -2.424   0.938   0.019  0.00  0.00    -0.030 A 
ENDBRANCH  15  17
ENDBRANCH  14  15
ENDBRANCH  13  14
ENDBRANCH   2  13
TORSDOF 5
