REMARK  Name = ZINCpk000000mQ4w.0
REMARK                            x       y       z     vdW  Elec       q    Type
REMARK                         _______ _______ _______ _____ _____    ______ ____
ROOT
ATOM      1  C   LIG    1        0.698  -2.985   0.835  0.00  0.00    +0.240 C 
ATOM      2  C   LIG    1       -0.355  -3.212   1.922  0.00  0.00    +0.010 C 
ATOM      3  C   LIG    1       -1.742  -2.884   1.361  0.00  0.00    +0.290 C 
ATOM      4  N   LIG    1       -1.957  -3.673   0.140  0.00  0.00    -0.610 N 
ATOM      5  C   LIG    1       -0.956  -3.599  -0.934  0.00  0.00    +0.280 C 
ATOM      6  C   LIG    1       -3.050  -4.449   0.008  0.00  0.00    +0.570 C 
ATOM      7  O   LIG    1       -3.823  -4.575   0.938  0.00  0.00    -0.520 OA
ATOM      8  C   LIG    1        0.422  -3.918  -0.346  0.00  0.00    +0.010 C 
ENDROOT
BRANCH   6   9
ATOM      9  C   LIG    1       -3.310  -5.146  -1.267  0.00  0.00    -0.120 A 
ATOM     10  C   LIG    1       -3.199  -4.460  -2.480  0.00  0.00    +0.060 A 
ATOM     11  C   LIG    1       -3.439  -5.115  -3.669  0.00  0.00    +0.030 A 
ATOM     12  C   LIG    1       -3.800  -6.453  -3.672  0.00  0.00    +0.040 A 
ATOM     13  C   LIG    1       -3.918  -7.144  -2.479  0.00  0.00    +0.090 A 
ATOM     14  N   LIG    1       -4.282  -8.499  -2.469  0.00  0.00    -0.660 N 
ATOM     15  H   LIG    1       -4.239  -9.026  -3.282  0.00  0.00    +0.420 HD
ATOM     16  C   LIG    1       -4.693  -9.057  -1.310  0.00  0.00    +0.500 C 
ATOM     17  O   LIG    1       -4.983 -10.234  -1.270  0.00  0.00    -0.500 OA
ATOM     18  C   LIG    1       -4.789  -8.211  -0.066  0.00  0.00    +0.230 C 
ATOM     19  C   LIG    1       -6.178  -7.575   0.010  0.00  0.00    +0.050 C 
ATOM     20  O   LIG    1       -3.796  -7.183  -0.105  0.00  0.00    -0.280 OA
ATOM     21  C   LIG    1       -3.675  -6.496  -1.269  0.00  0.00    +0.130 A 
ENDBRANCH   6   9
BRANCH   1  24
ATOM     22  C   LIG    1        4.336  -2.586   1.957  0.00  0.00    +0.100 C 
ATOM     23  C   LIG    1        2.966  -2.298   1.398  0.00  0.00    +0.510 C 
ATOM     24  N   LIG    1        2.029  -3.266   1.378  0.00  0.00    -0.610 N 
ATOM     25  C   LIG    1        2.341  -4.598   1.900  0.00  0.00    +0.280 C 
ATOM     26  O   LIG    1        2.710  -1.196   0.961  0.00  0.00    -0.540 OA
ENDBRANCH   1  24
TORSDOF 2
