REMARK  Name = ZINCpe000000W0dF.0
REMARK                            x       y       z     vdW  Elec       q    Type
REMARK                         _______ _______ _______ _____ _____    ______ ____
ROOT
ATOM      1  C   LIG    1        3.573   7.126   1.016  0.00  0.00    +0.510 C 
ATOM      2  N   LIG    1        4.524   8.049   1.264  0.00  0.00    -0.650 N 
ATOM      3  H   LIG    1        5.307   7.810   1.783  0.00  0.00    +0.410 HD
ATOM      4  O   LIG    1        2.593   7.425   0.367  0.00  0.00    -0.490 OA
ENDROOT
BRANCH   2   5
ATOM      5  C   LIG    1        4.381   9.346   0.774  0.00  0.00    +0.310 A 
ATOM      6  C   LIG    1        3.342   9.815   0.030  0.00  0.00    -0.100 A 
ATOM      7  C   LIG    1        3.589  11.162  -0.249  0.00  0.00    +0.080 A 
ATOM      8  N   LIG    1        4.732  11.492   0.295  0.00  0.00    -0.280 NA
ATOM      9  C   LIG    1        2.694  12.077  -1.045  0.00  0.00    +0.160 C 
ATOM     10  N   LIG    1        5.253  10.366   0.946  0.00  0.00    -0.380 N 
BRANCH  10  11
ATOM     11  C   LIG    1        6.517  10.304   1.683  0.00  0.00    +0.180 C 
ATOM     12  C   LIG    1        6.241   9.919   3.138  0.00  0.00    +0.060 C 
ATOM     13  C   LIG    1        7.201  11.672   1.639  0.00  0.00    +0.070 C 
ATOM     14  C   LIG    1        7.430   9.257   1.042  0.00  0.00    +0.060 C 
ENDBRANCH  10  11
ENDBRANCH   2   5
BRANCH   1  15
ATOM     15  C   LIG    1        3.727   5.724   1.546  0.00  0.00    +0.380 C 
BRANCH  15  20
ATOM     16  C   LIG    1        1.139   3.547   0.010  0.00  0.00    +0.130 C 
ATOM     17  N   LIG    1        0.540   4.004   1.276  0.00  0.00    -0.710 N 
ATOM     18  H   LIG    1       -0.338   3.776   1.618  0.00  0.00    +0.450 HD
ATOM     19  C   LIG    1        1.451   4.800   1.867  0.00  0.00    +0.710 C 
ATOM     20  N   LIG    1        2.570   4.920   1.144  0.00  0.00    -0.560 N 
ATOM     21  O   LIG    1        1.275   5.348   2.937  0.00  0.00    -0.530 OA
ATOM     22  C   LIG    1        0.304   4.016  -1.183  0.00  0.00    +0.100 C 
ATOM     23  C   LIG    1        2.502   4.209   0.001  0.00  0.00    +0.540 C 
ATOM     24  O   LIG    1        3.354   4.119  -0.857  0.00  0.00    -0.450 OA
BRANCH  16  25
ATOM     25  C   LIG    1        1.280   2.024   0.001  0.00  0.00    +0.210 C 
BRANCH  25  27
ATOM     26  C   LIG    1        0.002  -0.004   0.002  0.00  0.00    +0.210 C 
ATOM     27  O   LIG    1       -0.017   1.425   0.010  0.00  0.00    -0.380 OA
ENDBRANCH  25  27
ENDBRANCH  16  25
ENDBRANCH  15  20
ENDBRANCH   1  15
TORSDOF 6
