REMARK  Name = ZINCpk000000pAHV.0
REMARK                            x       y       z     vdW  Elec       q    Type
REMARK                         _______ _______ _______ _____ _____    ______ ____
ROOT
ATOM      1  C   LIG    1       10.346   1.363  -2.697  0.00  0.00    -0.660 A 
ATOM      2  C   LIG    1        9.648   1.317  -3.891  0.00  0.00    +0.130 A 
ATOM      3  C   LIG    1        8.273   1.213  -3.885  0.00  0.00    +0.070 A 
ATOM      4  C   LIG    1        7.585   1.155  -2.672  0.00  0.00    -0.080 A 
ATOM      5  C   LIG    1        8.294   1.207  -1.472  0.00  0.00    +0.030 A 
ATOM      6  C   LIG    1        9.670   1.306  -1.491  0.00  0.00    +0.120 A 
ENDROOT
BRANCH   4   7
ATOM      7  C   LIG    1        6.111   1.044  -2.659  0.00  0.00    +0.560 C 
ATOM      8  N   LIG    1        5.449   0.988  -1.486  0.00  0.00    -0.720 N 
ATOM      9  H   LIG    1        5.941   1.020  -0.650  0.00  0.00    +0.400 HD
ATOM     10  O   LIG    1        5.495   1.004  -3.707  0.00  0.00    -0.520 OA
BRANCH   8  11
ATOM     11  C   LIG    1        3.989   0.878  -1.473  0.00  0.00    +0.280 C 
BRANCH  11  12
ATOM     12  C   LIG    1        3.493   0.832  -0.026  0.00  0.00    +0.190 C 
BRANCH  12  13
ATOM     13  C   LIG    1        1.990   0.720  -0.013  0.00  0.00    +0.180 A 
ATOM     14  N   LIG    1        1.291  -0.389  -0.012  0.00  0.00    -0.470 NA
ATOM     15  C   LIG    1        0.002  -0.004   0.002  0.00  0.00    +0.170 A 
ATOM     16  N   LIG    1       -0.015   1.295   0.009  0.00  0.00    -0.380 NA
ATOM     17  C   LIG    1       -1.200  -0.912   0.009  0.00  0.00    +0.200 C 
ATOM     18  O   LIG    1        1.117   1.731   0.001  0.00  0.00    +0.080 OA
ENDBRANCH  12  13
ENDBRANCH  11  12
ENDBRANCH   8  11
ENDBRANCH   4   7
BRANCH   1  19
ATOM     19  S   LIG    1       12.103   1.497  -2.712  0.00  0.00    +2.690 S 
ATOM     20  O   LIG    1       12.533   0.991  -3.969  0.00  0.00    -0.950 OA
ATOM     21  O   LIG    1       12.556   0.978  -1.469  0.00  0.00    -0.950 OA
BRANCH  19  22
ATOM     22  N   LIG    1       12.472   3.111  -2.708  0.00  0.00    -1.110 NA
ATOM     23  H   LIG    1       12.919   3.509  -3.471  0.00  0.00    +0.420 HD
BRANCH  22  24
ATOM     24  C   LIG    1       12.123   3.939  -1.550  0.00  0.00    +0.230 C 
ATOM     25  C   LIG    1       10.776   4.621  -1.799  0.00  0.00    +0.020 C 
BRANCH  24  27
ATOM     26  C   LIG    1       14.522   4.324  -0.970  0.00  0.00    +0.020 C 
ATOM     27  C   LIG    1       13.202   5.003  -1.341  0.00  0.00    +0.020 C 
ENDBRANCH  24  27
ENDBRANCH  22  24
ENDBRANCH  19  22
ENDBRANCH   1  19
TORSDOF 8
