REMARK  Name = ZINCpk00000FbOpw.0
REMARK                            x       y       z     vdW  Elec       q    Type
REMARK                         _______ _______ _______ _____ _____    ______ ____
ROOT
ATOM      1  C   LIG    1        0.002  -0.004   0.007  0.00  0.00    -0.040 A 
ATOM      2  C   LIG    1        1.230  -0.650  -0.008  0.00  0.00    -0.040 A 
ATOM      3  C   LIG    1        2.389   0.102  -0.017  0.00  0.00    +0.300 A 
ATOM      4  N   LIG    1        2.340   1.420  -0.011  0.00  0.00    -0.470 NA
ATOM      5  C   LIG    1        1.188   2.072   0.004  0.00  0.00    +0.360 A 
ATOM      6  C   LIG    1       -0.017   1.380   0.013  0.00  0.00    -0.050 A 
ENDROOT
BRANCH   5   7
ATOM      7  N   LIG    1        1.184   3.466   0.009  0.00  0.00    -0.660 N 
ATOM      8  H   LIG    1        0.345   3.949  -0.054  0.00  0.00    +0.420 HD
ATOM      9  C   LIG    1        2.345   4.144   0.104  0.00  0.00    +0.520 C 
ATOM     10  O   LIG    1        3.400   3.544   0.090  0.00  0.00    -0.460 OA
BRANCH   9  11
ATOM     11  C   LIG    1        2.334   5.646   0.225  0.00  0.00    -0.030 C 
ATOM     12  C   LIG    1        1.746   6.295  -1.045  0.00  0.00    +0.210 C 
ATOM     13  O   LIG    1        2.533   7.454  -1.343  0.00  0.00    -0.370 OA
ATOM     14  C   LIG    1        3.553   7.624  -0.346  0.00  0.00    +0.160 C 
ATOM     15  C   LIG    1        4.841   8.145  -0.988  0.00  0.00    +0.050 C 
ATOM     16  C   LIG    1        3.781   6.209   0.250  0.00  0.00    +0.060 C 
ENDBRANCH   9  11
ENDBRANCH   5   7
BRANCH   1  17
ATOM     17  C   LIG    1       -1.283  -0.792   0.018  0.00  0.00    +0.330 C 
BRANCH  17  19
ATOM     18  C   LIG    1       -2.846  -1.734  -1.597  0.00  0.00    +0.530 C 
ATOM     19  N   LIG    1       -1.714  -1.042  -1.359  0.00  0.00    -0.730 N 
ATOM     20  H   LIG    1       -1.185  -0.709  -2.101  0.00  0.00    +0.400 HD
ATOM     21  O   LIG    1       -3.508  -2.149  -0.669  0.00  0.00    -0.530 OA
BRANCH  18  25
ATOM     22  C   LIG    1       -6.752  -2.210  -4.418  0.00  0.00    +0.050 C 
ATOM     23  C   LIG    1       -5.222  -2.191  -4.410  0.00  0.00    +0.150 C 
ATOM     24  C   LIG    1       -4.683  -2.675  -3.041  0.00  0.00    +0.050 C 
ATOM     25  C   LIG    1       -3.289  -1.990  -3.014  0.00  0.00    -0.030 C 
ATOM     26  C   LIG    1       -3.562  -0.663  -3.753  0.00  0.00    +0.210 C 
ATOM     27  O   LIG    1       -4.740  -0.845  -4.548  0.00  0.00    -0.370 OA
ENDBRANCH  18  25
ENDBRANCH  17  19
ENDBRANCH   1  17
TORSDOF 5
