REMARK  Name = ZINCqH0000034JIg.0
REMARK                            x       y       z     vdW  Elec       q    Type
REMARK                         _______ _______ _______ _____ _____    ______ ____
ROOT
ATOM      1  N   LIG    1        2.643  -2.083  -1.478  0.00  0.00    -0.690 N 
ATOM      2  H   LIG    1        2.972  -1.895  -2.371  0.00  0.00    +0.410 HD
ATOM      3  C   LIG    1        2.343  -1.069  -0.642  0.00  0.00    +0.710 C 
ATOM      4  N   LIG    1        2.600   0.203  -1.006  0.00  0.00    -0.730 N 
ATOM      5  H   LIG    1        3.001   0.389  -1.870  0.00  0.00    +0.400 HD
ATOM      6  O   LIG    1        1.840  -1.302   0.440  0.00  0.00    -0.570 OA
ENDROOT
BRANCH   1  14
ATOM      7  C   LIG    1        0.890  -9.062  -2.930  0.00  0.00    +0.290 C 
ATOM      8  N   LIG    1        1.132  -7.952  -2.004  0.00  0.00    -0.620 N 
ATOM      9  C   LIG    1        0.927  -8.153  -0.571  0.00  0.00    +0.270 C 
ATOM     10  C   LIG    1        2.025  -7.464   0.238  0.00  0.00    +0.090 C 
ATOM     11  C   LIG    1        2.174  -6.032  -0.205  0.00  0.00    -0.070 A 
ATOM     12  C   LIG    1        2.541  -5.055   0.695  0.00  0.00    +0.030 A 
ATOM     13  C   LIG    1        2.699  -3.747   0.272  0.00  0.00    +0.050 A 
ATOM     14  C   LIG    1        2.480  -3.408  -1.057  0.00  0.00    +0.160 A 
ATOM     15  C   LIG    1        2.106  -4.385  -1.969  0.00  0.00    +0.060 A 
ATOM     16  C   LIG    1        1.943  -5.698  -1.542  0.00  0.00    -0.120 A 
ATOM     17  C   LIG    1        1.540  -6.763  -2.486  0.00  0.00    +0.560 C 
ATOM     18  O   LIG    1        1.576  -6.566  -3.685  0.00  0.00    -0.530 OA
ENDBRANCH   1  14
BRANCH   4  19
ATOM     19  C   LIG    1        2.274   1.305  -0.098  0.00  0.00    +0.320 C 
ATOM     20  C   LIG    1        3.120   2.550  -0.440  0.00  0.00    +0.050 C 
ATOM     21  C   LIG    1        2.146   3.707  -0.135  0.00  0.00    +0.100 C 
ATOM     22  C   LIG    1        0.763   3.118  -0.314  0.00  0.00    -0.080 A 
ATOM     23  C   LIG    1       -0.464   3.740  -0.482  0.00  0.00    -0.030 A 
ATOM     24  C   LIG    1       -1.613   2.985  -0.628  0.00  0.00    +0.040 A 
ATOM     25  C   LIG    1       -1.537   1.605  -0.612  0.00  0.00    +0.020 A 
ATOM     26  C   LIG    1       -0.316   0.984  -0.439  0.00  0.00    +0.050 A 
ATOM     27 CL   LIG    1       -0.558   5.474  -0.510  0.00  0.00    -0.070 Cl
ATOM     28  C   LIG    1        0.836   1.738  -0.292  0.00  0.00    -0.100 A 
ENDBRANCH   4  19
TORSDOF 2
