REMARK  Name = ZINCpk00000xIiMf.2
REMARK                            x       y       z     vdW  Elec       q    Type
REMARK                         _______ _______ _______ _____ _____    ______ ____
ROOT
ATOM      1  C   LIG    1       -1.151  -0.974  -0.089  0.00  0.00    +0.260 C 
ENDROOT
BRANCH   1   2
ATOM      2  C   LIG    1        0.025  -0.033  -0.041  0.00  0.00    -0.210 A 
ATOM      3  C   LIG    1       -0.035   1.316  -0.030  0.00  0.00    +0.240 A 
ATOM      4  N   LIG    1        1.229   1.790   0.016  0.00  0.00    -0.470 N 
ATOM      5  H   LIG    1        1.486   2.725   0.033  0.00  0.00    +0.440 HD
ATOM      6  N   LIG    1        2.104   0.696   0.034  0.00  0.00    -0.270 NA
ATOM      7  C   LIG    1        1.383  -0.405  -0.000  0.00  0.00    +0.130 A 
BRANCH   7   8
ATOM      8  C   LIG    1        1.909  -1.793   0.004  0.00  0.00    -0.040 A 
ATOM      9  C   LIG    1        1.431  -2.724  -0.915  0.00  0.00    +0.060 A 
ATOM     10  C   LIG    1        1.923  -4.014  -0.907  0.00  0.00    +0.000 A 
ATOM     11  C   LIG    1        2.889  -4.383   0.010  0.00  0.00    +0.050 A 
ATOM     12  C   LIG    1        3.369  -3.465   0.926  0.00  0.00    -0.010 A 
ATOM     13  C   LIG    1        2.888  -2.168   0.924  0.00  0.00    +0.130 A 
ATOM     14  F   LIG    1        3.361  -1.269   1.815  0.00  0.00    -0.130 F 
ENDBRANCH   7   8
ENDBRANCH   1   2
BRANCH   1  18
ATOM     15  C   LIG    1       -3.054  -2.658   2.528  0.00  0.00    +0.120 C 
ATOM     16  C   LIG    1       -3.155  -1.131   2.788  0.00  0.00    -0.020 C 
ATOM     17  C   LIG    1       -1.830  -0.592   2.209  0.00  0.00    +0.200 C 
ATOM     18  N   LIG    1       -1.343  -1.585   1.233  0.00  0.00    -0.510 NA
ATOM     19  C   LIG    1       -2.317  -2.696   1.167  0.00  0.00    +0.220 C 
BRANCH  15  20
ATOM     20  O   LIG    1       -2.284  -3.300   3.547  0.00  0.00    -0.530 OA
ATOM     21  H   LIG    1       -2.659  -3.218   4.434  0.00  0.00    +0.390 HD
ENDBRANCH  15  20
BRANCH  15  22
ATOM     22  C   LIG    1       -4.444  -3.288   2.417  0.00  0.00    +0.320 C 
BRANCH  22  23
ATOM     23  N   LIG    1       -5.210  -2.998   3.631  0.00  0.00    -0.290 N 
ATOM     24  C   LIG    1       -6.426  -2.406   3.679  0.00  0.00    +0.140 A 
ATOM     25  C   LIG    1       -6.760  -2.335   4.989  0.00  0.00    +0.140 A 
ATOM     26  N   LIG    1       -5.745  -2.880   5.670  0.00  0.00    -0.260 NA
ATOM     27  N   LIG    1       -4.845  -3.268   4.836  0.00  0.00    -0.090 NA
ENDBRANCH  22  23
ENDBRANCH  15  22
ENDBRANCH   1  18
TORSDOF 6
