REMARK  Name = ZINCpk00000y6yjt.0
REMARK                            x       y       z     vdW  Elec       q    Type
REMARK                         _______ _______ _______ _____ _____    ______ ____
ROOT
ATOM      1  O   LIG    1        3.626   2.021  -2.227  0.00  0.00    -0.520 OA
ATOM      2  C   LIG    1        2.863   2.494  -1.411  0.00  0.00    +0.500 C 
ATOM      3  N   LIG    1        2.142   1.681  -0.613  0.00  0.00    -0.620 N 
ATOM      4  C   LIG    1        1.213   2.239   0.380  0.00  0.00    +0.280 C 
ATOM      5  C   LIG    1       -0.169   1.613   0.168  0.00  0.00    +0.040 C 
ATOM      6  C   LIG    1       -0.045   0.088   0.209  0.00  0.00    +0.170 C 
ATOM      7  C   LIG    1        0.875  -0.382  -0.919  0.00  0.00    +0.000 C 
ATOM      8  C   LIG    1        2.269   0.222  -0.720  0.00  0.00    +0.290 C 
ENDROOT
BRANCH   6   9
ATOM      9  O   LIG    1       -1.338  -0.499   0.045  0.00  0.00    -0.310 OA
BRANCH   9  10
ATOM     10  C   LIG    1       -1.520  -1.744   0.557  0.00  0.00    +0.130 A 
ATOM     11  C   LIG    1       -2.779  -2.326   0.538  0.00  0.00    -0.020 A 
ATOM     12  C   LIG    1       -2.961  -3.594   1.055  0.00  0.00    +0.050 A 
ATOM     13  C   LIG    1       -1.890  -4.280   1.599  0.00  0.00    -0.040 A 
ATOM     14  C   LIG    1       -0.635  -3.700   1.623  0.00  0.00    +0.040 A 
ATOM     15  C   LIG    1       -0.448  -2.434   1.103  0.00  0.00    -0.080 A 
ENDBRANCH   9  10
ENDBRANCH   6   9
BRANCH   2  16
ATOM     16  C   LIG    1        2.721   3.989  -1.290  0.00  0.00    +0.310 C 
BRANCH  16  17
ATOM     17  N   LIG    1        3.604   4.644  -2.258  0.00  0.00    -0.580 N 
ATOM     18  C   LIG    1        3.106   4.952  -3.609  0.00  0.00    +0.290 C 
ATOM     19  C   LIG    1        3.771   3.999  -4.605  0.00  0.00    +0.010 C 
ATOM     20  C   LIG    1        5.107   4.548  -5.070  0.00  0.00    +0.020 C 
ATOM     21  C   LIG    1        6.160   4.604  -3.978  0.00  0.00    +0.050 C 
ATOM     22  C   LIG    1        5.776   5.628  -2.907  0.00  0.00    +0.190 C 
ATOM     23  C   LIG    1        4.851   4.961  -1.909  0.00  0.00    +0.490 C 
ATOM     24  O   LIG    1        5.248   4.712  -0.791  0.00  0.00    -0.540 OA
BRANCH  22  25
ATOM     25  O   LIG    1        5.103   6.732  -3.516  0.00  0.00    -0.540 OA
ATOM     26  H   LIG    1        4.831   7.419  -2.893  0.00  0.00    +0.380 HD
ENDBRANCH  22  25
ENDBRANCH  16  17
ENDBRANCH   2  16
TORSDOF 5
