REMARK  Name = ZINCvU0000000DFQ.0
REMARK                            x       y       z     vdW  Elec       q    Type
REMARK                         _______ _______ _______ _____ _____    ______ ____
ROOT
ATOM      1  C   LIG    1        8.511   2.969   0.041  0.00  0.00    -0.230 A 
ATOM      2  C   LIG    1        8.335   1.623  -0.026  0.00  0.00    +0.150 A 
ATOM      3  O   LIG    1        7.158   1.055  -0.284  0.00  0.00    -0.210 OA
ATOM      4  C   LIG    1        6.008   1.749  -0.185  0.00  0.00    +0.160 A 
ATOM      5  C   LIG    1        4.787   1.087  -0.137  0.00  0.00    +0.010 A 
ATOM      6  C   LIG    1        3.612   1.815  -0.056  0.00  0.00    +0.150 A 
ATOM      7  C   LIG    1        3.640   3.207  -0.011  0.00  0.00    -0.010 A 
ATOM      8  C   LIG    1        4.833   3.873  -0.048  0.00  0.00    +0.130 A 
ATOM      9  C   LIG    1        6.024   3.154  -0.132  0.00  0.00    -0.210 A 
ATOM     10  C   LIG    1        9.529   0.732   0.202  0.00  0.00    +0.180 C 
ATOM     11  C   LIG    1        7.333   3.834  -0.163  0.00  0.00    +0.440 A 
ATOM     12  O   LIG    1        7.435   5.035  -0.346  0.00  0.00    -0.450 OA
ENDROOT
BRANCH   1  18
ATOM     13  C   LIG    1       10.139   4.086   1.571  0.00  0.00    +0.150 A 
ATOM     14  C   LIG    1       11.389   4.628   1.815  0.00  0.00    -0.080 A 
ATOM     15  C   LIG    1       12.346   4.641   0.817  0.00  0.00    +0.060 A 
ATOM     16  C   LIG    1       12.061   4.113  -0.429  0.00  0.00    -0.020 A 
ATOM     17  C   LIG    1       10.820   3.563  -0.684  0.00  0.00    +0.060 A 
ATOM     18  C   LIG    1        9.848   3.551   0.312  0.00  0.00    -0.050 A 
BRANCH  13  20
ATOM     19  C   LIG    1        9.566   4.637   3.811  0.00  0.00    +0.250 C 
ATOM     20  O   LIG    1        9.197   4.074   2.551  0.00  0.00    -0.310 OA
ENDBRANCH  13  20
ENDBRANCH   1  18
BRANCH   6  21
ATOM     21  O   LIG    1        2.421   1.165  -0.015  0.00  0.00    -0.290 OA
BRANCH  21  22
ATOM     22  C   LIG    1        1.675   1.137  -1.139  0.00  0.00    +0.500 C 
ATOM     23  O   LIG    1        2.033   1.757  -2.122  0.00  0.00    -0.490 OA
BRANCH  22  24
ATOM     24  C   LIG    1        0.438   0.360  -1.176  0.00  0.00    -0.050 C 
ATOM     25  C   LIG    1       -0.305   0.327  -2.302  0.00  0.00    +0.150 C 
BRANCH  25  26
ATOM     26  C   LIG    1       -1.548  -0.460  -2.340  0.00  0.00    -0.090 A 
ATOM     27  C   LIG    1       -1.960  -1.180  -1.214  0.00  0.00    +0.040 A 
ATOM     28  C   LIG    1       -3.129  -1.910  -1.256  0.00  0.00    +0.010 A 
ATOM     29  C   LIG    1       -3.888  -1.942  -2.413  0.00  0.00    +0.030 A 
ATOM     30  C   LIG    1       -3.484  -1.237  -3.534  0.00  0.00    +0.010 A 
ATOM     31  C   LIG    1       -2.321  -0.497  -3.506  0.00  0.00    +0.040 A 
ENDBRANCH  25  26
ENDBRANCH  22  24
ENDBRANCH  21  22
ENDBRANCH   6  21
TORSDOF 6
