REMARK  Name = ZINCqH00000369tn.0
REMARK                            x       y       z     vdW  Elec       q    Type
REMARK                         _______ _______ _______ _____ _____    ______ ____
ROOT
ATOM      1  C   LIG    1       -0.046  -1.738  -5.282  0.00  0.00    +0.140 A 
ATOM      2  C   LIG    1        1.272  -1.385  -5.036  0.00  0.00    -0.080 A 
ATOM      3  C   LIG    1        1.634  -0.898  -3.797  0.00  0.00    +0.060 A 
ATOM      4  C   LIG    1        0.687  -0.759  -2.792  0.00  0.00    -0.140 A 
ATOM      5  C   LIG    1        1.137  -0.245  -1.453  0.00  0.00    +0.340 C 
ATOM      6  N   LIG    1       -0.011   0.162  -0.639  0.00  0.00    -0.600 N 
ATOM      7  C   LIG    1       -1.161  -0.755  -0.553  0.00  0.00    +0.330 C 
ATOM      8  C   LIG    1       -1.689  -0.946  -1.980  0.00  0.00    -0.120 C 
ATOM      9  C   LIG    1       -2.974  -0.213  -2.362  0.00  0.00    +0.050 C 
ATOM     10  C   LIG    1       -2.990  -1.729  -2.156  0.00  0.00    +0.040 C 
ATOM     11  C   LIG    1       -0.016   1.344   0.009  0.00  0.00    +0.570 C 
ATOM     12  O   LIG    1       -1.021   1.717   0.584  0.00  0.00    -0.520 OA
ATOM     13  C   LIG    1       -0.627  -1.100  -3.040  0.00  0.00    +0.010 A 
ATOM     14  C   LIG    1       -0.994  -1.592  -4.281  0.00  0.00    -0.020 A 
ENDROOT
BRANCH  11  15
ATOM     15  C   LIG    1        1.195   2.187   0.017  0.00  0.00    -0.090 A 
ATOM     16  C   LIG    1        2.459   1.598  -0.069  0.00  0.00    +0.050 A 
ATOM     17  C   LIG    1        3.589   2.388  -0.062  0.00  0.00    -0.040 A 
ATOM     18  C   LIG    1        3.474   3.769   0.030  0.00  0.00    +0.110 A 
ATOM     19  C   LIG    1        2.216   4.363   0.115  0.00  0.00    +0.110 A 
ATOM     20 CL   LIG    1        5.159   1.655  -0.168  0.00  0.00    -0.040 Cl
ATOM     21  C   LIG    1        1.079   3.577   0.103  0.00  0.00    +0.020 A 
BRANCH  19  22
ATOM     22  O   LIG    1        2.106   5.715   0.205  0.00  0.00    -0.300 OA
ATOM     23  C   LIG    1        0.786   6.255   0.289  0.00  0.00    +0.250 C 
ENDBRANCH  19  22
BRANCH  18  24
ATOM     24  O   LIG    1        4.590   4.543   0.037  0.00  0.00    -0.470 OA
ATOM     25  H   LIG    1        4.880   4.823  -0.841  0.00  0.00    +0.390 HD
ENDBRANCH  18  24
ENDBRANCH  11  15
BRANCH   1  27
ATOM     26  C   LIG    1        0.623  -2.345  -7.481  0.00  0.00    +0.250 C 
ATOM     27  O   LIG    1       -0.408  -2.223  -6.499  0.00  0.00    -0.320 OA
ENDBRANCH   1  27
TORSDOF 4
