REMARK  Name = ZINCrD00000F5Lqz.1
REMARK                            x       y       z     vdW  Elec       q    Type
REMARK                         _______ _______ _______ _____ _____    ______ ____
ROOT
ATOM      1  C   LIG    1       -3.896   1.313  -1.981  0.00  0.00    +0.570 C 
ATOM      2  N   LIG    1       -3.185   2.018  -1.079  0.00  0.00    -0.600 N 
ATOM      3  C   LIG    1       -3.778   3.174  -0.391  0.00  0.00    +0.300 C 
ATOM      4  C   LIG    1       -3.871   2.871   1.110  0.00  0.00    +0.120 C 
ATOM      5  C   LIG    1       -2.571   2.260   1.563  0.00  0.00    -0.010 A 
ATOM      6  C   LIG    1       -1.647   1.713   0.743  0.00  0.00    -0.010 A 
ATOM      7  N   LIG    1       -0.636   1.271   1.493  0.00  0.00    -0.470 NA
ATOM      8  C   LIG    1       -0.894   1.522   2.750  0.00  0.00    +0.400 A 
ATOM      9  N   LIG    1       -2.094   2.141   2.834  0.00  0.00    -0.560 N 
ATOM     10  H   LIG    1       -2.532   2.442   3.645  0.00  0.00    +0.420 HD
ATOM     11  C   LIG    1       -1.795   1.649  -0.759  0.00  0.00    +0.380 C 
ATOM     12  O   LIG    1       -4.990   1.707  -2.335  0.00  0.00    -0.520 OA
ENDROOT
BRANCH  11  13
ATOM     13  C   LIG    1       -0.844   2.620  -1.410  0.00  0.00    -0.080 A 
ATOM     14  C   LIG    1       -0.873   3.956  -1.059  0.00  0.00    +0.030 A 
ATOM     15  C   LIG    1       -0.004   4.848  -1.660  0.00  0.00    +0.020 A 
ATOM     16  C   LIG    1        0.897   4.403  -2.608  0.00  0.00    +0.040 A 
ATOM     17  C   LIG    1        0.930   3.065  -2.956  0.00  0.00    -0.030 A 
ATOM     18 CL   LIG    1        2.063   2.505  -4.146  0.00  0.00    -0.060 Cl
ATOM     19  C   LIG    1        0.061   2.172  -2.354  0.00  0.00    +0.040 A 
ENDBRANCH  11  13
BRANCH   1  22
ATOM     20  C   LIG    1       -3.113  -1.485  -4.375  0.00  0.00    -0.220 A 
ATOM     21  C   LIG    1       -3.640  -0.303  -3.851  0.00  0.00    +0.160 A 
ATOM     22  C   LIG    1       -3.346   0.061  -2.539  0.00  0.00    -0.160 A 
ATOM     23  C   LIG    1       -2.535  -0.760  -1.748  0.00  0.00    +0.100 A 
ATOM     24  C   LIG    1       -2.018  -1.929  -2.262  0.00  0.00    -0.010 A 
ATOM     25  C   LIG    1       -2.299  -2.302  -3.570  0.00  0.00    +0.190 A 
BRANCH  20  27
ATOM     26  O   LIG    1       -4.115  -1.169  -6.450  0.00  0.00    -0.450 OA
ATOM     27  C   LIG    1       -3.412  -1.876  -5.758  0.00  0.00    +0.490 C 
ENDBRANCH  20  27
BRANCH  25  28
ATOM     28  O   LIG    1       -1.789  -3.453  -4.070  0.00  0.00    -0.490 OA
ATOM     29  H   LIG    1       -2.356  -4.225  -3.937  0.00  0.00    +0.400 HD
ENDBRANCH  25  28
ENDBRANCH   1  22
TORSDOF 4
