REMARK  Name = ZINCpe00000MC2MD.1
REMARK                            x       y       z     vdW  Elec       q    Type
REMARK                         _______ _______ _______ _____ _____    ______ ____
ROOT
ATOM      1  C   LIG    1        0.103   9.363   1.838  0.00  0.00    +0.520 C 
ATOM      2  N   LIG    1        1.022  10.194   2.368  0.00  0.00    -0.620 N 
ATOM      3  C   LIG    1        2.222   9.668   3.039  0.00  0.00    +0.260 C 
ATOM      4  C   LIG    1        3.451  10.370   2.452  0.00  0.00    +0.240 C 
ATOM      5  O   LIG    1        3.259  11.785   2.514  0.00  0.00    -0.380 OA
ATOM      6  C   LIG    1        2.153  12.260   1.742  0.00  0.00    +0.140 C 
ATOM      7  C   LIG    1        0.860  11.654   2.288  0.00  0.00    +0.290 C 
ATOM      8  O   LIG    1       -0.879   9.817   1.289  0.00  0.00    -0.500 OA
ENDROOT
BRANCH   1   9
ATOM      9  C   LIG    1        0.295   7.871   1.927  0.00  0.00    +0.230 C 
BRANCH   9  10
ATOM     10  O   LIG    1       -0.805   7.211   1.297  0.00  0.00    -0.290 OA
BRANCH  10  14
ATOM     11  C   LIG    1       -0.749   3.086   1.275  0.00  0.00    -0.110 A 
ATOM     12  C   LIG    1        0.282   3.787   1.873  0.00  0.00    +0.050 A 
ATOM     13  C   LIG    1        0.268   5.168   1.877  0.00  0.00    -0.080 A 
ATOM     14  C   LIG    1       -0.787   5.852   1.290  0.00  0.00    +0.120 A 
ATOM     15  C   LIG    1       -1.823   5.146   0.696  0.00  0.00    -0.010 A 
ATOM     16  C   LIG    1       -1.802   3.765   0.690  0.00  0.00    +0.050 A 
BRANCH  11  18
ATOM     17  C   LIG    1       -0.013   1.086   0.008  0.00  0.00    +0.020 C 
ATOM     18  C   LIG    1       -0.729   1.579   1.267  0.00  0.00    +0.060 C 
ENDBRANCH  11  18
ENDBRANCH  10  14
ENDBRANCH   9  10
ENDBRANCH   1   9
BRANCH   6  19
ATOM     19  C   LIG    1        2.084  13.786   1.834  0.00  0.00    +0.280 C 
BRANCH  19  20
ATOM     20  N   LIG    1        3.276  14.369   1.203  0.00  0.00    -0.360 N 
ATOM     21  C   LIG    1        3.268  14.065  -0.234  0.00  0.00    +0.310 C 
ATOM     22  H   LIG    1        4.104  13.978   1.625  0.00  0.00    +0.430 HD
BRANCH  20  23
ATOM     23  C   LIG    1        3.268  15.825   1.396  0.00  0.00    +0.160 C 
BRANCH  23  24
ATOM     24  C   LIG    1        4.549  16.409   0.858  0.00  0.00    +0.490 C 
ATOM     25  O   LIG    1        4.744  17.611   0.920  0.00  0.00    -0.640 OA
ATOM     26  O   LIG    1        5.390  15.680   0.360  0.00  0.00    -0.670 OA
ENDBRANCH  23  24
ENDBRANCH  20  23
ENDBRANCH  19  20
ENDBRANCH   6  19
TORSDOF 8
