REMARK  Name = ZINCpe00000MC2MD.0
REMARK                            x       y       z     vdW  Elec       q    Type
REMARK                         _______ _______ _______ _____ _____    ______ ____
ROOT
ATOM      1  C   LIG    1        0.043   0.008  -0.002  0.00  0.00    +0.520 C 
ATOM      2  N   LIG    1        0.655  -0.606  -1.034  0.00  0.00    -0.620 N 
ATOM      3  C   LIG    1        1.344   0.171  -2.077  0.00  0.00    +0.260 C 
ATOM      4  C   LIG    1        2.755  -0.412  -2.255  0.00  0.00    +0.240 C 
ATOM      5  O   LIG    1        2.656  -1.821  -2.475  0.00  0.00    -0.380 OA
ATOM      6  C   LIG    1        2.088  -2.546  -1.381  0.00  0.00    +0.140 C 
ATOM      7  C   LIG    1        0.648  -2.073  -1.155  0.00  0.00    +0.290 C 
ATOM      8  O   LIG    1       -0.524  -0.650   0.845  0.00  0.00    -0.500 OA
ENDROOT
BRANCH   1   9
ATOM      9  C   LIG    1        0.064   1.511   0.100  0.00  0.00    +0.240 C 
BRANCH   9  10
ATOM     10  O   LIG    1       -0.646   1.919   1.271  0.00  0.00    -0.290 OA
BRANCH  10  14
ATOM     11  C   LIG    1       -0.878   5.972   2.005  0.00  0.00    -0.110 A 
ATOM     12  C   LIG    1       -1.473   5.078   2.875  0.00  0.00    +0.050 A 
ATOM     13  C   LIG    1       -1.397   3.720   2.632  0.00  0.00    -0.010 A 
ATOM     14  C   LIG    1       -0.723   3.254   1.513  0.00  0.00    +0.120 A 
ATOM     15  C   LIG    1       -0.121   4.153   0.643  0.00  0.00    -0.080 A 
ATOM     16  C   LIG    1       -0.205   5.510   0.889  0.00  0.00    +0.050 A 
BRANCH  11  18
ATOM     17  C   LIG    1        0.231   7.885   3.127  0.00  0.00    +0.020 C 
ATOM     18  C   LIG    1       -0.962   7.453   2.272  0.00  0.00    +0.060 C 
ENDBRANCH  11  18
ENDBRANCH  10  14
ENDBRANCH   9  10
ENDBRANCH   1   9
BRANCH   6  19
ATOM     19  C   LIG    1        2.090  -4.042  -1.702  0.00  0.00    +0.280 C 
BRANCH  19  20
ATOM     20  N   LIG    1        3.476  -4.521  -1.792  0.00  0.00    -0.360 N 
ATOM     21  C   LIG    1        3.482  -5.918  -2.246  0.00  0.00    +0.320 C 
ATOM     22  H   LIG    1        3.987  -3.952  -2.450  0.00  0.00    +0.430 HD
BRANCH  20  23
ATOM     23  C   LIG    1        4.111  -4.433  -0.470  0.00  0.00    +0.150 C 
BRANCH  23  24
ATOM     24  C   LIG    1        5.566  -4.808  -0.586  0.00  0.00    +0.490 C 
ATOM     25  O   LIG    1        6.279  -4.799   0.403  0.00  0.00    -0.640 OA
ATOM     26  O   LIG    1        6.031  -5.120  -1.669  0.00  0.00    -0.670 OA
ENDBRANCH  23  24
ENDBRANCH  20  23
ENDBRANCH  19  20
ENDBRANCH   6  19
TORSDOF 8
