REMARK  Name = ZINCrD000000fX25.0
REMARK                            x       y       z     vdW  Elec       q    Type
REMARK                         _______ _______ _______ _____ _____    ______ ____
ROOT
ATOM      1  C   LIG    1       -0.003   1.211  -0.161  0.00  0.00    +0.570 C 
ATOM      2  N   LIG    1        1.143   1.901   0.001  0.00  0.00    -0.670 N 
ATOM      3  H   LIG    1        1.123   2.870   0.055  0.00  0.00    +0.410 HD
ATOM      4  O   LIG    1        0.032   0.006  -0.324  0.00  0.00    -0.500 OA
ENDROOT
BRANCH   2   5
ATOM      5  C   LIG    1        2.363   1.222   0.092  0.00  0.00    +0.140 A 
ATOM      6  C   LIG    1        3.518   1.801  -0.419  0.00  0.00    +0.030 A 
ATOM      7  C   LIG    1        4.727   1.133  -0.332  0.00  0.00    +0.060 A 
ATOM      8  C   LIG    1        4.787  -0.108   0.261  0.00  0.00    -0.100 A 
ATOM      9  C   LIG    1        5.915  -1.078   0.511  0.00  0.00    +0.340 C 
ATOM     10  N   LIG    1        5.320  -2.233   1.192  0.00  0.00    -0.720 N 
ATOM     11  H   LIG    1        5.798  -3.025   1.484  0.00  0.00    +0.430 HD
ATOM     12  C   LIG    1        4.003  -2.014   1.346  0.00  0.00    +0.560 C 
ATOM     13  O   LIG    1        3.227  -2.785   1.876  0.00  0.00    -0.520 OA
ATOM     14  C   LIG    1        3.633  -0.702   0.779  0.00  0.00    -0.140 A 
ATOM     15  C   LIG    1        2.417  -0.025   0.695  0.00  0.00    +0.100 A 
ENDBRANCH   2   5
BRANCH   1  22
ATOM     16  C   LIG    1       -5.110   1.643  -0.423  0.00  0.00    +0.090 A 
ATOM     17  N   LIG    1       -5.703   2.793  -0.301  0.00  0.00    -0.310 NA
ATOM     18  O   LIG    1       -4.939   3.714  -0.126  0.00  0.00    +0.090 OA
ATOM     19  C   LIG    1       -3.651   3.331  -0.098  0.00  0.00    +0.240 A 
ATOM     20  N   LIG    1       -2.494   3.953   0.061  0.00  0.00    -0.460 NA
ATOM     21  C   LIG    1       -1.351   3.304   0.043  0.00  0.00    +0.380 A 
ATOM     22  C   LIG    1       -1.299   1.917  -0.145  0.00  0.00    -0.210 A 
ATOM     23  C   LIG    1       -2.495   1.212  -0.324  0.00  0.00    +0.230 A 
ATOM     24  C   LIG    1       -3.679   1.933  -0.293  0.00  0.00    -0.220 A 
BRANCH  16  25
ATOM     25  C   LIG    1       -5.755   0.300  -0.650  0.00  0.00    +0.150 C 
BRANCH  25  27
ATOM     26  C   LIG    1       -4.494   0.056  -2.793  0.00  0.00    +0.020 C 
ATOM     27  C   LIG    1       -5.884   0.044  -2.153  0.00  0.00    -0.060 C 
ATOM     28  C   LIG    1       -6.747   1.137  -2.785  0.00  0.00    +0.030 C 
ATOM     29  C   LIG    1       -6.539  -1.320  -2.383  0.00  0.00    +0.040 C 
ENDBRANCH  25  27
ENDBRANCH  16  25
ENDBRANCH   1  22
TORSDOF 4
