REMARK  Name = ZINCnE000001L3ys.1
REMARK                            x       y       z     vdW  Elec       q    Type
REMARK                         _______ _______ _______ _____ _____    ______ ____
ROOT
ATOM      1  C   LIG    1        3.001   0.899   1.394  0.00  0.00    +0.470 C 
ATOM      2  N   LIG    1        4.169   0.268   1.626  0.00  0.00    -0.690 NA
ATOM      3  O   LIG    1        2.362   1.350   2.321  0.00  0.00    -0.560 OA
ENDROOT
BRANCH   2   4
ATOM      4  C   LIG    1        4.640   0.135   2.922  0.00  0.00    +0.400 A 
ATOM      5  N   LIG    1        4.041   0.582   3.971  0.00  0.00    -0.560 NA
ATOM      6  C   LIG    1        4.623   0.370   5.168  0.00  0.00    +0.160 A 
ATOM      7  C   LIG    1        4.172   0.751   6.449  0.00  0.00    +0.000 A 
ATOM      8  C   LIG    1        4.912   0.450   7.564  0.00  0.00    +0.020 A 
ATOM      9  C   LIG    1        6.113  -0.234   7.452  0.00  0.00    -0.050 A 
ATOM     10  C   LIG    1        6.573  -0.617   6.211  0.00  0.00    +0.060 A 
ATOM     11  C   LIG    1        5.836  -0.319   5.068  0.00  0.00    -0.220 A 
ATOM     12  S   LIG    1        6.142  -0.662   3.367  0.00  0.00    -0.040 S 
ENDBRANCH   2   4
BRANCH   1  13
ATOM     13  C   LIG    1        2.489   1.044  -0.016  0.00  0.00    +0.100 C 
BRANCH  13  17
ATOM     14  C   LIG    1       -1.241   3.137   0.031  0.00  0.00    +0.150 A 
ATOM     15  C   LIG    1       -1.219   1.749   0.017  0.00  0.00    -0.120 A 
ATOM     16  C   LIG    1       -0.013   1.076   0.008  0.00  0.00    +0.090 A 
ATOM     17  C   LIG    1        1.175   1.782   0.000  0.00  0.00    -0.110 A 
ATOM     18  C   LIG    1        1.159   3.170   0.008  0.00  0.00    +0.180 A 
ATOM     19  C   LIG    1       -0.050   3.847   0.023  0.00  0.00    -0.110 A 
BRANCH  14  21
ATOM     20  C   LIG    1       -3.614   3.002   0.052  0.00  0.00    +0.240 C 
ATOM     21  O   LIG    1       -2.428   3.798   0.045  0.00  0.00    -0.320 OA
ENDBRANCH  14  21
BRANCH  18  22
ATOM     22  O   LIG    1        2.327   3.863   0.001  0.00  0.00    -0.300 OA
ATOM     23  C   LIG    1        2.235   5.289   0.009  0.00  0.00    +0.230 C 
ENDBRANCH  18  22
ENDBRANCH  13  17
ENDBRANCH   1  13
TORSDOF 5
