REMARK  Name = ZINC650000002rCy.1
REMARK                            x       y       z     vdW  Elec       q    Type
REMARK                         _______ _______ _______ _____ _____    ______ ____
ROOT
ATOM      1  CB  ALA A  1        1.417   2.032  -0.001  0.00  0.00    +0.080 C 
ATOM      2  CA  ALA A  1       -0.018   1.503   0.010  0.00  0.00    +0.070 C 
ENDROOT
BRANCH   2   3
ATOM      3  N   ALA A  1       -0.706   1.976   1.219  0.00  0.00    -0.610 N 
ATOM      4  H1  ALA A  1       -1.653   1.627   1.226  0.00  0.00    +0.430 HD
ATOM      5  H2  ALA A  1       -0.720   2.985   1.224  0.00  0.00    +0.410 HD
ATOM      6  H3  ALA A  1       -0.218   1.642   2.036  0.00  0.00    +0.430 HD
ENDBRANCH   2   3
BRANCH   2   7
ATOM      7  C   ALA A  1        0.002  -0.004   0.002  0.00  0.00    +0.490 C 
ATOM      8  OXT ALA A  1        0.362  -0.603  -0.997  0.00  0.00    -0.640 OA
ATOM      9  O   ALA A  1       -0.341  -0.624   0.994  0.00  0.00    -0.670 OA
ENDBRANCH   2   7
TORSDOF 2
