REMARK  Name = ZINC660000002yQp.0
REMARK                            x       y       z     vdW  Elec       q    Type
REMARK                         _______ _______ _______ _____ _____    ______ ____
ROOT
ATOM      1  C   LIG    1        1.145   3.085   0.008  0.00  0.00    +0.150 C 
ATOM      2  C   LIG    1        0.285   3.510   1.200  0.00  0.00    +0.010 C 
ENDROOT
BRANCH   1   4
ATOM      3  C   LIG    1        0.919   4.818  -1.633  0.00  0.00    +0.200 C 
ATOM      4  O   LIG    1        0.522   3.513  -1.205  0.00  0.00    -0.380 OA
ENDBRANCH   1   4
BRANCH   1   5
ATOM      5  C   LIG    1        1.286   1.562  -0.002  0.00  0.00    +0.190 C 
BRANCH   5   6
ATOM      6  O   LIG    1       -0.011   0.963   0.007  0.00  0.00    -0.560 OA
ATOM      7  H   LIG    1        0.002  -0.004   0.002  0.00  0.00    +0.380 HD
ENDBRANCH   5   6
ENDBRANCH   1   5
TORSDOF 3
