REMARK  Name = ZINCvU0000000F5E.0
REMARK                            x       y       z     vdW  Elec       q    Type
REMARK                         _______ _______ _______ _____ _____    ______ ____
ROOT
ATOM      1  N   LIG    1       -1.295   5.353   0.530  0.00  0.00    -0.510 NA
ATOM      2  C   LIG    1       -1.081   5.884  -0.657  0.00  0.00    +0.370 A 
ATOM      3  S   LIG    1       -1.684   7.435  -1.268  0.00  0.00    +0.000 S 
ATOM      4  C   LIG    1       -0.913   7.274  -2.856  0.00  0.00    -0.030 A 
ATOM      5  C   LIG    1       -0.265   6.103  -2.829  0.00  0.00    +0.170 A 
ATOM      6  N   LIG    1       -0.347   5.356  -1.685  0.00  0.00    -0.370 N 
ENDROOT
BRANCH   5   7
ATOM      7  C   LIG    1        0.508   5.630  -3.998  0.00  0.00    -0.050 A 
ATOM      8  C   LIG    1        1.397   6.490  -4.644  0.00  0.00    +0.060 A 
ATOM      9  C   LIG    1        2.116   6.046  -5.734  0.00  0.00    +0.020 A 
ATOM     10  C   LIG    1        1.959   4.745  -6.193  0.00  0.00    +0.070 A 
ATOM     11  O   LIG    1        2.674   4.331  -7.276  0.00  0.00    -0.300 OA
ATOM     12  C   LIG    1        2.772   2.917  -7.480  0.00  0.00    +0.230 C 
ATOM     13  C   LIG    1        1.373   2.310  -7.311  0.00  0.00    +0.230 C 
ATOM     14  O   LIG    1        0.914   2.602  -5.987  0.00  0.00    -0.300 OA
ATOM     15  C   LIG    1        1.075   3.882  -5.552  0.00  0.00    +0.050 A 
ATOM     16  C   LIG    1        0.355   4.320  -4.455  0.00  0.00    +0.070 A 
ENDBRANCH   5   7
BRANCH   6  17
ATOM     17  N   LIG    1        0.294   4.116  -1.569  0.00  0.00    -0.260 NA
ATOM     18  C   LIG    1        1.261   3.970  -0.742  0.00  0.00    +0.190 C 
ATOM     19  C   LIG    1        1.900   2.615  -0.527  0.00  0.00    +0.120 C 
ATOM     20  C   LIG    1        3.417   2.763  -0.682  0.00  0.00    +0.030 C 
ATOM     21  C   LIG    1        3.921   3.854   0.264  0.00  0.00    +0.010 C 
ATOM     22  C   LIG    1        3.314   5.202  -0.130  0.00  0.00    +0.020 C 
ATOM     23  C   LIG    1        1.793   5.146   0.045  0.00  0.00    +0.050 C 
ENDBRANCH   6  17
BRANCH   1  27
ATOM     24  C   LIG    1       -3.295   7.518   3.437  0.00  0.00    +0.120 A 
ATOM     25  C   LIG    1       -3.624   6.188   3.217  0.00  0.00    +0.010 A 
ATOM     26  C   LIG    1       -2.960   5.462   2.250  0.00  0.00    +0.060 A 
ATOM     27  C   LIG    1       -1.956   6.069   1.491  0.00  0.00    +0.090 A 
ATOM     28  C   LIG    1       -1.625   7.406   1.720  0.00  0.00    +0.010 A 
ATOM     29  C   LIG    1       -2.299   8.125   2.686  0.00  0.00    -0.050 A 
BRANCH  24  31
ATOM     30  C   LIG    1       -3.565   9.594   4.566  0.00  0.00    +0.250 C 
ATOM     31  O   LIG    1       -3.953   8.230   4.392  0.00  0.00    -0.320 OA
ENDBRANCH  24  31
ENDBRANCH   1  27
TORSDOF 4
