REMARK  Name = ZINCrg00000SjStV.0
REMARK                            x       y       z     vdW  Elec       q    Type
REMARK                         _______ _______ _______ _____ _____    ______ ____
ROOT
ATOM      1  C   LIG    1       -4.530  -1.637   0.201  0.00  0.00    +0.510 C 
ATOM      2  N   LIG    1       -3.280  -1.827   0.667  0.00  0.00    -0.550 N 
ATOM      3  C   LIG    1       -2.370  -0.849   0.828  0.00  0.00    +0.570 C 
ATOM      4  C   LIG    1       -1.127  -1.448   1.355  0.00  0.00    -0.080 A 
ATOM      5  C   LIG    1        0.118  -0.949   1.696  0.00  0.00    +0.050 A 
ATOM      6  C   LIG    1        1.100  -1.805   2.177  0.00  0.00    +0.110 A 
ATOM      7  C   LIG    1        0.848  -3.152   2.319  0.00  0.00    -0.030 A 
ATOM      8  C   LIG    1       -0.401  -3.678   1.981  0.00  0.00    +0.310 A 
ATOM      9  C   LIG    1       -1.393  -2.828   1.492  0.00  0.00    -0.250 A 
ATOM     10  O   LIG    1       -2.538   0.326   0.571  0.00  0.00    -0.410 OA
ATOM     11  C   LIG    1       -2.781  -3.019   1.043  0.00  0.00    +0.590 C 
ATOM     12  O   LIG    1       -3.378  -4.077   1.016  0.00  0.00    -0.460 OA
ATOM     13  O   LIG    1       -4.929  -0.517  -0.018  0.00  0.00    -0.420 OA
ENDROOT
BRANCH   8  14
ATOM     14  N   LIG    1       -0.651  -5.034   2.124  0.00  0.00    -0.850 N 
ATOM     15  H   LIG    1       -1.521  -5.394   1.892  0.00  0.00    +0.410 HD
ATOM     16  H   LIG    1        0.043  -5.622   2.461  0.00  0.00    +0.410 HD
ENDBRANCH   8  14
BRANCH   1  18
ATOM     17  C   LIG    1       -4.971  -3.552  -1.310  0.00  0.00    +0.090 C 
ATOM     18  C   LIG    1       -5.430  -2.820  -0.048  0.00  0.00    +0.290 C 
BRANCH  18  19
ATOM     19  N   LIG    1       -6.808  -2.356  -0.226  0.00  0.00    -0.570 N 
ATOM     20  C   LIG    1       -7.206  -1.502  -1.186  0.00  0.00    +0.580 C 
ATOM     21  C   LIG    1       -8.660  -1.277  -1.044  0.00  0.00    -0.130 A 
ATOM     22  C   LIG    1       -9.593  -0.518  -1.731  0.00  0.00    +0.100 A 
ATOM     23  C   LIG    1      -10.918  -0.525  -1.323  0.00  0.00    +0.050 A 
ATOM     24  C   LIG    1      -11.314  -1.283  -0.237  0.00  0.00    +0.040 A 
ATOM     25  C   LIG    1      -10.390  -2.047   0.459  0.00  0.00    +0.100 A 
ATOM     26  C   LIG    1       -9.063  -2.050   0.064  0.00  0.00    -0.140 A 
ATOM     27  O   LIG    1       -6.490  -1.002  -2.031  0.00  0.00    -0.440 OA
ATOM     28  C   LIG    1       -7.841  -2.723   0.553  0.00  0.00    +0.580 C 
ATOM     29  O   LIG    1       -7.780  -3.480   1.501  0.00  0.00    -0.460 OA
ENDBRANCH  18  19
ENDBRANCH   1  18
TORSDOF 3
