REMARK  Name = ZINCvU00000008pA.0
REMARK                            x       y       z     vdW  Elec       q    Type
REMARK                         _______ _______ _______ _____ _____    ______ ____
ROOT
ATOM      1  N   LIG    1       -2.535  -0.303  -0.089  0.00  0.00    -0.650 N 
ATOM      2  H   LIG    1       -1.704  -0.803  -0.095  0.00  0.00    +0.430 HD
ATOM      3  C   LIG    1       -2.512   1.040   0.020  0.00  0.00    +0.570 C 
ATOM      4  O   LIG    1       -3.553   1.659   0.125  0.00  0.00    -0.500 OA
ENDROOT
BRANCH   3   5
ATOM      5  C   LIG    1       -1.221   1.761   0.010  0.00  0.00    -0.080 A 
ATOM      6  C   LIG    1       -0.013   1.078  -0.001  0.00  0.00    +0.040 A 
ATOM      7  C   LIG    1        1.188   1.803  -0.015  0.00  0.00    +0.200 A 
ATOM      8  N   LIG    1        1.216   3.119  -0.013  0.00  0.00    -0.450 NA
ATOM      9  C   LIG    1        0.103   3.855   0.004  0.00  0.00    +0.130 A 
ATOM     10  C   LIG    1        0.164   5.261   0.006  0.00  0.00    +0.050 A 
ATOM     11  C   LIG    1       -0.988   5.986   0.022  0.00  0.00    +0.030 A 
ATOM     12  C   LIG    1       -2.232   5.359   0.037  0.00  0.00    +0.020 A 
ATOM     13  C   LIG    1       -2.329   3.999   0.035  0.00  0.00    +0.060 A 
ATOM     14  C   LIG    1       -1.166   3.223   0.019  0.00  0.00    -0.060 A 
BRANCH   7  15
ATOM     15  C   LIG    1        2.472   1.060  -0.034  0.00  0.00    -0.060 A 
ATOM     16  C   LIG    1        2.474  -0.334  -0.032  0.00  0.00    +0.030 A 
ATOM     17  C   LIG    1        3.671  -1.019  -0.055  0.00  0.00    +0.010 A 
ATOM     18  C   LIG    1        4.868  -0.326  -0.069  0.00  0.00    +0.030 A 
ATOM     19  C   LIG    1        4.872   1.058  -0.066  0.00  0.00    +0.000 A 
ATOM     20  C   LIG    1        3.681   1.754  -0.049  0.00  0.00    +0.070 A 
ENDBRANCH   7  15
ENDBRANCH   3   5
BRANCH   1  29
ATOM     21  C   LIG    1       -3.914  -2.236   0.405  0.00  0.00    -0.200 A 
ATOM     22  C   LIG    1       -5.143  -2.902   0.295  0.00  0.00    +0.120 A 
ATOM     23  C   LIG    1       -6.183  -2.318  -0.395  0.00  0.00    +0.000 A 
ATOM     24  C   LIG    1       -6.016  -1.062  -0.987  0.00  0.00    +0.100 A 
ATOM     25  O   LIG    1       -7.183  -0.715  -1.601  0.00  0.00    -0.300 OA
ATOM     26  C   LIG    1       -7.929  -1.938  -1.734  0.00  0.00    +0.440 C 
ATOM     27  C   LIG    1       -4.806  -0.395  -0.878  0.00  0.00    +0.020 A 
ATOM     28  O   LIG    1       -7.455  -2.750  -0.644  0.00  0.00    -0.300 OA
ATOM     29  C   LIG    1       -3.751  -0.973  -0.192  0.00  0.00    +0.230 A 
BRANCH  21  31
ATOM     30  C   LIG    1       -3.017  -4.152   1.871  0.00  0.00    +0.080 C 
ATOM     31  C   LIG    1       -2.805  -2.853   1.138  0.00  0.00    +0.410 C 
ATOM     32  O   LIG    1       -1.717  -2.318   1.154  0.00  0.00    -0.470 OA
ENDBRANCH  21  31
ENDBRANCH   1  29
TORSDOF 4
