REMARK  Name = ZINCkj000005eDga.1
REMARK                            x       y       z     vdW  Elec       q    Type
REMARK                         _______ _______ _______ _____ _____    ______ ____
ROOT
ATOM      1  N   LIG    1        2.899   3.632  -0.008  0.00  0.00    -0.480 N 
ENDROOT
BRANCH   1   2
ATOM      2  C   LIG    1        1.597   3.171   0.002  0.00  0.00    +0.420 A 
ATOM      3  C   LIG    1        1.110   2.361  -1.042  0.00  0.00    -0.250 A 
ATOM      4  C   LIG    1        1.661   1.834  -2.230  0.00  0.00    +0.310 A 
ATOM      5  N   LIG    1        0.744   1.136  -2.836  0.00  0.00    -0.230 NA
ATOM      6  N   LIG    1       -0.441   1.165  -2.091  0.00  0.00    -0.370 N 
ATOM      7  C   LIG    1       -1.696   0.498  -2.447  0.00  0.00    +0.380 C 
ATOM      8  C   LIG    1       -0.227   1.921  -0.977  0.00  0.00    +0.340 A 
ATOM      9  N   LIG    1       -0.973   2.284   0.065  0.00  0.00    -0.520 NA
ATOM     10  C   LIG    1       -0.474   3.046   1.014  0.00  0.00    +0.570 A 
ATOM     11  N   LIG    1        0.773   3.482   0.997  0.00  0.00    -0.580 NA
ENDBRANCH   1   2
BRANCH   1  12
ATOM     12  C   LIG    1        3.627   3.178   1.184  0.00  0.00    +0.190 C 
ATOM     13  C   LIG    1        3.985   1.699   1.031  0.00  0.00    +0.040 C 
ENDBRANCH   1  12
BRANCH   1  14
ATOM     14  C   LIG    1        2.938   5.096  -0.124  0.00  0.00    +0.210 C 
BRANCH  14  15
ATOM     15  C   LIG    1        4.377   5.548  -0.383  0.00  0.00    +0.260 C 
BRANCH  15  16
ATOM     16  N   LIG    1        4.416   7.012  -0.498  0.00  0.00    -0.380 N 
ATOM     17  C   LIG    1        4.044   7.615   0.788  0.00  0.00    +0.320 C 
ATOM     18  H   LIG    1        3.766   7.311  -1.210  0.00  0.00    +0.430 HD
BRANCH  16  19
ATOM     19  C   LIG    1        5.773   7.438  -0.865  0.00  0.00    +0.300 C 
BRANCH  19  21
ATOM     20  C   LIG    1        6.625   9.688  -0.446  0.00  0.00    +0.130 C 
ATOM     21  C   LIG    1        5.786   8.926  -1.103  0.00  0.00    -0.110 C 
ENDBRANCH  19  21
ENDBRANCH  16  19
ENDBRANCH  15  16
ENDBRANCH  14  15
ENDBRANCH   1  14
TORSDOF 7
