REMARK  Name = ZINCkj000005eDga.0
REMARK                            x       y       z     vdW  Elec       q    Type
REMARK                         _______ _______ _______ _____ _____    ______ ____
ROOT
ATOM      1  N   LIG    1       -4.043  -3.832  -2.417  0.00  0.00    -0.460 N 
ENDROOT
BRANCH   1   2
ATOM      2  C   LIG    1       -4.319  -4.525  -3.579  0.00  0.00    +0.430 A 
ATOM      3  C   LIG    1       -5.557  -5.173  -3.756  0.00  0.00    -0.290 A 
ATOM      4  C   LIG    1       -6.727  -5.309  -2.978  0.00  0.00    +0.300 A 
ATOM      5  N   LIG    1       -7.587  -6.022  -3.647  0.00  0.00    -0.230 NA
ATOM      6  N   LIG    1       -7.040  -6.383  -4.884  0.00  0.00    -0.370 N 
ATOM      7  C   LIG    1       -7.704  -7.185  -5.915  0.00  0.00    +0.380 C 
ATOM      8  C   LIG    1       -5.784  -5.859  -4.965  0.00  0.00    +0.360 A 
ATOM      9  N   LIG    1       -4.820  -5.878  -5.884  0.00  0.00    -0.540 NA
ATOM     10  C   LIG    1       -3.678  -5.262  -5.671  0.00  0.00    +0.580 A 
ATOM     11  N   LIG    1       -3.422  -4.601  -4.556  0.00  0.00    -0.600 NA
ENDBRANCH   1   2
BRANCH   1  12
ATOM     12  C   LIG    1       -4.207  -4.694  -1.239  0.00  0.00    +0.210 C 
ATOM     13  C   LIG    1       -4.382  -3.826   0.009  0.00  0.00    +0.060 C 
ENDBRANCH   1  12
BRANCH   1  14
ATOM     14  C   LIG    1       -2.695  -3.250  -2.459  0.00  0.00    +0.220 C 
BRANCH  14  15
ATOM     15  C   LIG    1       -2.702  -2.013  -3.360  0.00  0.00    +0.260 C 
BRANCH  15  16
ATOM     16  N   LIG    1       -1.383  -1.368  -3.316  0.00  0.00    -0.380 N 
ATOM     17  C   LIG    1       -1.131  -0.860  -1.961  0.00  0.00    +0.320 C 
ATOM     18  H   LIG    1       -0.671  -2.041  -3.561  0.00  0.00    +0.430 HD
BRANCH  16  19
ATOM     19  C   LIG    1       -1.351  -0.253  -4.271  0.00  0.00    +0.290 C 
BRANCH  19  21
ATOM     20  C   LIG    1        0.669   0.430  -5.459  0.00  0.00    +0.130 C 
ATOM     21  C   LIG    1        0.037   0.331  -4.316  0.00  0.00    -0.110 C 
ENDBRANCH  19  21
ENDBRANCH  16  19
ENDBRANCH  15  16
ENDBRANCH  14  15
ENDBRANCH   1  14
TORSDOF 7
