REMARK  Name = ZINCqH0000007GyG.0
REMARK                            x       y       z     vdW  Elec       q    Type
REMARK                         _______ _______ _______ _____ _____    ______ ____
ROOT
ATOM      1  N   LIG    1       -5.796   3.526   1.111  0.00  0.00    -0.490 N 
ATOM      2  C   LIG    1       -5.891   2.674  -0.082  0.00  0.00    +0.200 C 
ATOM      3  C   LIG    1       -4.852   1.554   0.010  0.00  0.00    +0.200 C 
ATOM      4  N   LIG    1       -3.511   2.142   0.128  0.00  0.00    -0.520 NA
ATOM      5  C   LIG    1       -3.415   2.995   1.321  0.00  0.00    +0.190 C 
ATOM      6  C   LIG    1       -4.455   4.115   1.228  0.00  0.00    +0.210 C 
ENDROOT
BRANCH   1  11
ATOM      7  C   LIG    1       -7.835   6.416   2.121  0.00  0.00    +0.150 A 
ATOM      8  C   LIG    1       -8.730   6.486   1.062  0.00  0.00    -0.100 A 
ATOM      9  C   LIG    1       -8.648   5.575   0.025  0.00  0.00    +0.080 A 
ATOM     10  C   LIG    1       -7.676   4.594   0.038  0.00  0.00    -0.080 A 
ATOM     11  C   LIG    1       -6.778   4.519   1.097  0.00  0.00    +0.150 A 
ATOM     12  C   LIG    1       -6.863   5.428   2.142  0.00  0.00    -0.040 A 
BRANCH   7  14
ATOM     13  C   LIG    1       -8.948   8.298   3.055  0.00  0.00    +0.250 C 
ATOM     14  O   LIG    1       -7.917   7.311   3.139  0.00  0.00    -0.320 OA
ENDBRANCH   7  14
ENDBRANCH   1  11
BRANCH   4  15
ATOM     15  C   LIG    1       -2.477   1.098   0.143  0.00  0.00    +0.220 C 
BRANCH  15  16
ATOM     16  C   LIG    1       -1.118   1.735   0.017  0.00  0.00    +0.520 C 
ATOM     17  N   LIG    1       -0.011   0.966   0.007  0.00  0.00    -0.670 N 
ATOM     18  H   LIG    1       -0.092  -0.001   0.017  0.00  0.00    +0.420 HD
ATOM     19  O   LIG    1       -1.019   2.941  -0.077  0.00  0.00    -0.490 OA
BRANCH  17  20
ATOM     20  C   LIG    1        1.255   1.561  -0.021  0.00  0.00    +0.170 A 
ATOM     21  C   LIG    1        1.452   2.743  -0.723  0.00  0.00    +0.060 A 
ATOM     22  C   LIG    1        2.703   3.332  -0.745  0.00  0.00    -0.010 A 
ATOM     23  C   LIG    1        3.760   2.739  -0.078  0.00  0.00    +0.040 A 
ATOM     24  C   LIG    1        3.568   1.558   0.617  0.00  0.00    +0.070 A 
ATOM     25 CL   LIG    1        2.949   4.813  -1.615  0.00  0.00    -0.050 Cl
ATOM     26  C   LIG    1        2.319   0.968   0.647  0.00  0.00    -0.060 A 
ATOM     27 CL   LIG    1        2.080  -0.514   1.520  0.00  0.00    -0.050 Cl
ENDBRANCH  17  20
ENDBRANCH  15  16
ENDBRANCH   4  15
TORSDOF 5
