REMARK  Name = ZINC5a0000002Dw5.0
REMARK                            x       y       z     vdW  Elec       q    Type
REMARK                         _______ _______ _______ _____ _____    ______ ____
ROOT
ATOM      1  C   LIG    1       -0.018   1.468   0.010  0.00  0.00    +0.410 C 
ENDROOT
BRANCH   1   3
ATOM      2  N   LIG    1        0.018  -1.140  -0.004  0.00  0.00    -0.400 NA
ATOM      3  C   LIG    1        0.002  -0.004   0.002  0.00  0.00    +0.200 C 
ENDBRANCH   1   3
BRANCH   1   4
ATOM      4  C   LIG    1       -0.707   1.942   1.221  0.00  0.00    +0.200 C 
ATOM      5  N   LIG    1       -1.239   2.309   2.156  0.00  0.00    -0.400 NA
ENDBRANCH   1   4
TORSDOF 2
