REMARK  Name = ZINCkj00000Aj2Nl.1
REMARK                            x       y       z     vdW  Elec       q    Type
REMARK                         _______ _______ _______ _____ _____    ______ ____
ROOT
ATOM      1  C   LIG    1        2.691   8.343   0.795  0.00  0.00    +0.180 C 
ATOM      2  C   LIG    1        3.832   7.495   0.189  0.00  0.00    +0.060 C 
ATOM      3  C   LIG    1        3.583   6.063   0.696  0.00  0.00    +0.220 C 
ATOM      4  N   LIG    1        2.386   6.112   1.563  0.00  0.00    -0.480 NA
ATOM      5  C   LIG    1        1.601   7.286   1.103  0.00  0.00    +0.180 C 
ENDROOT
BRANCH   3   6
ATOM      6  C   LIG    1        4.772   5.585   1.488  0.00  0.00    +0.190 A 
ATOM      7  N   LIG    1        4.917   5.690   2.781  0.00  0.00    -0.450 NA
ATOM      8  C   LIG    1        6.095   5.158   3.139  0.00  0.00    +0.140 A 
ATOM      9  C   LIG    1        6.704   4.706   2.026  0.00  0.00    +0.140 A 
ATOM     10  N   LIG    1        5.862   4.971   0.979  0.00  0.00    -0.570 N 
ATOM     11  H   LIG    1        6.021   4.760   0.046  0.00  0.00    +0.420 HD
ENDBRANCH   3   6
BRANCH   1  13
ATOM     12  C   LIG    1        1.603  10.450   0.445  0.00  0.00    +0.220 C 
ATOM     13  O   LIG    1        2.211   9.302  -0.150  0.00  0.00    -0.380 OA
ENDBRANCH   1  13
BRANCH   4  14
ATOM     14  C   LIG    1        1.602   4.876   1.449  0.00  0.00    +0.180 C 
BRANCH  14  15
ATOM     15  C   LIG    1        2.475   3.680   1.833  0.00  0.00    +0.340 C 
BRANCH  15  16
ATOM     16  N   LIG    1        1.661   2.462   1.840  0.00  0.00    -0.400 N 
ATOM     17  C   LIG    1        1.048   1.901   2.928  0.00  0.00    +0.260 C 
ATOM     18  C   LIG    1        0.408   0.800   2.490  0.00  0.00    +0.230 C 
ATOM     19  N   LIG    1        0.629   0.689   1.172  0.00  0.00    -0.480 N 
ATOM     20  H   LIG    1        0.286  -0.019   0.603  0.00  0.00    +0.460 HD
ATOM     21  C   LIG    1        1.374   1.684   0.774  0.00  0.00    +0.310 C 
ATOM     22  C   LIG    1        1.842   1.921  -0.638  0.00  0.00    +0.240 C 
ENDBRANCH  15  16
ENDBRANCH  14  15
ENDBRANCH   4  14
TORSDOF 5
