REMARK  Name = ZINCrD000000f9VQ.0
REMARK                            x       y       z     vdW  Elec       q    Type
REMARK                         _______ _______ _______ _____ _____    ______ ____
ROOT
ATOM      1  N   LIG    1       -0.807   1.958  -1.123  0.00  0.00    -0.720 N 
ATOM      2  H   LIG    1       -0.372   2.157  -1.967  0.00  0.00    +0.400 HD
ATOM      3  C   LIG    1       -2.137   2.132  -0.992  0.00  0.00    +0.540 C 
ATOM      4  O   LIG    1       -2.681   1.883   0.063  0.00  0.00    -0.500 OA
ENDROOT
BRANCH   1   5
ATOM      5  C   LIG    1       -0.018   1.468   0.010  0.00  0.00    +0.440 C 
BRANCH   5   6
ATOM      6  C   LIG    1        1.400   1.963  -0.114  0.00  0.00    -0.120 A 
ATOM      7  C   LIG    1        1.928   2.244  -1.359  0.00  0.00    +0.070 A 
ATOM      8  C   LIG    1        3.228   2.699  -1.474  0.00  0.00    +0.040 A 
ATOM      9  C   LIG    1        4.003   2.874  -0.341  0.00  0.00    -0.000 A 
ATOM     10  C   LIG    1        3.476   2.594   0.907  0.00  0.00    +0.010 A 
ATOM     11 CL   LIG    1        5.636   3.445  -0.486  0.00  0.00    -0.050 Cl
ATOM     12  C   LIG    1        2.172   2.143   1.022  0.00  0.00    +0.130 A 
ATOM     13  F   LIG    1        1.655   1.874   2.241  0.00  0.00    -0.120 F 
ENDBRANCH   5   6
BRANCH   5  15
ATOM     14  C   LIG    1       -0.030  -1.178   0.015  0.00  0.00    +0.070 C 
ATOM     15  C   LIG    1       -0.025  -0.004   0.013  0.00  0.00    -0.210 C 
ENDBRANCH   5  15
ENDBRANCH   1   5
BRANCH   3  16
ATOM     16  C   LIG    1       -2.949   2.636  -2.158  0.00  0.00    +0.090 C 
BRANCH  16  17
ATOM     17  S   LIG    1       -4.692   2.763  -1.671  0.00  0.00    -0.090 S 
BRANCH  17  18
ATOM     18  C   LIG    1       -5.493   3.375  -3.179  0.00  0.00    +0.000 C 
ATOM     19  C   LIG    1       -4.980   4.782  -3.494  0.00  0.00    +0.070 C 
BRANCH  18  20
ATOM     20  C   LIG    1       -6.985   3.420  -2.972  0.00  0.00    +0.550 C 
ATOM     21  N   LIG    1       -7.815   3.345  -4.031  0.00  0.00    -0.630 N 
ATOM     22  H   LIG    1       -7.452   3.262  -4.927  0.00  0.00    +0.420 HD
ATOM     23  O   LIG    1       -7.439   3.523  -1.852  0.00  0.00    -0.490 OA
BRANCH  21  24
ATOM     24  C   LIG    1       -9.196   3.386  -3.840  0.00  0.00    +0.240 A 
ATOM     25  N   LIG    1      -10.119   3.324  -4.764  0.00  0.00    -0.390 NA
ATOM     26  O   LIG    1      -11.228   3.384  -4.287  0.00  0.00    +0.100 OA
ATOM     27  C   LIG    1      -11.189   3.497  -2.951  0.00  0.00    -0.020 A 
ATOM     28  C   LIG    1      -12.370   3.597  -2.021  0.00  0.00    +0.190 C 
ATOM     29  C   LIG    1       -9.882   3.498  -2.601  0.00  0.00    -0.040 A 
ENDBRANCH  21  24
ENDBRANCH  18  20
ENDBRANCH  17  18
ENDBRANCH  16  17
ENDBRANCH   3  16
TORSDOF 8
