REMARK  Name = ZINCrg00000SjSnA.0
REMARK                            x       y       z     vdW  Elec       q    Type
REMARK                         _______ _______ _______ _____ _____    ______ ____
ROOT
ATOM      1  C   LIG    1        6.112   1.994  -0.685  0.00  0.00    +0.240 C 
ENDROOT
BRANCH   1   2
ATOM      2  C   LIG    1        4.838   1.189  -0.685  0.00  0.00    +0.400 C 
ATOM      3  O   LIG    1        4.864   0.012  -0.976  0.00  0.00    -0.420 OA
BRANCH   2   4
ATOM      4  C   LIG    1        3.565   1.831  -0.333  0.00  0.00    -0.160 A 
ATOM      5  C   LIG    1        3.532   3.189   0.003  0.00  0.00    +0.090 A 
ATOM      6  C   LIG    1        2.338   3.791   0.334  0.00  0.00    +0.030 A 
ATOM      7  C   LIG    1        1.163   3.052   0.334  0.00  0.00    +0.120 A 
ATOM      8  O   LIG    1       -0.019   3.637   0.658  0.00  0.00    -0.300 OA
ATOM      9  C   LIG    1       -1.184   3.143  -0.007  0.00  0.00    +0.310 C 
ATOM     10  C   LIG    1       -1.184   1.636   0.017  0.00  0.00    +0.490 C 
ATOM     11  N   LIG    1       -0.011   0.966   0.007  0.00  0.00    -0.660 N 
ATOM     12  H   LIG    1        0.002  -0.004   0.002  0.00  0.00    +0.420 HD
ATOM     13  O   LIG    1       -2.233   1.028   0.048  0.00  0.00    -0.500 OA
ATOM     14  C   LIG    1        1.188   1.695  -0.000  0.00  0.00    +0.080 A 
ATOM     15  C   LIG    1        2.379   1.084  -0.333  0.00  0.00    +0.090 A 
ENDBRANCH   2   4
ENDBRANCH   1   2
BRANCH   1  16
ATOM     16  O   LIG    1        7.224   1.140  -1.063  0.00  0.00    -0.320 OA
BRANCH  16  17
ATOM     17  C   LIG    1        8.444   1.710  -1.112  0.00  0.00    +0.550 C 
ATOM     18  O   LIG    1        8.575   2.888  -0.845  0.00  0.00    -0.490 OA
BRANCH  17  21
ATOM     19  N   LIG    1       10.470  -1.116  -2.111  0.00  0.00    -0.330 N 
ATOM     20  N   LIG    1        9.479  -0.373  -1.773  0.00  0.00    -0.140 NA
ATOM     21  C   LIG    1        9.622   0.902  -1.490  0.00  0.00    +0.020 A 
ATOM     22  C   LIG    1       10.903   1.503  -1.540  0.00  0.00    +0.140 A 
ATOM     23  C   LIG    1       11.967   0.727  -1.892  0.00  0.00    +0.000 A 
ATOM     24  C   LIG    1       11.724  -0.634  -2.186  0.00  0.00    +0.480 A 
ATOM     25  O   LIG    1       12.645  -1.367  -2.506  0.00  0.00    -0.510 OA
BRANCH  19  26
ATOM     26  C   LIG    1       10.230  -2.528  -2.418  0.00  0.00    +0.320 C 
BRANCH  26  28
ATOM     27  C   LIG    1       10.108  -4.832  -1.459  0.00  0.00    +0.030 C 
ATOM     28  C   LIG    1       10.359  -3.357  -1.139  0.00  0.00    +0.000 C 
ENDBRANCH  26  28
ENDBRANCH  19  26
ENDBRANCH  17  21
ENDBRANCH  16  17
ENDBRANCH   1  16
TORSDOF 7
