REMARK  Name = ZINCpk00000eaAFZ.0
REMARK                            x       y       z     vdW  Elec       q    Type
REMARK                         _______ _______ _______ _____ _____    ______ ____
ROOT
ATOM      1  C   LIG    1       -2.905  -2.239  -0.732  0.00  0.00    +0.050 C 
ATOM      2  C   LIG    1       -3.100  -1.875   0.758  0.00  0.00    +0.100 C 
ATOM      3  C   LIG    1       -1.843  -1.117   1.123  0.00  0.00    +0.530 C 
ATOM      4  N   LIG    1       -1.201  -0.722   0.009  0.00  0.00    -0.580 N 
ATOM      5  O   LIG    1       -1.468  -0.896   2.255  0.00  0.00    -0.500 OA
ATOM      6  C   LIG    1       -1.926  -1.135  -1.198  0.00  0.00    +0.320 C 
ENDROOT
BRANCH   4   7
ATOM      7  C   LIG    1        0.002  -0.004   0.002  0.00  0.00    +0.100 A 
ATOM      8  C   LIG    1        1.214  -0.679  -0.013  0.00  0.00    +0.100 A 
ATOM      9  C   LIG    1        2.400   0.031  -0.021  0.00  0.00    -0.010 A 
ATOM     10  C   LIG    1        2.380   1.415  -0.013  0.00  0.00    +0.140 A 
ATOM     11  C   LIG    1        1.172   2.092   0.002  0.00  0.00    -0.030 A 
ATOM     12  F   LIG    1        3.541   2.106  -0.020  0.00  0.00    -0.120 F 
ATOM     13  C   LIG    1       -0.017   1.387   0.010  0.00  0.00    +0.140 A 
ATOM     14  F   LIG    1       -1.195   2.047   0.019  0.00  0.00    -0.120 F 
ENDBRANCH   4   7
BRANCH   1  15
ATOM     15  C   LIG    1       -4.208  -2.152  -1.484  0.00  0.00    +0.480 C 
ATOM     16  O   LIG    1       -4.327  -1.371  -2.398  0.00  0.00    -0.490 OA
BRANCH  15  17
ATOM     17  O   LIG    1       -5.237  -2.941  -1.137  0.00  0.00    -0.320 OA
BRANCH  17  18
ATOM     18  C   LIG    1       -6.462  -2.803  -1.904  0.00  0.00    +0.200 C 
BRANCH  18  19
ATOM     19  C   LIG    1       -7.342  -1.762  -1.263  0.00  0.00    +0.510 C 
ATOM     20  O   LIG    1       -6.973  -1.192  -0.258  0.00  0.00    -0.520 OA
ATOM     21  N   LIG    1       -8.539  -1.464  -1.806  0.00  0.00    -0.850 N 
ATOM     22  H   LIG    1       -9.105  -0.793  -1.394  0.00  0.00    +0.410 HD
ATOM     23  H   LIG    1       -8.833  -1.919  -2.610  0.00  0.00    +0.400 HD
ENDBRANCH  18  19
BRANCH  18  24
ATOM     24  C   LIG    1       -7.198  -4.144  -1.935  0.00  0.00    +0.100 C 
BRANCH  24  25
ATOM     25  C   LIG    1       -6.356  -5.170  -2.697  0.00  0.00    +0.090 C 
BRANCH  25  27
ATOM     26  C   LIG    1       -6.093  -7.827  -3.662  0.00  0.00    +0.140 C 
ATOM     27  S   LIG    1       -7.229  -6.760  -2.734  0.00  0.00    -0.250 S 
ENDBRANCH  25  27
ENDBRANCH  24  25
ENDBRANCH  18  24
ENDBRANCH  17  18
ENDBRANCH  15  17
ENDBRANCH   1  15
TORSDOF 8
