REMARK  Name = ZINCrD0000074rP0.0
REMARK                            x       y       z     vdW  Elec       q    Type
REMARK                         _______ _______ _______ _____ _____    ______ ____
ROOT
ATOM      1  C   LIG    1       -0.803   3.306   1.366  0.00  0.00    +0.530 C 
ATOM      2  O   LIG    1       -0.339   4.057   0.531  0.00  0.00    -0.490 OA
ENDROOT
BRANCH   1   9
ATOM      3  C   LIG    1       -4.413   4.617   7.735  0.00  0.00    +0.090 C 
ATOM      4  C   LIG    1       -3.682   4.840   6.436  0.00  0.00    -0.040 A 
ATOM      5  C   LIG    1       -3.446   6.135   5.993  0.00  0.00    -0.020 A 
ATOM      6  C   LIG    1       -2.786   6.358   4.820  0.00  0.00    -0.020 A 
ATOM      7  C   LIG    1       -2.341   5.274   4.053  0.00  0.00    -0.130 A 
ATOM      8  C   LIG    1       -1.641   5.173   2.827  0.00  0.00    +0.080 A 
ATOM      9  C   LIG    1       -1.478   3.852   2.551  0.00  0.00    +0.020 A 
ATOM     10  N   LIG    1       -2.043   3.104   3.567  0.00  0.00    -0.570 N 
ATOM     11  H   LIG    1       -2.059   2.135   3.613  0.00  0.00    +0.430 HD
ATOM     12  C   LIG    1       -2.579   3.959   4.500  0.00  0.00    +0.130 A 
ATOM     13  C   LIG    1       -2.536   7.769   4.351  0.00  0.00    +0.100 C 
ATOM     14  C   LIG    1       -3.255   3.757   5.700  0.00  0.00    -0.030 A 
ENDBRANCH   1   9
BRANCH   1  15
ATOM     15  O   LIG    1       -0.698   1.971   1.205  0.00  0.00    -0.350 OA
BRANCH  15  16
ATOM     16  C   LIG    1       -0.018   1.503   0.010  0.00  0.00    +0.290 C 
BRANCH  16  17
ATOM     17  C   LIG    1        0.002  -0.004   0.002  0.00  0.00    -0.120 A 
ATOM     18  C   LIG    1        1.056  -0.684   0.582  0.00  0.00    +0.100 A 
ATOM     19  C   LIG    1        1.073  -2.067   0.578  0.00  0.00    +0.000 A 
ATOM     20  C   LIG    1        0.040  -2.768  -0.013  0.00  0.00    +0.130 A 
ATOM     21  C   LIG    1       -1.012  -2.088  -0.598  0.00  0.00    -0.680 A 
ATOM     22  C   LIG    1       -1.031  -0.706  -0.591  0.00  0.00    +0.150 A 
BRANCH  21  23
ATOM     23  S   LIG    1       -2.330  -2.983  -1.352  0.00  0.00    +2.690 S 
ATOM     24  O   LIG    1       -3.456  -2.116  -1.351  0.00  0.00    -0.950 OA
ATOM     25  O   LIG    1       -2.338  -4.269  -0.749  0.00  0.00    -0.950 OA
BRANCH  23  26
ATOM     26  N   LIG    1       -1.919  -3.214  -2.940  0.00  0.00    -1.000 NA
ATOM     27  C   LIG    1       -2.305  -2.223  -3.948  0.00  0.00    +0.310 C 
ATOM     28  C   LIG    1       -1.170  -4.409  -3.337  0.00  0.00    +0.300 C 
ENDBRANCH  23  26
ENDBRANCH  21  23
ENDBRANCH  16  17
ENDBRANCH  15  16
ENDBRANCH   1  15
TORSDOF 6
