REMARK  Name = ZINCrH000004jYJV.1
REMARK                            x       y       z     vdW  Elec       q    Type
REMARK                         _______ _______ _______ _____ _____    ______ ____
ROOT
ATOM      1  C   LIG    1       -0.654  -2.386   2.813  0.00  0.00    -0.060 A 
ATOM      2  C   LIG    1        0.350  -2.758   3.689  0.00  0.00    +0.000 A 
ATOM      3  C   LIG    1        0.036  -3.152   4.977  0.00  0.00    +0.030 A 
ATOM      4  C   LIG    1       -1.281  -3.185   5.389  0.00  0.00    +0.020 A 
ATOM      5  C   LIG    1       -2.292  -2.817   4.511  0.00  0.00    +0.140 A 
ATOM      6  C   LIG    1       -1.974  -2.417   3.220  0.00  0.00    +0.010 A 
ENDROOT
BRANCH   5   7
ATOM      7  N   LIG    1       -3.627  -2.849   4.926  0.00  0.00    -0.670 N 
ATOM      8  H   LIG    1       -4.252  -2.183   4.600  0.00  0.00    +0.410 HD
ATOM      9  C   LIG    1       -4.045  -3.806   5.778  0.00  0.00    +0.600 C 
ATOM     10  O   LIG    1       -3.244  -4.590   6.253  0.00  0.00    -0.510 OA
BRANCH   9  11
ATOM     11  C   LIG    1       -5.463  -3.901   6.134  0.00  0.00    -0.280 A 
ATOM     12  C   LIG    1       -6.005  -4.820   6.981  0.00  0.00    +0.120 A 
ATOM     13  C   LIG    1       -7.370  -4.695   7.149  0.00  0.00    -0.130 A 
ATOM     14  C   LIG    1       -7.920  -3.680   6.440  0.00  0.00    -0.180 A 
ATOM     15  C   LIG    1       -9.400  -3.348   6.462  0.00  0.00    +0.130 C 
ATOM     16  C   LIG    1      -10.148  -4.546   7.059  0.00  0.00    +0.190 C 
ATOM     17  N   LIG    1       -9.490  -4.949   8.310  0.00  0.00    -0.690 NA
ATOM     18  H   LIG    1      -10.092  -5.545   8.859  0.00  0.00    +0.350 HD
ATOM     19  C   LIG    1       -8.201  -5.603   8.046  0.00  0.00    +0.260 C 
ATOM     20  S   LIG    1       -6.735  -2.844   5.542  0.00  0.00    +0.210 S 
ENDBRANCH   9  11
ENDBRANCH   5   7
BRANCH   1  21
ATOM     21  C   LIG    1       -0.308  -1.952   1.412  0.00  0.00    +0.240 C 
BRANCH  21  23
ATOM     22  C   LIG    1        1.093  -0.129   2.172  0.00  0.00    +0.200 C 
ATOM     23  N   LIG    1       -0.093  -0.499   1.388  0.00  0.00    -0.530 NA
BRANCH  23  24
ATOM     24  C   LIG    1        0.012  -0.005   0.009  0.00  0.00    +0.270 C 
BRANCH  24  25
ATOM     25  C   LIG    1       -0.015   1.502   0.011  0.00  0.00    +0.080 A 
ATOM     26  C   LIG    1        1.095   2.245   0.007  0.00  0.00    -0.070 A 
ATOM     27  S   LIG    1        0.613   3.940   0.013  0.00  0.00    +0.120 S 
ATOM     28  C   LIG    1       -1.034   3.480   0.020  0.00  0.00    +0.220 A 
ATOM     29  N   LIG    1       -1.137   2.194   0.013  0.00  0.00    -0.450 NA
ENDBRANCH  24  25
ENDBRANCH  23  24
ENDBRANCH  21  23
ENDBRANCH   1  21
TORSDOF 6
