REMARK  Name = ZINCrD0000071f0b.0
REMARK                            x       y       z     vdW  Elec       q    Type
REMARK                         _______ _______ _______ _____ _____    ______ ____
ROOT
ATOM      1  C   LIG    1       -1.788   4.127   0.039  0.00  0.00    +0.370 C 
ENDROOT
BRANCH   1   6
ATOM      2  C   LIG    1        1.140   1.842   0.004  0.00  0.00    +0.130 C 
ATOM      3  N   LIG    1       -0.032   0.949  -0.000  0.00  0.00    -0.710 N 
ATOM      4  H   LIG    1       -0.022  -0.021  -0.010  0.00  0.00    +0.440 HD
ATOM      5  C   LIG    1       -1.119   1.741   0.007  0.00  0.00    +0.710 C 
ATOM      6  N   LIG    1       -0.804   3.042   0.024  0.00  0.00    -0.560 N 
ATOM      7  O   LIG    1       -2.260   1.323   0.003  0.00  0.00    -0.540 OA
ATOM      8  C   LIG    1        1.977   1.636  -1.260  0.00  0.00    +0.090 C 
ATOM      9  C   LIG    1        0.530   3.230   0.020  0.00  0.00    +0.540 C 
ATOM     10  O   LIG    1        1.120   4.289   0.027  0.00  0.00    -0.460 OA
BRANCH   2  11
ATOM     11  C   LIG    1        1.988   1.612   1.256  0.00  0.00    +0.050 C 
BRANCH  11  12
ATOM     12  C   LIG    1        2.500   0.170   1.267  0.00  0.00    +0.030 C 
BRANCH  12  14
ATOM     13  C   LIG    1        2.466   0.066   3.763  0.00  0.00    +0.020 C 
ATOM     14  C   LIG    1        3.348  -0.060   2.520  0.00  0.00    -0.030 C 
ATOM     15  C   LIG    1        3.963  -1.460   2.469  0.00  0.00    +0.020 C 
ENDBRANCH  12  14
ENDBRANCH  11  12
ENDBRANCH   2  11
ENDBRANCH   1   6
BRANCH   1  16
ATOM     16  C   LIG    1       -2.132   4.513  -1.376  0.00  0.00    +0.510 C 
ATOM     17  N   LIG    1       -3.023   5.498  -1.609  0.00  0.00    -0.670 N 
ATOM     18  H   LIG    1       -3.492   5.912  -0.867  0.00  0.00    +0.420 HD
ATOM     19  O   LIG    1       -1.607   3.939  -2.307  0.00  0.00    -0.500 OA
BRANCH  17  20
ATOM     20  C   LIG    1       -3.272   5.921  -2.919  0.00  0.00    +0.200 A 
ATOM     21  C   LIG    1       -3.243   5.007  -3.963  0.00  0.00    +0.030 A 
ATOM     22  C   LIG    1       -3.495   5.427  -5.255  0.00  0.00    +0.070 A 
ATOM     23  C   LIG    1       -3.765   6.759  -5.509  0.00  0.00    +0.010 A 
ATOM     24  C   LIG    1       -3.789   7.673  -4.472  0.00  0.00    +0.090 A 
ATOM     25  C   LIG    1       -3.544   7.258  -3.178  0.00  0.00    -0.210 A 
BRANCH  25  26
ATOM     26  C   LIG    1       -3.571   8.255  -2.048  0.00  0.00    +0.510 C 
ATOM     27  F   LIG    1       -2.322   8.281  -1.418  0.00  0.00    -0.170 F 
ATOM     28  F   LIG    1       -4.553   7.885  -1.123  0.00  0.00    -0.180 F 
ATOM     29  F   LIG    1       -3.864   9.526  -2.555  0.00  0.00    -0.170 F 
ENDBRANCH  25  26
ENDBRANCH  17  20
ENDBRANCH   1  16
TORSDOF 7
