REMARK  Name = ZINCqH0000034mGD.0
REMARK                            x       y       z     vdW  Elec       q    Type
REMARK                         _______ _______ _______ _____ _____    ______ ____
ROOT
ATOM      1  C   LIG    1       -2.559   3.863   0.049  0.00  0.00    +0.320 C 
ENDROOT
BRANCH   1   2
ATOM      2  C   LIG    1       -1.242   3.132   0.031  0.00  0.00    -0.080 A 
ATOM      3  C   LIG    1       -1.219   1.750   0.017  0.00  0.00    +0.030 A 
ATOM      4  C   LIG    1       -0.013   1.076   0.008  0.00  0.00    +0.030 A 
ATOM      5  C   LIG    1        1.179   1.785   0.000  0.00  0.00    +0.050 A 
ATOM      6  O   LIG    1        2.360   1.107  -0.010  0.00  0.00    -0.310 OA
ATOM      7  C   LIG    1        3.523   1.848  -0.392  0.00  0.00    +0.220 C 
ATOM      8  C   LIG    1        3.508   3.187   0.357  0.00  0.00    +0.220 C 
ATOM      9  O   LIG    1        2.315   3.890  -0.005  0.00  0.00    -0.310 OA
ATOM     10  C   LIG    1        1.157   3.175   0.006  0.00  0.00    +0.050 A 
ATOM     11  C   LIG    1       -0.057   3.845   0.022  0.00  0.00    +0.040 A 
ENDBRANCH   1   2
BRANCH   1  13
ATOM     12  C   LIG    1       -4.534   3.863  -1.378  0.00  0.00    +0.600 C 
ATOM     13  N   LIG    1       -3.509   3.179  -0.833  0.00  0.00    -0.720 N 
ATOM     14  H   LIG    1       -3.399   2.235  -1.025  0.00  0.00    +0.400 HD
ATOM     15  O   LIG    1       -4.672   5.047  -1.138  0.00  0.00    -0.540 OA
BRANCH  12  19
ATOM     16  N   LIG    1       -7.185   2.765  -3.607  0.00  0.00    -0.440 N 
ATOM     17  C   LIG    1       -6.524   1.579  -3.469  0.00  0.00    +0.020 A 
ATOM     18  C   LIG    1       -5.469   1.762  -2.655  0.00  0.00    -0.030 A 
ATOM     19  C   LIG    1       -5.489   3.176  -2.265  0.00  0.00    -0.240 A 
ATOM     20  C   LIG    1       -6.913   0.278  -4.121  0.00  0.00    +0.120 C 
ATOM     21  C   LIG    1       -6.576   3.726  -2.886  0.00  0.00    +0.110 A 
ATOM     22  C   LIG    1       -7.017   5.163  -2.783  0.00  0.00    +0.140 C 
BRANCH  16  24
ATOM     23  C   LIG    1       -9.629   2.707  -3.563  0.00  0.00    +0.030 C 
ATOM     24  C   LIG    1       -8.387   2.963  -4.420  0.00  0.00    +0.270 C 
ENDBRANCH  16  24
ENDBRANCH  12  19
ENDBRANCH   1  13
BRANCH   1  25
ATOM     25  C   LIG    1       -3.112   3.883   1.475  0.00  0.00    -0.060 C 
ATOM     26  C   LIG    1       -4.367   3.055   1.758  0.00  0.00    +0.010 C 
ATOM     27  C   LIG    1       -4.454   4.583   1.703  0.00  0.00    +0.030 C 
ENDBRANCH   1  25
TORSDOF 5
