REMARK  Name = ZINCrD000000CEyJ.0
REMARK                            x       y       z     vdW  Elec       q    Type
REMARK                         _______ _______ _______ _____ _____    ______ ____
ROOT
ATOM      1  C   LIG    1        2.623   7.429   1.010  0.00  0.00    -0.120 A 
ATOM      2  C   LIG    1        2.195   7.736  -0.282  0.00  0.00    +0.050 A 
ATOM      3  C   LIG    1        2.397   9.002  -0.794  0.00  0.00    +0.030 A 
ATOM      4  C   LIG    1        3.024   9.969  -0.030  0.00  0.00    +0.040 A 
ATOM      5  C   LIG    1        3.453   9.673   1.258  0.00  0.00    +0.070 A 
ATOM      6  C   LIG    1        3.250   8.408   1.782  0.00  0.00    +0.070 A 
ENDROOT
BRANCH   1   8
ATOM      7  O   LIG    1        3.203   5.606   2.351  0.00  0.00    -0.520 OA
ATOM      8  C   LIG    1        2.407   6.075   1.562  0.00  0.00    +0.560 C 
ATOM      9  N   LIG    1        1.327   5.359   1.189  0.00  0.00    -0.610 N 
ATOM     10  C   LIG    1        0.284   5.951   0.336  0.00  0.00    +0.250 C 
ATOM     11  C   LIG    1       -1.078   5.702   0.994  0.00  0.00    +0.220 C 
ATOM     12  O   LIG    1       -1.211   4.309   1.286  0.00  0.00    -0.360 OA
ATOM     13  C   LIG    1       -0.248   3.811   2.218  0.00  0.00    +0.150 C 
ATOM     14  C   LIG    1        1.156   3.964   1.622  0.00  0.00    +0.280 C 
BRANCH  13  15
ATOM     15  C   LIG    1       -0.526   2.333   2.500  0.00  0.00    +0.220 C 
BRANCH  15  16
ATOM     16  O   LIG    1       -1.786   2.203   3.161  0.00  0.00    -0.570 OA
ATOM     17  H   LIG    1       -2.027   1.290   3.371  0.00  0.00    +0.380 HD
ENDBRANCH  15  16
ENDBRANCH  13  15
ENDBRANCH   1   8
BRANCH   5  18
ATOM     18  O   LIG    1        4.068  10.627   2.004  0.00  0.00    -0.250 OA
BRANCH  18  19
ATOM     19  C   LIG    1        5.421  10.727   1.925  0.00  0.00    +0.120 A 
ATOM     20  C   LIG    1        6.132   9.878   1.088  0.00  0.00    -0.020 A 
ATOM     21  C   LIG    1        7.507   9.981   1.009  0.00  0.00    +0.060 A 
ATOM     22  C   LIG    1        8.175  10.929   1.761  0.00  0.00    +0.040 A 
ATOM     23  C   LIG    1        7.469  11.777   2.595  0.00  0.00    -0.150 A 
ATOM     24  C   LIG    1        6.093  11.681   2.675  0.00  0.00    +0.060 A 
BRANCH  23  25
ATOM     25  C   LIG    1        8.200  12.810   3.412  0.00  0.00    +0.510 C 
ATOM     26  F   LIG    1        7.960  12.585   4.772  0.00  0.00    -0.170 F 
ATOM     27  F   LIG    1        7.747  14.087   3.064  0.00  0.00    -0.170 F 
ATOM     28  F   LIG    1        9.573  12.718   3.160  0.00  0.00    -0.170 F 
ENDBRANCH  23  25
ENDBRANCH  18  19
ENDBRANCH   5  18
TORSDOF 6
