REMARK  Name = ZINCqH0000000tpE.0
REMARK                            x       y       z     vdW  Elec       q    Type
REMARK                         _______ _______ _______ _____ _____    ______ ____
ROOT
ATOM      1  N   LIG    1        2.443  -0.143   0.087  0.00  0.00    -0.660 N 
ATOM      2  H   LIG    1        2.266  -1.095   0.148  0.00  0.00    +0.410 HD
ATOM      3  C   LIG    1        3.712   0.302  -0.009  0.00  0.00    +0.530 C 
ATOM      4  O   LIG    1        3.929   1.483  -0.183  0.00  0.00    -0.500 OA
ENDROOT
BRANCH   1   8
ATOM      5  C   LIG    1       -0.721   2.573   0.117  0.00  0.00    +0.130 A 
ATOM      6  C   LIG    1        0.484   2.903   0.725  0.00  0.00    +0.010 A 
ATOM      7  C   LIG    1        1.533   2.006   0.710  0.00  0.00    +0.040 A 
ATOM      8  C   LIG    1        1.380   0.769   0.097  0.00  0.00    +0.130 A 
ATOM      9  C   LIG    1        0.174   0.437  -0.505  0.00  0.00    +0.010 A 
ATOM     10  C   LIG    1       -0.873   1.336  -0.495  0.00  0.00    +0.040 A 
BRANCH   5  13
ATOM     11  C   LIG    1       -4.201   4.010   0.113  0.00  0.00    +0.110 C 
ATOM     12  C   LIG    1       -3.053   3.041   0.223  0.00  0.00    +0.510 C 
ATOM     13  N   LIG    1       -1.784   3.485   0.128  0.00  0.00    -0.680 N 
ATOM     14  H   LIG    1       -1.607   4.437   0.066  0.00  0.00    +0.410 HD
ATOM     15  O   LIG    1       -3.270   1.860   0.397  0.00  0.00    -0.530 OA
ENDBRANCH   5  13
ENDBRANCH   1   8
BRANCH   3  16
ATOM     16  C   LIG    1        4.861  -0.667   0.100  0.00  0.00    +0.020 C 
ATOM     17  C   LIG    1        5.132  -1.293  -1.269  0.00  0.00    +0.090 C 
BRANCH  16  18
ATOM     18  S   LIG    1        6.339   0.210   0.666  0.00  0.00    +0.060 S 
BRANCH  18  19
ATOM     19  C   LIG    1        7.449  -1.146   0.847  0.00  0.00    +0.190 A 
ATOM     20  N   LIG    1        7.061  -2.386   0.577  0.00  0.00    -0.540 NA
ATOM     21  C   LIG    1        7.886  -3.413   0.708  0.00  0.00    +0.510 A 
ATOM     22  N   LIG    1        9.128  -3.284   1.109  0.00  0.00    -0.510 NA
ATOM     23  C   LIG    1        9.624  -2.074   1.410  0.00  0.00    +0.170 A 
ATOM     24  C   LIG    1       10.946  -1.900   1.841  0.00  0.00    +0.040 A 
ATOM     25  C   LIG    1       11.400  -0.648   2.134  0.00  0.00    +0.070 A 
ATOM     26  C   LIG    1       10.570   0.462   2.011  0.00  0.00    +0.030 A 
ATOM     27  C   LIG    1        9.277   0.328   1.594  0.00  0.00    +0.060 A 
ATOM     28  C   LIG    1        8.783  -0.942   1.280  0.00  0.00    -0.140 A 
ENDBRANCH  18  19
ENDBRANCH  16  18
ENDBRANCH   3  16
TORSDOF 5
