REMARK  Name = ZINCvU0000000Huy.0
REMARK                            x       y       z     vdW  Elec       q    Type
REMARK                         _______ _______ _______ _____ _____    ______ ____
ROOT
ATOM      1  N   LIG    1        0.991   3.551   0.012  0.00  0.00    -0.730 N 
ATOM      2  H   LIG    1        0.153   3.876   0.377  0.00  0.00    +0.410 HD
ENDROOT
BRANCH   1   3
ATOM      3  C   LIG    1        1.925   4.454  -0.504  0.00  0.00    +0.230 A 
ATOM      4  C   LIG    1        3.128   3.991  -1.021  0.00  0.00    -0.080 A 
ATOM      5  C   LIG    1        4.046   4.886  -1.534  0.00  0.00    +0.070 A 
ATOM      6  C   LIG    1        3.773   6.242  -1.524  0.00  0.00    -0.150 A 
ATOM      7  C   LIG    1        2.579   6.706  -1.004  0.00  0.00    +0.060 A 
ATOM      8  C   LIG    1        1.654   5.816  -0.494  0.00  0.00    -0.070 A 
BRANCH   6   9
ATOM      9  C   LIG    1        4.780   7.216  -2.080  0.00  0.00    +0.200 C 
BRANCH   9  10
ATOM     10  C   LIG    1        5.717   7.651  -0.982  0.00  0.00    +0.110 A 
ATOM     11  N   LIG    1        6.809   7.053  -0.688  0.00  0.00    -0.470 NA
ATOM     12  C   LIG    1        7.551   7.557   0.317  0.00  0.00    +0.080 A 
ATOM     13  C   LIG    1        8.780   7.109   0.840  0.00  0.00    +0.060 A 
ATOM     14  C   LIG    1        9.370   7.766   1.877  0.00  0.00    +0.030 A 
ATOM     15  C   LIG    1        8.774   8.888   2.436  0.00  0.00    +0.040 A 
ATOM     16  C   LIG    1        7.574   9.349   1.945  0.00  0.00    +0.060 A 
ATOM     17  C   LIG    1        6.956   8.689   0.885  0.00  0.00    -0.190 A 
ATOM     18  S   LIG    1        5.449   9.000   0.029  0.00  0.00    +0.100 S 
ENDBRANCH   9  10
ENDBRANCH   6   9
ENDBRANCH   1   3
BRANCH   1  19
ATOM     19  C   LIG    1        1.278   2.115   0.001  0.00  0.00    +0.240 C 
ATOM     20  C   LIG    1        2.098   1.749   1.241  0.00  0.00    +0.040 C 
BRANCH  19  23
ATOM     21  N   LIG    1        0.002  -0.004   0.002  0.00  0.00    -0.720 N 
ATOM     22  H   LIG    1        0.849  -0.478  -0.009  0.00  0.00    +0.400 HD
ATOM     23  C   LIG    1       -0.016   1.344   0.009  0.00  0.00    +0.510 C 
ATOM     24  O   LIG    1       -1.075   1.936   0.018  0.00  0.00    -0.530 OA
BRANCH  21  25
ATOM     25  C   LIG    1       -1.256  -0.754   0.010  0.00  0.00    +0.330 C 
BRANCH  25  29
ATOM     26  C   LIG    1       -0.419  -4.944  -0.021  0.00  0.00    +0.140 A 
ATOM     27  C   LIG    1       -0.544  -4.269   1.185  0.00  0.00    -0.020 A 
ATOM     28  C   LIG    1       -0.814  -2.915   1.192  0.00  0.00    +0.070 A 
ATOM     29  C   LIG    1       -0.961  -2.232  -0.001  0.00  0.00    -0.150 A 
ATOM     30  C   LIG    1       -0.843  -2.903  -1.204  0.00  0.00    +0.070 A 
ATOM     31  C   LIG    1       -0.567  -4.256  -1.216  0.00  0.00    -0.080 A 
BRANCH  26  33
ATOM     32  C   LIG    1       -0.039  -6.906  -1.308  0.00  0.00    +0.250 C 
ATOM     33  O   LIG    1       -0.154  -6.277  -0.030  0.00  0.00    -0.320 OA
ENDBRANCH  26  33
ENDBRANCH  25  29
ENDBRANCH  21  25
ENDBRANCH  19  23
ENDBRANCH   1  19
TORSDOF 8
