REMARK  Name = ZINCvU0000000HOu.0
REMARK                            x       y       z     vdW  Elec       q    Type
REMARK                         _______ _______ _______ _____ _____    ______ ____
ROOT
ATOM      1  C   LIG    1       -2.308   1.835   3.097  0.00  0.00    +0.230 A 
ATOM      2  N   LIG    1       -1.842   1.148   2.082  0.00  0.00    -0.370 NA
ATOM      3  C   LIG    1       -0.930   1.894   1.440  0.00  0.00    -0.650 A 
ATOM      4  C   LIG    1       -0.832   3.078   2.091  0.00  0.00    +0.380 A 
ATOM      5  O   LIG    1       -1.700   3.036   3.122  0.00  0.00    -0.210 OA
ENDROOT
BRANCH   1   9
ATOM      6  C   LIG    1       -5.252   0.493   5.850  0.00  0.00    +0.150 A 
ATOM      7  C   LIG    1       -4.700   1.760   5.989  0.00  0.00    -0.010 A 
ATOM      8  C   LIG    1       -3.745   2.199   5.098  0.00  0.00    +0.090 A 
ATOM      9  C   LIG    1       -3.332   1.368   4.055  0.00  0.00    -0.050 A 
ATOM     10  C   LIG    1       -3.893   0.097   3.916  0.00  0.00    +0.110 A 
ATOM     11  C   LIG    1       -4.844  -0.337   4.814  0.00  0.00    -0.070 A 
BRANCH   6  13
ATOM     12  C   LIG    1       -6.720  -1.249   6.529  0.00  0.00    +0.240 C 
ATOM     13  O   LIG    1       -6.194   0.064   6.731  0.00  0.00    -0.310 OA
ENDBRANCH   6  13
ENDBRANCH   1   9
BRANCH   3  14
ATOM     14  S   LIG    1       -0.017   1.417   0.010  0.00  0.00    +2.630 S 
ATOM     15  O   LIG    1        1.162   2.210   0.003  0.00  0.00    -0.940 OA
ATOM     16  O   LIG    1        0.002  -0.004   0.002  0.00  0.00    -0.910 OA
BRANCH  14  17
ATOM     17  C   LIG    1       -0.957   1.909  -1.397  0.00  0.00    -0.660 A 
ATOM     18  C   LIG    1       -1.877   1.040  -1.953  0.00  0.00    +0.160 A 
ATOM     19  C   LIG    1       -2.617   1.427  -3.053  0.00  0.00    +0.020 A 
ATOM     20  C   LIG    1       -2.430   2.682  -3.606  0.00  0.00    +0.020 A 
ATOM     21  C   LIG    1       -1.506   3.550  -3.052  0.00  0.00    +0.020 A 
ATOM     22 CL   LIG    1       -3.355   3.167  -4.993  0.00  0.00    -0.050 Cl
ATOM     23  C   LIG    1       -0.770   3.163  -1.948  0.00  0.00    +0.140 A 
ENDBRANCH  14  17
ENDBRANCH   3  14
BRANCH   4  24
ATOM     24  N   LIG    1        0.005   4.138   1.757  0.00  0.00    -0.680 N 
ATOM     25  H   LIG    1        0.594   4.068   0.990  0.00  0.00    +0.440 HD
BRANCH  24  26
ATOM     26  C   LIG    1       -0.004   5.360   2.565  0.00  0.00    +0.310 C 
BRANCH  26  27
ATOM     27  C   LIG    1        0.985   6.345   1.996  0.00  0.00    -0.120 A 
ATOM     28  C   LIG    1        2.294   6.344   2.439  0.00  0.00    +0.040 A 
ATOM     29  C   LIG    1        3.202   7.245   1.914  0.00  0.00    +0.010 A 
ATOM     30  C   LIG    1        2.799   8.153   0.953  0.00  0.00    +0.030 A 
ATOM     31  C   LIG    1        1.488   8.157   0.514  0.00  0.00    +0.010 A 
ATOM     32  C   LIG    1        0.581   7.253   1.035  0.00  0.00    +0.030 A 
ENDBRANCH  26  27
ENDBRANCH  24  26
ENDBRANCH   4  24
TORSDOF 7
