REMARK  Name = ZINCrD0000074ZxE.0
REMARK                            x       y       z     vdW  Elec       q    Type
REMARK                         _______ _______ _______ _____ _____    ______ ____
ROOT
ATOM      1  C   LIG    1       -5.065   5.236  -2.633  0.00  0.00    +0.560 C 
ATOM      2  N   LIG    1       -4.616   4.630  -1.516  0.00  0.00    -0.720 N 
ATOM      3  H   LIG    1       -5.047   4.802  -0.664  0.00  0.00    +0.400 HD
ATOM      4  O   LIG    1       -4.525   5.019  -3.700  0.00  0.00    -0.510 OA
ENDROOT
BRANCH   1  11
ATOM      5  C   LIG    1       -5.859   6.733  -4.979  0.00  0.00    +0.170 C 
ATOM      6  C   LIG    1       -6.609   6.893  -3.682  0.00  0.00    +0.200 A 
ATOM      7  N   LIG    1       -7.632   7.720  -3.617  0.00  0.00    -0.450 NA
ATOM      8  C   LIG    1       -8.318   7.893  -2.503  0.00  0.00    +0.070 A 
ATOM      9  C   LIG    1       -7.989   7.208  -1.348  0.00  0.00    +0.020 A 
ATOM     10  C   LIG    1       -6.926   6.322  -1.365  0.00  0.00    +0.110 A 
ATOM     11  C   LIG    1       -6.213   6.164  -2.560  0.00  0.00    -0.160 A 
BRANCH   8  12
ATOM     12  C   LIG    1       -9.479   8.854  -2.490  0.00  0.00    +0.520 C 
ATOM     13  F   LIG    1       -9.192   9.921  -1.633  0.00  0.00    -0.170 F 
ATOM     14  F   LIG    1      -10.627   8.191  -2.042  0.00  0.00    -0.170 F 
ATOM     15  F   LIG    1       -9.697   9.340  -3.784  0.00  0.00    -0.160 F 
ENDBRANCH   8  12
ENDBRANCH   1  11
BRANCH   2  16
ATOM     16  C   LIG    1       -3.478   3.710  -1.588  0.00  0.00    +0.280 C 
BRANCH  16  17
ATOM     17  C   LIG    1       -3.175   3.163  -0.192  0.00  0.00    +0.090 C 
BRANCH  17  18
ATOM     18  C   LIG    1       -2.004   2.217  -0.266  0.00  0.00    -0.080 A 
ATOM     19  C   LIG    1       -2.221   0.859  -0.397  0.00  0.00    +0.040 A 
ATOM     20  C   LIG    1       -1.146  -0.011  -0.460  0.00  0.00    +0.080 A 
ATOM     21  C   LIG    1        0.147   0.480  -0.401  0.00  0.00    +0.030 A 
ATOM     22  C   LIG    1        0.367   1.839  -0.276  0.00  0.00    -0.170 A 
ATOM     23  C   LIG    1        1.780   2.362  -0.210  0.00  0.00    +0.300 C 
ATOM     24  O   LIG    1        1.774   3.772  -0.456  0.00  0.00    -0.380 OA
ATOM     25  C   LIG    1        0.797   4.473   0.323  0.00  0.00    +0.440 C 
ATOM     26  O   LIG    1       -0.505   4.051  -0.091  0.00  0.00    -0.320 OA
ATOM     27  F   LIG    1       -1.359  -1.339  -0.583  0.00  0.00    -0.130 F 
ATOM     28  C   LIG    1       -0.708   2.711  -0.209  0.00  0.00    +0.130 A 
ENDBRANCH  17  18
ENDBRANCH  16  17
ENDBRANCH   2  16
TORSDOF 5
