REMARK  Name = ZINCpe000000Y9YP.0
REMARK                            x       y       z     vdW  Elec       q    Type
REMARK                         _______ _______ _______ _____ _____    ______ ____
ROOT
ATOM      1  C   LIG    1        0.526  -7.015  -0.456  0.00  0.00    +0.180 A 
ATOM      2  C   LIG    1        0.341  -6.203   0.658  0.00  0.00    +0.020 A 
ATOM      3  C   LIG    1        0.058  -4.865   0.498  0.00  0.00    +0.120 A 
ATOM      4  C   LIG    1       -0.054  -4.324  -0.786  0.00  0.00    -0.150 A 
ATOM      5  C   LIG    1        0.134  -5.143  -1.905  0.00  0.00    +0.180 A 
ATOM      6  F   LIG    1        0.033  -4.625  -3.148  0.00  0.00    -0.110 F 
ATOM      7  C   LIG    1        0.422  -6.483  -1.734  0.00  0.00    +0.020 A 
ENDROOT
BRANCH   4   8
ATOM      8  C   LIG    1       -0.361  -2.891  -0.961  0.00  0.00    +0.590 C 
ATOM      9  N   LIG    1       -1.206  -2.275  -0.111  0.00  0.00    -0.600 N 
ATOM     10  C   LIG    1       -1.975  -2.930   0.963  0.00  0.00    +0.260 C 
ATOM     11  C   LIG    1       -3.187  -1.997   1.209  0.00  0.00    +0.040 C 
ATOM     12  C   LIG    1       -2.547  -0.594   1.019  0.00  0.00    +0.060 C 
ATOM     13  C   LIG    1       -1.514  -0.837  -0.101  0.00  0.00    +0.230 C 
ATOM     14  O   LIG    1        0.148  -2.267  -1.872  0.00  0.00    -0.500 OA
BRANCH  13  15
ATOM     15  C   LIG    1       -0.261  -0.047   0.177  0.00  0.00    +0.510 C 
ATOM     16  N   LIG    1       -0.312   1.298   0.239  0.00  0.00    -0.620 N 
ATOM     17  C   LIG    1       -1.585   1.993   0.029  0.00  0.00    +0.280 C 
ATOM     18  C   LIG    1        0.906   2.066   0.509  0.00  0.00    +0.300 C 
ATOM     19  O   LIG    1        0.793  -0.622   0.346  0.00  0.00    -0.520 OA
ENDBRANCH  13  15
ENDBRANCH   4   8
BRANCH   1  25
ATOM     20  C   LIG    1        2.244  -8.216   1.823  0.00  0.00    +0.230 C 
ATOM     21  C   LIG    1        1.562  -8.938   0.690  0.00  0.00    +0.260 A 
ATOM     22  N   LIG    1        1.578 -10.226   0.470  0.00  0.00    -0.320 NA
ATOM     23  N   LIG    1        0.896 -10.515  -0.579  0.00  0.00    -0.020 NA
ATOM     24  N   LIG    1        0.396  -9.445  -1.095  0.00  0.00    -0.070 NA
ATOM     25  N   LIG    1        0.818  -8.374  -0.287  0.00  0.00    -0.340 N 
ENDBRANCH   1  25
TORSDOF 3
