REMARK  Name = ZINCkj000005hxj6.0
REMARK                            x       y       z     vdW  Elec       q    Type
REMARK                         _______ _______ _______ _____ _____    ______ ____
ROOT
ATOM      1  N   LIG    1        0.029  -0.022   0.266  0.00  0.00    -0.620 N 
ATOM      2  C   LIG    1       -0.074   1.243  -0.188  0.00  0.00    +0.610 C 
ATOM      3  O   LIG    1        0.930   1.886  -0.432  0.00  0.00    -0.520 OA
ATOM      4  C   LIG    1       -1.171  -0.750   0.687  0.00  0.00    +0.310 C 
ENDROOT
BRANCH   2   5
ATOM      5  C   LIG    1       -1.353   1.821  -0.387  0.00  0.00    -0.340 A 
ATOM      6  C   LIG    1       -1.592   3.137  -0.700  0.00  0.00    +0.200 A 
ATOM      7  C   LIG    1       -2.934   3.423  -0.841  0.00  0.00    -0.070 A 
ATOM      8  C   LIG    1       -3.758   2.390  -0.641  0.00  0.00    -0.160 A 
ATOM      9  C   LIG    1       -5.260   2.468  -0.734  0.00  0.00    +0.160 C 
ATOM     10  S   LIG    1       -2.888   0.972  -0.266  0.00  0.00    +0.260 S 
BRANCH   6  11
ATOM     11  O   LIG    1       -0.608   4.059  -0.859  0.00  0.00    -0.280 OA
BRANCH  11  12
ATOM     12  C   LIG    1       -1.014   5.390  -1.184  0.00  0.00    +0.600 C 
ATOM     13  F   LIG    1       -1.836   5.889  -0.168  0.00  0.00    -0.200 F 
ATOM     14  F   LIG    1       -1.719   5.381  -2.392  0.00  0.00    -0.190 F 
ENDBRANCH  11  12
ENDBRANCH   6  11
ENDBRANCH   2   5
BRANCH   1  15
ATOM     15  C   LIG    1        1.341  -0.669   0.338  0.00  0.00    +0.290 C 
BRANCH  15  16
ATOM     16  C   LIG    1        1.969  -0.398   1.707  0.00  0.00    +0.180 C 
BRANCH  16  17
ATOM     17  O   LIG    1        2.122   1.011   1.890  0.00  0.00    -0.540 OA
ATOM     18  H   LIG    1        2.686   1.435   1.229  0.00  0.00    +0.400 HD
ENDBRANCH  16  17
BRANCH  16  19
ATOM     19  C   LIG    1        3.340  -1.074   1.783  0.00  0.00    +0.240 C 
BRANCH  19  21
ATOM     20  C   LIG    1        5.206  -1.564   3.208  0.00  0.00    +0.320 C 
ATOM     21  N   LIG    1        3.890  -0.915   3.135  0.00  0.00    -0.500 N 
ATOM     22  H   LIG    1        3.267  -1.343   3.804  0.00  0.00    +0.430 HD
ATOM     23  H   LIG    1        3.987   0.067   3.346  0.00  0.00    +0.440 HD
ENDBRANCH  19  21
ENDBRANCH  16  19
ENDBRANCH  15  16
ENDBRANCH   1  15
TORSDOF 8
