REMARK  Name = ZINCvU00000007dy.0
REMARK                            x       y       z     vdW  Elec       q    Type
REMARK                         _______ _______ _______ _____ _____    ______ ____
ROOT
ATOM      1  C   LIG    1        2.086  -3.377  -1.375  0.00  0.00    -0.240 A 
ATOM      2  C   LIG    1        1.772  -4.678  -1.737  0.00  0.00    +0.340 A 
ATOM      3  N   LIG    1        0.545  -4.949  -1.262  0.00  0.00    -0.300 N 
ATOM      4  N   LIG    1        0.044  -3.837  -0.581  0.00  0.00    -0.280 NA
ATOM      5  C   LIG    1        0.933  -2.870  -0.618  0.00  0.00    +0.170 A 
ENDROOT
BRANCH   3   6
ATOM      6  C   LIG    1       -0.132  -6.165  -1.426  0.00  0.00    +0.150 A 
ATOM      7  C   LIG    1        0.464  -7.203  -2.131  0.00  0.00    -0.010 A 
ATOM      8  C   LIG    1       -0.203  -8.402  -2.286  0.00  0.00    +0.040 A 
ATOM      9  C   LIG    1       -1.468  -8.566  -1.751  0.00  0.00    +0.010 A 
ATOM     10  C   LIG    1       -2.066  -7.532  -1.054  0.00  0.00    +0.030 A 
ATOM     11  C   LIG    1       -1.402  -6.333  -0.890  0.00  0.00    +0.030 A 
ENDBRANCH   3   6
BRANCH   5  12
ATOM     12  C   LIG    1        0.796  -1.523  -0.016  0.00  0.00    -0.020 A 
ATOM     13  C   LIG    1       -0.447  -0.892   0.012  0.00  0.00    +0.040 A 
ATOM     14  C   LIG    1       -0.568   0.362   0.574  0.00  0.00    +0.010 A 
ATOM     15  C   LIG    1        0.540   0.994   1.109  0.00  0.00    +0.020 A 
ATOM     16  C   LIG    1        1.776   0.373   1.084  0.00  0.00    +0.010 A 
ATOM     17  C   LIG    1        1.910  -0.882   0.524  0.00  0.00    +0.040 A 
ENDBRANCH   5  12
BRANCH   1  19
ATOM     18  C   LIG    1        4.542  -3.267  -1.495  0.00  0.00    -0.160 C 
ATOM     19  C   LIG    1        3.319  -2.655  -1.682  0.00  0.00    +0.290 C 
BRANCH  18  22
ATOM     20  N   LIG    1        5.791  -5.209  -0.704  0.00  0.00    -0.660 N 
ATOM     21  H   LIG    1        6.558  -4.893  -1.207  0.00  0.00    +0.410 HD
ATOM     22  C   LIG    1        4.623  -4.539  -0.765  0.00  0.00    +0.570 C 
ATOM     23  O   LIG    1        3.635  -4.989  -0.215  0.00  0.00    -0.500 OA
BRANCH  20  30
ATOM     24  C   LIG    1        7.828  -7.091  -1.342  0.00  0.00    +0.080 C 
ATOM     25  C   LIG    1        6.878  -7.303  -0.191  0.00  0.00    -0.120 A 
ATOM     26  C   LIG    1        6.981  -8.437   0.590  0.00  0.00    +0.030 A 
ATOM     27  C   LIG    1        6.111  -8.632   1.647  0.00  0.00    -0.010 A 
ATOM     28  C   LIG    1        5.134  -7.694   1.924  0.00  0.00    +0.020 A 
ATOM     29  C   LIG    1        5.029  -6.555   1.150  0.00  0.00    +0.020 A 
ATOM     30  C   LIG    1        5.898  -6.358   0.085  0.00  0.00    +0.150 A 
ENDBRANCH  20  30
ENDBRANCH  18  22
BRANCH  18  31
ATOM     31  C   LIG    1        5.732  -2.662  -2.013  0.00  0.00    +0.240 C 
ATOM     32  N   LIG    1        6.676  -2.182  -2.424  0.00  0.00    -0.400 NA
ENDBRANCH  18  31
ENDBRANCH   1  19
TORSDOF 6
