REMARK  Name = ZINCpe00000MFn5H.0
REMARK                            x       y       z     vdW  Elec       q    Type
REMARK                         _______ _______ _______ _____ _____    ______ ____
ROOT
ATOM      1  N   LIG    1       -2.522   9.822  -0.639  0.00  0.00    -0.570 N 
ATOM      2  C   LIG    1       -2.253   9.635   0.793  0.00  0.00    +0.310 C 
ATOM      3  C   LIG    1       -1.252   8.488   0.961  0.00  0.00    +0.010 C 
ATOM      4  C   LIG    1       -1.786   7.241   0.254  0.00  0.00    +0.250 C 
ATOM      5  C   LIG    1       -1.945   7.528  -1.241  0.00  0.00    +0.010 C 
ATOM      6  C   LIG    1       -2.955   8.664  -1.434  0.00  0.00    +0.300 C 
ENDROOT
BRANCH   1  11
ATOM      7  N   LIG    1       -2.627  12.521  -3.152  0.00  0.00    -0.480 N 
ATOM      8  C   LIG    1       -2.072  13.506  -2.391  0.00  0.00    +0.160 A 
ATOM      9  C   LIG    1       -1.691  13.266  -1.118  0.00  0.00    +0.190 A 
ATOM     10  N   LIG    1       -1.845  12.068  -0.554  0.00  0.00    -0.510 NA
ATOM     11  C   LIG    1       -2.369  11.069  -1.231  0.00  0.00    +0.350 A 
ATOM     12  C   LIG    1       -2.795  11.291  -2.618  0.00  0.00    +0.480 A 
ATOM     13  O   LIG    1       -3.289  10.388  -3.271  0.00  0.00    -0.520 OA
BRANCH   7  15
ATOM     14  C   LIG    1       -4.491  13.267  -4.550  0.00  0.00    +0.030 C 
ATOM     15  C   LIG    1       -3.037  12.792  -4.533  0.00  0.00    +0.290 C 
ENDBRANCH   7  15
ENDBRANCH   1  11
BRANCH   4  16
ATOM     16  N   LIG    1       -0.847   6.133   0.441  0.00  0.00    -0.730 N 
ATOM     17  H   LIG    1        0.090   6.315   0.614  0.00  0.00    +0.390 HD
ATOM     18  C   LIG    1       -1.283   4.859   0.373  0.00  0.00    +0.590 C 
ATOM     19  O   LIG    1       -2.459   4.630   0.156  0.00  0.00    -0.520 OA
BRANCH  18  20
ATOM     20  C   LIG    1       -0.342   3.749   0.560  0.00  0.00    -0.050 A 
ATOM     21  C   LIG    1       -0.651   2.422   0.510  0.00  0.00    +0.110 A 
ATOM     22  C   LIG    1        0.545   1.708   0.746  0.00  0.00    -0.130 A 
ATOM     23  C   LIG    1        1.547   2.643   0.923  0.00  0.00    +0.290 A 
ATOM     24  N   LIG    1        1.008   3.869   0.810  0.00  0.00    -0.520 N 
ATOM     25  H   LIG    1        1.492   4.706   0.892  0.00  0.00    +0.430 HD
BRANCH  22  26
ATOM     26  C   LIG    1        0.693   0.285   0.789  0.00  0.00    +0.280 C 
ATOM     27  N   LIG    1        0.810  -0.845   0.822  0.00  0.00    -0.430 NA
ENDBRANCH  22  26
ENDBRANCH  18  20
ENDBRANCH   4  16
TORSDOF 5
