REMARK  Name = ZINCtj0000000zec.1
REMARK                            x       y       z     vdW  Elec       q    Type
REMARK                         _______ _______ _______ _____ _____    ______ ____
ROOT
ATOM      1  N   LIG    1       -2.429   1.398   0.021  0.00  0.00    -0.500 N 
ATOM      2  H   LIG    1       -2.964   1.414  -0.788  0.00  0.00    +0.430 HD
ATOM      3  C   LIG    1       -2.928   0.853   1.148  0.00  0.00    +0.520 C 
ATOM      4  O   LIG    1       -2.259   0.833   2.160  0.00  0.00    -0.500 OA
ENDROOT
BRANCH   1  13
ATOM      5  C   LIG    1        0.612   7.695   0.034  0.00  0.00    +0.030 C 
ATOM      6  C   LIG    1        1.117   6.251   0.023  0.00  0.00    -0.020 C 
ATOM      7  C   LIG    1        0.616   5.526   1.273  0.00  0.00    +0.040 C 
ATOM      8  C   LIG    1        1.131   4.085   1.267  0.00  0.00    +0.060 C 
ATOM      9  C   LIG    1        0.637   3.371   0.013  0.00  0.00    +0.140 C 
ATOM     10  N   LIG    1        1.095   1.975   0.002  0.00  0.00    -0.710 N 
ATOM     11  H   LIG    1        2.014   1.665  -0.008  0.00  0.00    +0.450 HD
ATOM     12  C   LIG    1       -0.014   1.211   0.009  0.00  0.00    +0.710 C 
ATOM     13  N   LIG    1       -1.137   1.940   0.018  0.00  0.00    -0.380 N 
ATOM     14  O   LIG    1        0.002  -0.004   0.002  0.00  0.00    -0.530 OA
ATOM     15  C   LIG    1        1.108   4.096  -1.242  0.00  0.00    +0.060 C 
ATOM     16  C   LIG    1       -0.870   3.263   0.026  0.00  0.00    +0.540 C 
ATOM     17  O   LIG    1       -1.671   4.173   0.038  0.00  0.00    -0.440 OA
ATOM     18  C   LIG    1        0.593   5.538  -1.226  0.00  0.00    +0.040 C 
ENDBRANCH   1  13
BRANCH   3  19
ATOM     19  C   LIG    1       -4.317   0.269   1.152  0.00  0.00    +0.270 C 
BRANCH  19  20
ATOM     20  N   LIG    1       -4.623  -0.257   2.489  0.00  0.00    -0.520 NA
ATOM     21  C   LIG    1       -3.766  -1.406   2.812  0.00  0.00    +0.220 C 
ATOM     22  C   LIG    1       -4.075  -1.886   4.232  0.00  0.00    +0.280 C 
ATOM     23  N   LIG    1       -5.490  -2.268   4.322  0.00  0.00    -0.390 N 
ATOM     24  C   LIG    1       -6.334  -1.104   4.021  0.00  0.00    +0.280 C 
ATOM     25  H   LIG    1       -5.683  -3.004   3.659  0.00  0.00    +0.420 HD
ATOM     26  C   LIG    1       -6.044  -0.618   2.600  0.00  0.00    +0.230 C 
BRANCH  23  27
ATOM     27  C   LIG    1       -5.782  -2.746   5.681  0.00  0.00    +0.360 C 
BRANCH  27  28
ATOM     28  C   LIG    1       -4.833  -3.861   6.036  0.00  0.00    -0.290 A 
ATOM     29  C   LIG    1       -3.646  -3.703   6.623  0.00  0.00    +0.080 A 
ATOM     30  C   LIG    1       -2.947  -4.876   6.853  0.00  0.00    +0.010 A 
ATOM     31  C   LIG    1       -3.567  -5.987   6.451  0.00  0.00    +0.010 A 
ATOM     32  S   LIG    1       -5.124  -5.571   5.745  0.00  0.00    +0.150 S 
ENDBRANCH  27  28
ENDBRANCH  23  27
ENDBRANCH  19  20
ENDBRANCH   3  19
TORSDOF 5
