REMARK  Name = ZINCkj000005hmjU.0
REMARK                            x       y       z     vdW  Elec       q    Type
REMARK                         _______ _______ _______ _____ _____    ______ ____
ROOT
ATOM      1  C   LIG    1       -0.038   1.475  -2.460  0.00  0.00    +0.500 C 
ATOM      2  N   LIG    1        0.577   0.380  -2.950  0.00  0.00    -0.590 N 
ATOM      3  C   LIG    1        0.286  -0.956  -2.409  0.00  0.00    +0.280 C 
ATOM      4  C   LIG    1       -0.050  -1.889  -3.583  0.00  0.00    +0.170 C 
ATOM      5  N   LIG    1        1.041  -1.842  -4.566  0.00  0.00    -0.530 NA
ATOM      6  C   LIG    1        1.182  -0.499  -5.142  0.00  0.00    +0.180 C 
ATOM      7  C   LIG    1        1.563   0.491  -4.036  0.00  0.00    +0.300 C 
ATOM      8  O   LIG    1        0.140   2.555  -2.982  0.00  0.00    -0.510 OA
ENDROOT
BRANCH   1  14
ATOM      9  C   LIG    1       -2.308   2.322  -2.998  0.00  0.00    +0.320 C 
ATOM     10  N   LIG    1       -2.284   1.882  -1.597  0.00  0.00    -0.380 N 
ATOM     11  C   LIG    1       -2.573   3.029  -0.710  0.00  0.00    +0.270 C 
ATOM     12  C   LIG    1       -1.680   2.803   0.538  0.00  0.00    +0.080 C 
ATOM     13  C   LIG    1       -0.398   2.207  -0.100  0.00  0.00    +0.100 C 
ATOM     14  C   LIG    1       -0.947   1.356  -1.264  0.00  0.00    +0.150 C 
ATOM     15  H   LIG    1       -2.977   1.162  -1.454  0.00  0.00    +0.430 HD
ENDBRANCH   1  14
BRANCH   5  16
ATOM     16  C   LIG    1        0.845  -2.849  -5.618  0.00  0.00    +0.170 C 
ATOM     17  C   LIG    1        2.120  -3.015  -6.391  0.00  0.00    -0.060 C 
ATOM     18  C   LIG    1        2.601  -4.158  -6.761  0.00  0.00    -0.020 C 
ATOM     19  C   LIG    1        1.955  -5.479  -6.459  0.00  0.00    +0.060 C 
ATOM     20  C   LIG    1        0.494  -5.271  -6.054  0.00  0.00    +0.020 C 
ATOM     21  C   LIG    1        0.440  -4.178  -4.978  0.00  0.00    +0.020 C 
ENDBRANCH   5  16
TORSDOF 2
