REMARK  Name = ZINCkj000005hmjU.1
REMARK                            x       y       z     vdW  Elec       q    Type
REMARK                         _______ _______ _______ _____ _____    ______ ____
ROOT
ATOM      1  C   LIG    1       -0.018   1.503   0.010  0.00  0.00    +0.510 C 
ATOM      2  N   LIG    1        1.139   2.192   0.003  0.00  0.00    -0.590 N 
ATOM      3  C   LIG    1        2.434   1.494  -0.007  0.00  0.00    +0.290 C 
ATOM      4  C   LIG    1        3.284   2.071  -1.151  0.00  0.00    +0.170 C 
ATOM      5  N   LIG    1        3.367   3.530  -1.004  0.00  0.00    -0.530 NA
ATOM      6  C   LIG    1        2.043   4.154  -1.127  0.00  0.00    +0.170 C 
ATOM      7  C   LIG    1        1.142   3.663   0.011  0.00  0.00    +0.300 C 
ATOM      8  O   LIG    1       -1.077   2.095   0.018  0.00  0.00    -0.530 OA
ENDROOT
BRANCH   1  14
ATOM      9  C   LIG    1       -1.616  -1.336  -1.181  0.00  0.00    +0.330 C 
ATOM     10  N   LIG    1       -1.377  -0.524   0.020  0.00  0.00    -0.380 N 
ATOM     11  C   LIG    1       -1.549  -1.361   1.228  0.00  0.00    +0.270 C 
ATOM     12  C   LIG    1       -0.480  -0.843   2.223  0.00  0.00    +0.080 C 
ATOM     13  C   LIG    1        0.709  -0.526   1.271  0.00  0.00    +0.100 C 
ATOM     14  C   LIG    1        0.002  -0.004   0.002  0.00  0.00    +0.160 C 
ATOM     15  H   LIG    1       -2.030   0.244   0.047  0.00  0.00    +0.430 HD
ENDBRANCH   1  14
BRANCH   5  16
ATOM     16  C   LIG    1        4.312   4.104  -1.972  0.00  0.00    +0.170 C 
ATOM     17  C   LIG    1        4.435   5.580  -1.732  0.00  0.00    -0.050 C 
ATOM     18  C   LIG    1        5.556   6.226  -1.749  0.00  0.00    -0.020 C 
ATOM     19  C   LIG    1        6.891   5.588  -2.000  0.00  0.00    +0.060 C 
ATOM     20  C   LIG    1        6.704   4.210  -2.638  0.00  0.00    +0.010 C 
ATOM     21  C   LIG    1        5.675   3.428  -1.811  0.00  0.00    +0.030 C 
ENDBRANCH   5  16
TORSDOF 2
