REMARK  Name = ZINCrD000000AtAi.0
REMARK                            x       y       z     vdW  Elec       q    Type
REMARK                         _______ _______ _______ _____ _____    ______ ____
ROOT
ATOM      1  O   LIG    1       -1.919  -4.265  -1.024  0.00  0.00    -0.500 OA
ATOM      2  C   LIG    1       -0.995  -4.859  -0.510  0.00  0.00    +0.530 C 
ATOM      3  N   LIG    1        0.059  -4.173  -0.022  0.00  0.00    -0.660 N 
ATOM      4  H   LIG    1        0.831  -4.650   0.319  0.00  0.00    +0.420 HD
ENDROOT
BRANCH   3   5
ATOM      5  C   LIG    1        0.037  -2.773  -0.008  0.00  0.00    +0.100 A 
ATOM      6  C   LIG    1       -1.161  -2.098   0.186  0.00  0.00    +0.060 A 
ATOM      7  C   LIG    1       -1.181  -0.718   0.199  0.00  0.00    +0.010 A 
ATOM      8  C   LIG    1       -0.005  -0.004   0.018  0.00  0.00    +0.120 A 
ATOM      9  C   LIG    1        1.191  -0.677  -0.182  0.00  0.00    -0.060 A 
ATOM     10  C   LIG    1        1.214  -2.058  -0.189  0.00  0.00    +0.030 A 
BRANCH   8  11
ATOM     11  O   LIG    1       -0.026   1.355   0.030  0.00  0.00    -0.310 OA
BRANCH  11  12
ATOM     12  C   LIG    1        1.221   2.025  -0.162  0.00  0.00    +0.240 C 
BRANCH  12  13
ATOM     13  C   LIG    1        1.003   3.515  -0.118  0.00  0.00    -0.100 A 
ATOM     14  C   LIG    1        0.722   4.208  -1.280  0.00  0.00    +0.020 A 
ATOM     15  C   LIG    1        0.517   5.574  -1.239  0.00  0.00    +0.010 A 
ATOM     16  C   LIG    1        0.604   6.250  -0.036  0.00  0.00    +0.020 A 
ATOM     17  C   LIG    1        0.891   5.558   1.126  0.00  0.00    +0.010 A 
ATOM     18  C   LIG    1        1.090   4.191   1.085  0.00  0.00    +0.020 A 
ENDBRANCH  12  13
ENDBRANCH  11  12
ENDBRANCH   8  11
ENDBRANCH   3   5
BRANCH   2  19
ATOM     19  C   LIG    1       -1.024  -6.362  -0.417  0.00  0.00    +0.120 C 
BRANCH  19  20
ATOM     20  S   LIG    1       -2.556  -6.983  -1.154  0.00  0.00    +0.120 S 
BRANCH  20  21
ATOM     21  C   LIG    1       -2.331  -8.714  -0.915  0.00  0.00    +0.200 A 
ATOM     22  N   LIG    1       -1.298  -9.297  -0.345  0.00  0.00    -0.340 NA
ATOM     23  N   LIG    1       -1.452 -10.572  -0.333  0.00  0.00    -0.030 NA
ATOM     24  N   LIG    1       -2.573 -10.894  -0.882  0.00  0.00    -0.080 NA
ATOM     25  N   LIG    1       -3.191  -9.695  -1.277  0.00  0.00    -0.330 N 
BRANCH  25  26
ATOM     26  C   LIG    1       -4.488  -9.540  -1.941  0.00  0.00    +0.210 C 
ATOM     27  C   LIG    1       -5.370 -10.784  -2.067  0.00  0.00    +0.090 C 
ATOM     28  C   LIG    1       -4.670 -10.214  -3.302  0.00  0.00    +0.070 C 
ENDBRANCH  25  26
ENDBRANCH  20  21
ENDBRANCH  19  20
ENDBRANCH   2  19
TORSDOF 8
