REMARK  Name = ZINCpk00000xI6Ab.0
REMARK                            x       y       z     vdW  Elec       q    Type
REMARK                         _______ _______ _______ _____ _____    ______ ____
ROOT
ATOM      1  N   LIG    1       -5.867  -0.935  -1.284  0.00  0.00    -0.600 N 
ATOM      2  C   LIG    1       -4.657  -0.407  -1.015  0.00  0.00    +0.520 C 
ATOM      3  O   LIG    1       -4.429   0.754  -1.280  0.00  0.00    -0.520 OA
ENDROOT
BRANCH   1   4
ATOM      4  C   LIG    1       -6.944  -0.078  -1.787  0.00  0.00    +0.270 C 
ATOM      5  C   LIG    1       -6.517   0.562  -3.119  0.00  0.00    +0.070 C 
ATOM      6  C   LIG    1       -7.539   1.690  -3.417  0.00  0.00    -0.300 C 
ATOM      7  S   LIG    1       -7.752   2.479  -1.777  0.00  0.00    +2.400 S 
ATOM      8  O   LIG    1       -9.132   2.736  -1.554  0.00  0.00    -0.940 OA
ATOM      9  O   LIG    1       -6.802   3.525  -1.630  0.00  0.00    -0.920 OA
ATOM     10  C   LIG    1       -7.233   1.043  -0.769  0.00  0.00    -0.330 C 
ENDBRANCH   1   4
BRANCH   1  11
ATOM     11  C   LIG    1       -6.106  -2.365  -1.074  0.00  0.00    +0.280 C 
BRANCH  11  13
ATOM     12  C   LIG    1       -6.883  -4.078   0.571  0.00  0.00    +0.030 C 
ATOM     13  C   LIG    1       -6.750  -2.578   0.297  0.00  0.00    -0.010 C 
ENDBRANCH  11  13
ENDBRANCH   1  11
BRANCH   2  14
ATOM     14  C   LIG    1       -3.587  -1.260  -0.384  0.00  0.00    +0.250 C 
BRANCH  14  15
ATOM     15  N   LIG    1       -2.394  -1.257  -1.235  0.00  0.00    -0.710 N 
ATOM     16  H   LIG    1       -2.231  -0.515  -1.838  0.00  0.00    +0.410 HD
ATOM     17  C   LIG    1       -1.525  -2.286  -1.182  0.00  0.00    +0.610 C 
ATOM     18  O   LIG    1       -1.731  -3.217  -0.426  0.00  0.00    -0.510 OA
BRANCH  17  19
ATOM     19  C   LIG    1       -0.332  -2.283  -2.034  0.00  0.00    -0.090 A 
ATOM     20  C   LIG    1        0.625  -3.256  -2.079  0.00  0.00    +0.050 A 
ATOM     21  C   LIG    1        1.576  -2.844  -3.025  0.00  0.00    -0.070 A 
ATOM     22  C   LIG    1        1.163  -1.652  -3.511  0.00  0.00    +0.210 A 
ATOM     23  O   LIG    1        0.013  -1.317  -2.911  0.00  0.00    -0.160 OA
ENDBRANCH  17  19
ENDBRANCH  14  15
BRANCH  14  24
ATOM     24  C   LIG    1       -3.231  -0.696   0.993  0.00  0.00    -0.010 C 
ATOM     25  C   LIG    1       -2.224  -1.622   1.679  0.00  0.00    +0.040 C 
ATOM     26  C   LIG    1       -4.497  -0.598   1.847  0.00  0.00    +0.030 C 
ENDBRANCH  14  24
ENDBRANCH   2  14
TORSDOF 7
