REMARK  Name = ZINCpe000000VCcu.0
REMARK                            x       y       z     vdW  Elec       q    Type
REMARK                         _______ _______ _______ _____ _____    ______ ____
ROOT
ATOM      1  C   LIG    1       -2.581   3.849   0.045  0.00  0.00    +0.390 C 
ENDROOT
BRANCH   1   6
ATOM      2  C   LIG    1        1.163   3.171   0.007  0.00  0.00    -0.090 A 
ATOM      3  C   LIG    1        1.177   1.778   0.000  0.00  0.00    +0.120 A 
ATOM      4  C   LIG    1       -0.013   1.076   0.008  0.00  0.00    +0.040 A 
ATOM      5  C   LIG    1       -1.223   1.747   0.017  0.00  0.00    +0.090 A 
ATOM      6  C   LIG    1       -1.257   3.128   0.030  0.00  0.00    -0.090 A 
ATOM      7  C   LIG    1       -0.069   3.854   0.022  0.00  0.00    +0.080 A 
BRANCH   2   8
ATOM      8  C   LIG    1        2.432   3.927  -0.001  0.00  0.00    +0.500 C 
ATOM      9  O   LIG    1        2.416   5.142   0.005  0.00  0.00    -0.490 OA
BRANCH   8  11
ATOM     10  C   LIG    1        4.815   4.077  -0.024  0.00  0.00    +0.290 C 
ATOM     11  O   LIG    1        3.608   3.270  -0.016  0.00  0.00    -0.350 OA
ENDBRANCH   8  11
ENDBRANCH   2   8
BRANCH   7  12
ATOM     12  C   LIG    1       -0.099   5.286   0.029  0.00  0.00    +0.240 C 
ATOM     13  N   LIG    1       -0.123   6.422   0.035  0.00  0.00    -0.360 NA
ENDBRANCH   7  12
ENDBRANCH   1   6
BRANCH   1  14
ATOM     14  N   LIG    1       -2.965   4.194  -1.325  0.00  0.00    -0.290 N 
ATOM     15  C   LIG    1       -4.129   3.863  -1.930  0.00  0.00    +0.150 A 
ATOM     16  C   LIG    1       -4.065   4.379  -3.180  0.00  0.00    -0.020 A 
ATOM     17  N   LIG    1       -2.881   4.994  -3.277  0.00  0.00    -0.260 NA
ATOM     18  N   LIG    1       -2.255   4.871  -2.159  0.00  0.00    -0.070 NA
BRANCH  16  19
ATOM     19  C   LIG    1       -5.120   4.282  -4.251  0.00  0.00    +0.150 C 
BRANCH  19  20
ATOM     20  C   LIG    1       -5.484   5.686  -4.737  0.00  0.00    +0.340 C 
BRANCH  20  21
ATOM     21  N   LIG    1       -6.511   5.591  -5.779  0.00  0.00    -0.380 N 
ATOM     22  C   LIG    1       -7.709   6.200  -5.787  0.00  0.00    +0.470 A 
ATOM     23  N   LIG    1       -8.328   5.864  -6.889  0.00  0.00    -0.550 NA
ATOM     24  C   LIG    1       -7.564   5.038  -7.603  0.00  0.00    +0.420 A 
ATOM     25  N   LIG    1       -6.440   4.842  -6.964  0.00  0.00    -0.320 NA
ENDBRANCH  20  21
ENDBRANCH  19  20
ENDBRANCH  16  19
ENDBRANCH   1  14
TORSDOF 8
