REMARK  Name = ZINCpk00000eaBHi.0
REMARK                            x       y       z     vdW  Elec       q    Type
REMARK                         _______ _______ _______ _____ _____    ______ ____
ROOT
ATOM      1  O   LIG    1        0.593  -2.694  -2.452  0.00  0.00    -0.330 OA
ENDROOT
BRANCH   1   2
ATOM      2  C   LIG    1        0.243  -2.006  -1.354  0.00  0.00    +0.470 C 
ATOM      3  O   LIG    1       -0.252  -2.581  -0.413  0.00  0.00    -0.480 OA
BRANCH   2   5
ATOM      4  C   LIG    1        1.958  -0.218  -1.457  0.00  0.00    +0.040 C 
ATOM      5  C   LIG    1        0.466  -0.517  -1.294  0.00  0.00    +0.220 C 
BRANCH   5   6
ATOM      6  N   LIG    1        0.002  -0.004   0.002  0.00  0.00    -0.520 NA
ATOM      7  C   LIG    1        0.827  -0.525   1.100  0.00  0.00    +0.200 C 
BRANCH   6   8
ATOM      8  C   LIG    1       -0.018   1.465   0.010  0.00  0.00    +0.230 C 
BRANCH   8   9
ATOM      9  C   LIG    1       -0.723   1.951   1.250  0.00  0.00    -0.080 A 
ATOM     10  C   LIG    1       -2.088   2.168   1.228  0.00  0.00    +0.020 A 
ATOM     11  C   LIG    1       -2.736   2.609   2.367  0.00  0.00    +0.000 A 
ATOM     12  C   LIG    1       -2.017   2.843   3.524  0.00  0.00    +0.000 A 
ATOM     13  C   LIG    1       -0.651   2.631   3.545  0.00  0.00    +0.000 A 
ATOM     14  C   LIG    1       -0.004   2.185   2.407  0.00  0.00    +0.010 A 
ENDBRANCH   8   9
ENDBRANCH   6   8
ENDBRANCH   5   6
ENDBRANCH   2   5
ENDBRANCH   1   2
BRANCH   1  15
ATOM     15  C   LIG    1        0.349  -4.125  -2.439  0.00  0.00    +0.200 C 
ATOM     16  C   LIG    1        1.576  -4.847  -1.878  0.00  0.00    +0.070 C 
BRANCH  15  17
ATOM     17  C   LIG    1        0.085  -4.602  -3.844  0.00  0.00    +0.520 C 
ATOM     18  N   LIG    1       -0.269  -5.884  -4.066  0.00  0.00    -0.690 N 
ATOM     19  H   LIG    1       -0.352  -6.499  -3.321  0.00  0.00    +0.410 HD
ATOM     20  C   LIG    1       -0.505  -6.310  -5.322  0.00  0.00    +0.700 C 
ATOM     21  N   LIG    1       -0.858  -7.592  -5.543  0.00  0.00    -0.710 N 
ATOM     22  H   LIG    1       -0.942  -8.207  -4.798  0.00  0.00    +0.400 HD
ATOM     23  O   LIG    1       -0.400  -5.539  -6.255  0.00  0.00    -0.520 OA
ATOM     24  O   LIG    1        0.189  -3.833  -4.775  0.00  0.00    -0.440 OA
BRANCH  21  25
ATOM     25  C   LIG    1       -1.115  -8.055  -6.909  0.00  0.00    +0.230 C 
ATOM     26  C   LIG    1       -2.339  -8.945  -7.134  0.00  0.00    +0.020 C 
ATOM     27  C   LIG    1       -0.934  -9.548  -7.195  0.00  0.00    +0.020 C 
ENDBRANCH  21  25
ENDBRANCH  15  17
ENDBRANCH   1  15
TORSDOF 8
