REMARK  Name = ZINCqH0000032kMk.0
REMARK                            x       y       z     vdW  Elec       q    Type
REMARK                         _______ _______ _______ _____ _____    ______ ____
ROOT
ATOM      1  C   LIG    1       -0.304   0.425  -0.171  0.00  0.00    +0.120 A 
ATOM      2  C   LIG    1        0.745  -0.378  -0.593  0.00  0.00    -0.020 A 
ATOM      3  C   LIG    1        0.678  -1.747  -0.426  0.00  0.00    +0.080 A 
ATOM      4  C   LIG    1       -0.441  -2.320   0.163  0.00  0.00    +0.180 A 
ATOM      5  C   LIG    1       -1.492  -1.516   0.584  0.00  0.00    -0.180 A 
ATOM      6  C   LIG    1       -1.421  -0.147   0.422  0.00  0.00    +0.060 A 
ENDROOT
BRANCH   4   7
ATOM      7  N   LIG    1       -0.510  -3.710   0.333  0.00  0.00    -0.680 N 
ATOM      8  H   LIG    1       -1.373  -4.148   0.400  0.00  0.00    +0.410 HD
ATOM      9  C   LIG    1        0.623  -4.437   0.402  0.00  0.00    +0.700 C 
ATOM     10  N   LIG    1        0.557  -5.769   0.598  0.00  0.00    -0.610 N 
ATOM     11  C   LIG    1       -0.771  -6.401   0.631  0.00  0.00    +0.330 C 
ATOM     12  C   LIG    1       -1.042  -6.895  -0.776  0.00  0.00    -0.250 C 
ATOM     13  S   LIG    1       -0.493  -8.609  -0.987  0.00  0.00    +1.250 S 
ATOM     14  C   LIG    1        1.107  -8.710  -0.119  0.00  0.00    -0.210 C 
ATOM     15  C   LIG    1        1.972  -7.498  -0.370  0.00  0.00    -0.030 C 
ATOM     16  C   LIG    1        3.443  -7.917  -0.400  0.00  0.00    +0.040 C 
ATOM     17  O   LIG    1       -0.300  -8.878  -2.369  0.00  0.00    -0.840 OA
ATOM     18  C   LIG    1        1.752  -6.468   0.763  0.00  0.00    +0.300 C 
ATOM     19  O   LIG    1        1.703  -3.892   0.288  0.00  0.00    -0.560 OA
ENDBRANCH   4   7
BRANCH   5  20
ATOM     20  C   LIG    1       -2.706  -2.137   1.225  0.00  0.00    +0.510 C 
ATOM     21  F   LIG    1       -2.323  -2.826   2.381  0.00  0.00    -0.170 F 
ATOM     22  F   LIG    1       -3.303  -3.029   0.326  0.00  0.00    -0.180 F 
ATOM     23  F   LIG    1       -3.621  -1.133   1.562  0.00  0.00    -0.170 F 
ENDBRANCH   5  20
BRANCH   1  24
ATOM     24  O   LIG    1       -0.237   1.773  -0.335  0.00  0.00    -0.310 OA
BRANCH  24  26
ATOM     25  C   LIG    1        0.654   3.672  -1.535  0.00  0.00    +0.070 C 
ATOM     26  C   LIG    1        0.949   2.295  -0.937  0.00  0.00    +0.150 C 
ATOM     27  C   LIG    1        2.045   2.423   0.122  0.00  0.00    +0.020 C 
ENDBRANCH  24  26
ENDBRANCH   1  24
TORSDOF 4
