REMARK  Name = ZINCrg00000fSGmO.0
REMARK                            x       y       z     vdW  Elec       q    Type
REMARK                         _______ _______ _______ _____ _____    ______ ____
ROOT
ATOM      1  C   LIG    1       -1.533   3.020   0.217  0.00  0.00    +0.100 A 
ATOM      2  C   LIG    1       -1.620   1.642   0.364  0.00  0.00    +0.050 A 
ATOM      3  C   LIG    1       -0.469   0.882   0.442  0.00  0.00    +0.010 A 
ATOM      4  C   LIG    1        0.773   1.495   0.364  0.00  0.00    +0.130 A 
ATOM      5  C   LIG    1        0.861   2.871   0.213  0.00  0.00    -0.060 A 
ATOM      6  C   LIG    1       -0.288   3.632   0.140  0.00  0.00    +0.060 A 
ENDROOT
BRANCH   1   9
ATOM      7  O   LIG    1       -1.737   5.237  -1.243  0.00  0.00    -0.490 OA
ATOM      8  C   LIG    1       -2.739   4.878  -0.655  0.00  0.00    +0.610 C 
ATOM      9  N   LIG    1       -2.699   3.792   0.143  0.00  0.00    -0.640 N 
ATOM     10  H   LIG    1       -3.478   3.545   0.665  0.00  0.00    +0.420 HD
BRANCH   8  11
ATOM     11  C   LIG    1       -4.002   5.633  -0.815  0.00  0.00    +0.240 A 
ATOM     12  N   LIG    1       -4.159   6.710  -1.562  0.00  0.00    -0.260 NA
ATOM     13  N   LIG    1       -5.497   7.104  -1.434  0.00  0.00    -0.330 N 
ATOM     14  C   LIG    1       -6.222   8.127  -1.965  0.00  0.00    +0.360 A 
ATOM     15  C   LIG    1       -7.533   8.245  -1.635  0.00  0.00    -0.030 A 
ATOM     16  C   LIG    1       -8.105   7.314  -0.757  0.00  0.00    +0.410 A 
ATOM     17  N   LIG    1       -7.381   6.338  -0.260  0.00  0.00    -0.450 NA
ATOM     18  C   LIG    1       -6.086   6.212  -0.580  0.00  0.00    +0.450 A 
ATOM     19  N   LIG    1       -5.160   5.334  -0.222  0.00  0.00    -0.500 NA
ENDBRANCH   8  11
ENDBRANCH   1   9
BRANCH   4  20
ATOM     20  O   LIG    1        1.905   0.745   0.436  0.00  0.00    -0.300 OA
BRANCH  20  21
ATOM     21  C   LIG    1        3.151   1.441   0.349  0.00  0.00    +0.190 C 
BRANCH  21  22
ATOM     22  C   LIG    1        4.303   0.439   0.448  0.00  0.00    +0.200 C 
BRANCH  22  23
ATOM     23  N   LIG    1        4.257  -0.474  -0.701  0.00  0.00    -0.530 NA
ATOM     24  C   LIG    1        5.025  -1.699  -0.432  0.00  0.00    +0.150 C 
ATOM     25  C   LIG    1        4.901  -2.646  -1.628  0.00  0.00    +0.220 C 
ATOM     26  O   LIG    1        5.349  -1.975  -2.809  0.00  0.00    -0.390 OA
ATOM     27  C   LIG    1        4.622  -0.779  -3.102  0.00  0.00    +0.220 C 
ATOM     28  C   LIG    1        4.743   0.187  -1.921  0.00  0.00    +0.140 C 
ENDBRANCH  22  23
ENDBRANCH  21  22
ENDBRANCH  20  21
ENDBRANCH   4  20
TORSDOF 6
