REMARK  Name = ZINCrD000000Ayry.0
REMARK                            x       y       z     vdW  Elec       q    Type
REMARK                         _______ _______ _______ _____ _____    ______ ____
ROOT
ATOM      1  O   LIG    1       -0.102   9.304   2.393  0.00  0.00    -0.500 OA
ATOM      2  C   LIG    1       -0.121  10.097   1.476  0.00  0.00    +0.520 C 
ATOM      3  N   LIG    1       -0.137  11.421   1.729  0.00  0.00    -0.530 N 
ATOM      4  H   LIG    1       -0.153  12.055   0.995  0.00  0.00    +0.430 HD
ENDROOT
BRANCH   3   5
ATOM      5  N   LIG    1       -0.131  11.881   3.053  0.00  0.00    -0.350 N 
ATOM      6  C   LIG    1       -1.264  11.803   3.797  0.00  0.00    +0.590 A 
ATOM      7  N   LIG    1       -1.337  12.201   5.031  0.00  0.00    -0.510 NA
ATOM      8  C   LIG    1       -0.269  12.744   5.667  0.00  0.00    +0.150 A 
ATOM      9  C   LIG    1       -0.348  13.178   6.992  0.00  0.00    +0.030 A 
ATOM     10  C   LIG    1        0.762  13.723   7.598  0.00  0.00    +0.070 A 
ATOM     11  C   LIG    1        1.961  13.847   6.908  0.00  0.00    +0.010 A 
ATOM     12  C   LIG    1        2.064  13.425   5.601  0.00  0.00    +0.100 A 
ATOM     13  C   LIG    1        0.953  12.871   4.969  0.00  0.00    -0.190 A 
ATOM     14  C   LIG    1        1.003  12.404   3.575  0.00  0.00    +0.550 A 
ATOM     15  O   LIG    1        2.024  12.485   2.917  0.00  0.00    -0.500 OA
ENDBRANCH   3   5
BRANCH   2  16
ATOM     16  C   LIG    1       -0.128   9.603   0.052  0.00  0.00    +0.150 C 
BRANCH  16  17
ATOM     17  C   LIG    1       -0.108   8.096   0.044  0.00  0.00    -0.080 A 
ATOM     18  C   LIG    1       -1.298   7.391   0.051  0.00  0.00    +0.020 A 
ATOM     19  C   LIG    1       -1.285   6.011   0.044  0.00  0.00    +0.020 A 
ATOM     20  C   LIG    1       -0.070   5.328   0.029  0.00  0.00    -0.040 A 
ATOM     21  C   LIG    1        1.125   6.043   0.027  0.00  0.00    +0.020 A 
ATOM     22  C   LIG    1        1.101   7.423   0.029  0.00  0.00    +0.020 A 
BRANCH  20  23
ATOM     23  C   LIG    1       -0.050   3.844   0.022  0.00  0.00    -0.050 A 
ATOM     24  C   LIG    1        1.164   3.161   0.007  0.00  0.00    +0.020 A 
ATOM     25  C   LIG    1        1.177   1.781   0.000  0.00  0.00    +0.000 A 
ATOM     26  C   LIG    1       -0.013   1.076   0.008  0.00  0.00    +0.000 A 
ATOM     27  C   LIG    1       -1.221   1.748   0.017  0.00  0.00    +0.010 A 
ATOM     28  C   LIG    1       -1.246   3.128   0.030  0.00  0.00    +0.020 A 
ENDBRANCH  20  23
ENDBRANCH  16  17
ENDBRANCH   2  16
TORSDOF 4
