REMARK  Name = ZINCtj0000000I6T.1
REMARK                            x       y       z     vdW  Elec       q    Type
REMARK                         _______ _______ _______ _____ _____    ______ ____
ROOT
ATOM      1  N   LIG    1       -6.150   4.482  -3.092  0.00  0.00    -0.370 N 
ATOM      2  C   LIG    1       -6.215   3.217  -3.833  0.00  0.00    +0.260 C 
ATOM      3  C   LIG    1       -7.678   2.855  -4.104  0.00  0.00    +0.050 C 
ATOM      4  C   LIG    1       -8.326   3.967  -4.933  0.00  0.00    +0.250 C 
ATOM      5  C   LIG    1       -8.186   5.296  -4.186  0.00  0.00    +0.070 C 
ATOM      6  C   LIG    1       -6.705   5.566  -3.911  0.00  0.00    +0.270 C 
ATOM      7  H   LIG    1       -6.683   4.399  -2.239  0.00  0.00    +0.430 HD
ENDROOT
BRANCH   4   8
ATOM      8  N   LIG    1       -9.746   3.664  -5.133  0.00  0.00    -0.730 N 
ATOM      9  H   LIG    1      -10.410   4.036  -4.532  0.00  0.00    +0.410 HD
ATOM     10  C   LIG    1      -10.129   2.869  -6.152  0.00  0.00    +0.570 C 
ATOM     11  O   LIG    1       -9.296   2.404  -6.905  0.00  0.00    -0.530 OA
BRANCH  10  12
ATOM     12  C   LIG    1      -11.561   2.564  -6.353  0.00  0.00    -0.150 A 
ATOM     13  C   LIG    1      -12.519   3.093  -5.486  0.00  0.00    +0.030 A 
ATOM     14  C   LIG    1      -13.855   2.808  -5.682  0.00  0.00    +0.000 A 
ATOM     15  C   LIG    1      -14.245   1.991  -6.729  0.00  0.00    +0.050 A 
ATOM     16  C   LIG    1      -13.300   1.460  -7.589  0.00  0.00    +0.020 A 
ATOM     17  C   LIG    1      -11.961   1.741  -7.407  0.00  0.00    +0.080 A 
ENDBRANCH  10  12
ENDBRANCH   4   8
BRANCH   1  18
ATOM     18  C   LIG    1       -4.750   4.785  -2.766  0.00  0.00    +0.160 C 
ATOM     19  C   LIG    1       -4.684   6.082  -1.958  0.00  0.00    +0.120 C 
BRANCH  18  21
ATOM     20  N   LIG    1       -2.839   3.433  -1.965  0.00  0.00    -0.580 N 
ATOM     21  C   LIG    1       -4.168   3.657  -1.953  0.00  0.00    +0.510 C 
ATOM     22  O   LIG    1       -4.896   2.950  -1.289  0.00  0.00    -0.520 OA
BRANCH  20  23
ATOM     23  C   LIG    1       -2.286   2.269  -1.269  0.00  0.00    +0.280 C 
ATOM     24  C   LIG    1       -1.195   2.724  -0.285  0.00  0.00    +0.080 C 
ATOM     25  C   LIG    1       -0.432   1.446   0.161  0.00  0.00    -0.290 C 
ATOM     26  S   LIG    1       -0.256   0.524  -1.413  0.00  0.00    +2.400 S 
ATOM     27  O   LIG    1        0.962   0.896  -2.043  0.00  0.00    -0.920 OA
ATOM     28  O   LIG    1       -0.546  -0.849  -1.189  0.00  0.00    -0.920 OA
ATOM     29  C   LIG    1       -1.657   1.304  -2.293  0.00  0.00    -0.330 C 
ENDBRANCH  20  23
BRANCH  20  31
ATOM     30  C   LIG    1       -1.898   3.977  -4.155  0.00  0.00    +0.030 C 
ATOM     31  C   LIG    1       -1.948   4.355  -2.674  0.00  0.00    +0.270 C 
ENDBRANCH  20  31
ENDBRANCH  18  21
ENDBRANCH   1  18
TORSDOF 6
