REMARK  Name = ZINCrD00000F5LGu.0
REMARK                            x       y       z     vdW  Elec       q    Type
REMARK                         _______ _______ _______ _____ _____    ______ ____
ROOT
ATOM      1  C   LIG    1       -0.633   3.702  -1.582  0.00  0.00    -0.550 A 
ATOM      2  C   LIG    1       -1.494   2.682  -1.367  0.00  0.00    +0.260 A 
ATOM      3  O   LIG    1       -1.571   1.984  -2.518  0.00  0.00    -0.220 OA
ATOM      4  C   LIG    1       -0.761   2.575  -3.411  0.00  0.00    +0.200 A 
ATOM      5  N   LIG    1       -0.194   3.604  -2.850  0.00  0.00    -0.380 NA
ENDROOT
BRANCH   1   6
ATOM      6  S   LIG    1       -0.167   4.934  -0.412  0.00  0.00    +2.620 S 
ATOM      7  O   LIG    1        1.016   5.540  -0.917  0.00  0.00    -0.920 OA
ATOM      8  O   LIG    1       -0.240   4.321   0.868  0.00  0.00    -0.920 OA
BRANCH   6  13
ATOM      9  C   LIG    1       -4.438   9.195  -0.506  0.00  0.00    +0.090 C 
ATOM     10  C   LIG    1       -3.371   8.131  -0.482  0.00  0.00    -0.030 A 
ATOM     11  C   LIG    1       -3.421   7.123   0.463  0.00  0.00    -0.020 A 
ATOM     12  C   LIG    1       -2.442   6.147   0.484  0.00  0.00    +0.140 A 
ATOM     13  C   LIG    1       -1.414   6.179  -0.440  0.00  0.00    -0.660 A 
ATOM     14  C   LIG    1       -1.362   7.189  -1.381  0.00  0.00    +0.130 A 
ATOM     15  C   LIG    1       -2.343   8.163  -1.405  0.00  0.00    -0.010 A 
ENDBRANCH   6  13
ENDBRANCH   1   6
BRANCH   2  16
ATOM     16  N   LIG    1       -2.176   2.409  -0.184  0.00  0.00    -0.440 N 
ATOM     17  C   LIG    1       -1.427   1.457   0.648  0.00  0.00    +0.250 C 
ATOM     18  C   LIG    1       -3.531   1.913  -0.460  0.00  0.00    +0.240 C 
ENDBRANCH   2  16
BRANCH   4  19
ATOM     19  C   LIG    1       -0.542   2.120  -4.831  0.00  0.00    +0.370 C 
BRANCH  19  20
ATOM     20  N   LIG    1        0.573   1.171  -4.874  0.00  0.00    -0.230 NA
ATOM     21  N   LIG    1        0.389   0.017  -5.289  0.00  0.00    -0.180 NA
BRANCH  21  22
ATOM     22  C   LIG    1        1.432  -0.871  -5.329  0.00  0.00    +0.020 A 
ATOM     23  C   LIG    1        2.704  -0.478  -4.909  0.00  0.00    +0.050 A 
ATOM     24  C   LIG    1        3.749  -1.378  -4.948  0.00  0.00    +0.000 A 
ATOM     25  C   LIG    1        3.540  -2.665  -5.412  0.00  0.00    +0.050 A 
ATOM     26  C   LIG    1        2.283  -3.059  -5.835  0.00  0.00    +0.010 A 
ATOM     27  C   LIG    1        1.229  -2.171  -5.796  0.00  0.00    +0.090 A 
ENDBRANCH  21  22
ENDBRANCH  19  20
ENDBRANCH   4  19
TORSDOF 6
