REMARK  Name = ZINCfA000000bkKW.0
REMARK                            x       y       z     vdW  Elec       q    Type
REMARK                         _______ _______ _______ _____ _____    ______ ____
ROOT
ATOM      1  C   LIG    1       -1.004   0.193  -3.990  0.00  0.00    +0.030 C 
ATOM      2  C   LIG    1       -0.773   1.659  -3.618  0.00  0.00    +0.250 C 
ENDROOT
BRANCH   2   3
ATOM      3  C   LIG    1       -0.042   2.353  -4.738  0.00  0.00    -0.080 A 
ATOM      4  C   LIG    1       -0.673   2.874  -5.793  0.00  0.00    -0.150 A 
ATOM      5  S   LIG    1        0.502   3.597  -6.885  0.00  0.00    +0.230 S 
ATOM      6  C   LIG    1        1.822   3.138  -5.817  0.00  0.00    -0.150 A 
ATOM      7 CL   LIG    1        3.502   3.466  -6.106  0.00  0.00    +0.010 Cl
ATOM      8 CL   LIG    1       -2.389   2.843  -6.048  0.00  0.00    +0.000 Cl
ATOM      9  C   LIG    1        1.335   2.503  -4.749  0.00  0.00    +0.060 A 
ENDBRANCH   2   3
BRANCH   2  10
ATOM     10  N   LIG    1        0.030   1.732  -2.390  0.00  0.00    -0.670 NA
ATOM     11  H   LIG    1        0.747   1.022  -2.385  0.00  0.00    +0.360 HD
BRANCH  10  12
ATOM     12  C   LIG    1       -0.821   1.628  -1.197  0.00  0.00    +0.160 C 
ATOM     13  C   LIG    1       -1.265   3.028  -0.714  0.00  0.00    +0.080 C 
ATOM     14  C   LIG    1       -1.197   2.963   0.823  0.00  0.00    +0.260 C 
ATOM     15  N   LIG    1       -0.766   1.593   1.183  0.00  0.00    -0.510 N 
ATOM     16  H   LIG    1       -0.168   1.616   1.996  0.00  0.00    +0.440 HD
ATOM     17  H   LIG    1       -1.571   1.011   1.359  0.00  0.00    +0.430 HD
ATOM     18  C   LIG    1       -0.013   1.086   0.008  0.00  0.00    +0.280 C 
ENDBRANCH  10  12
ENDBRANCH   2  10
TORSDOF 3
