REMARK  Name = ZINCtV000002sGOm.0
REMARK                            x       y       z     vdW  Elec       q    Type
REMARK                         _______ _______ _______ _____ _____    ______ ____
ROOT
ATOM      1  C   LIG    1       -2.152   8.632   0.069  0.00  0.00    +0.360 C 
ATOM      2  C   LIG    1       -1.651  10.012  -0.360  0.00  0.00    +0.040 C 
ATOM      3  C   LIG    1       -0.421  10.388   0.472  0.00  0.00    +0.040 C 
ATOM      4  C   LIG    1        0.756   9.506   0.044  0.00  0.00    +0.130 C 
ATOM      5  C   LIG    1        0.301   8.065   0.032  0.00  0.00    -0.200 A 
ATOM      6  S   LIG    1        1.351   6.653   0.010  0.00  0.00    +0.080 S 
ATOM      7  C   LIG    1       -0.065   5.606   0.009  0.00  0.00    +0.110 A 
ATOM      8  N   LIG    1       -1.134   6.341   0.030  0.00  0.00    -0.430 NA
ATOM      9  C   LIG    1       -0.984   7.655   0.043  0.00  0.00    +0.050 A 
ENDROOT
BRANCH   7  10
ATOM     10  C   LIG    1       -0.039   4.128  -0.008  0.00  0.00    -0.040 A 
ATOM     11  C   LIG    1        1.180   3.449  -0.031  0.00  0.00    +0.060 A 
ATOM     12  C   LIG    1        1.198   2.070  -0.046  0.00  0.00    -0.010 A 
ATOM     13  C   LIG    1        0.009   1.358  -0.038  0.00  0.00    +0.120 A 
ATOM     14  C   LIG    1       -1.205   2.028  -0.021  0.00  0.00    -0.010 A 
ATOM     15  F   LIG    1        0.032   0.008  -0.053  0.00  0.00    -0.130 F 
ATOM     16  C   LIG    1       -1.234   3.406  -0.001  0.00  0.00    +0.110 A 
ENDBRANCH   7  10
BRANCH   1  20
ATOM     17  N   LIG    1       -5.065   6.856  -1.303  0.00  0.00    -0.690 N 
ATOM     18  H   LIG    1       -5.136   7.253  -2.185  0.00  0.00    +0.400 HD
ATOM     19  C   LIG    1       -4.108   7.274  -0.452  0.00  0.00    +0.710 C 
ATOM     20  N   LIG    1       -3.193   8.177  -0.857  0.00  0.00    -0.730 N 
ATOM     21  H   LIG    1       -3.223   8.526  -1.761  0.00  0.00    +0.400 HD
ATOM     22  O   LIG    1       -4.070   6.837   0.682  0.00  0.00    -0.550 OA
BRANCH  17  26
ATOM     23  C   LIG    1       -7.716   3.857  -0.148  0.00  0.00    -0.090 A 
ATOM     24  C   LIG    1       -7.263   4.774   0.783  0.00  0.00    +0.020 A 
ATOM     25  C   LIG    1       -6.384   5.769   0.403  0.00  0.00    +0.020 A 
ATOM     26  C   LIG    1       -5.955   5.848  -0.915  0.00  0.00    +0.160 A 
ATOM     27  C   LIG    1       -6.416   4.929  -1.849  0.00  0.00    -0.030 A 
ATOM     28  C   LIG    1       -7.291   3.933  -1.462  0.00  0.00    +0.020 A 
BRANCH  23  30
ATOM     29  C   LIG    1       -9.971   2.900  -0.533  0.00  0.00    +0.040 C 
ATOM     30  C   LIG    1       -8.675   2.772   0.269  0.00  0.00    +0.020 C 
ATOM     31  C   LIG    1       -8.044   1.403   0.003  0.00  0.00    +0.040 C 
ENDBRANCH  23  30
ENDBRANCH  17  26
ENDBRANCH   1  20
TORSDOF 4
