REMARK  Name = ZINCpe000000XlJf.0
REMARK                            x       y       z     vdW  Elec       q    Type
REMARK                         _______ _______ _______ _____ _____    ______ ____
ROOT
ATOM      1  C   LIG    1        2.849   2.128   1.988  0.00  0.00    +0.520 C 
ATOM      2  N   LIG    1        2.154   1.374   1.115  0.00  0.00    -0.620 N 
ATOM      3  C   LIG    1        1.421   1.992  -0.001  0.00  0.00    +0.290 C 
ATOM      4  C   LIG    1       -0.018   1.465   0.010  0.00  0.00    +0.220 C 
ATOM      5  N   LIG    1        0.002  -0.004   0.002  0.00  0.00    -0.470 N 
ATOM      6  C   LIG    1        0.640  -0.535   1.214  0.00  0.00    +0.200 C 
ATOM      7  C   LIG    1        2.106  -0.090   1.252  0.00  0.00    +0.310 C 
ATOM      8  O   LIG    1        3.447   1.602   2.902  0.00  0.00    -0.510 OA
ENDROOT
BRANCH   5   9
ATOM      9  C   LIG    1       -1.272  -0.515  -0.151  0.00  0.00    +0.450 A 
ATOM     10  C   LIG    1       -1.491  -1.906  -0.187  0.00  0.00    -0.290 A 
ATOM     11  C   LIG    1       -0.662  -3.045  -0.098  0.00  0.00    +0.300 A 
ATOM     12  N   LIG    1       -1.409  -4.108  -0.194  0.00  0.00    -0.240 NA
ATOM     13  N   LIG    1       -2.748  -3.731  -0.348  0.00  0.00    -0.380 N 
ATOM     14  C   LIG    1       -3.886  -4.643  -0.488  0.00  0.00    +0.370 C 
ATOM     15  C   LIG    1       -2.812  -2.369  -0.346  0.00  0.00    +0.360 A 
ATOM     16  N   LIG    1       -3.796  -1.478  -0.455  0.00  0.00    -0.550 NA
ATOM     17  C   LIG    1       -3.542  -0.189  -0.416  0.00  0.00    +0.580 A 
ATOM     18  N   LIG    1       -2.320   0.292  -0.263  0.00  0.00    -0.590 NA
ENDBRANCH   5   9
BRANCH   1  20
ATOM     19  C   LIG    1        3.603   3.984   0.525  0.00  0.00    +0.040 C 
ATOM     20  C   LIG    1        2.885   3.627   1.828  0.00  0.00    +0.160 C 
BRANCH  20  21
ATOM     21  O   LIG    1        3.583   4.207   2.932  0.00  0.00    -0.350 OA
BRANCH  21  22
ATOM     22  C   LIG    1        3.138   5.521   3.274  0.00  0.00    +0.200 C 
BRANCH  22  23
ATOM     23  C   LIG    1        3.950   6.041   4.462  0.00  0.00    -0.030 C 
ATOM     24  C   LIG    1        3.198   6.318   5.765  0.00  0.00    +0.010 C 
ATOM     25  C   LIG    1        3.703   7.483   4.910  0.00  0.00    +0.030 C 
ENDBRANCH  22  23
ENDBRANCH  21  22
ENDBRANCH  20  21
ENDBRANCH   1  20
TORSDOF 5
