REMARK  Name = ZINCpk00000xOJ0a.0
REMARK                            x       y       z     vdW  Elec       q    Type
REMARK                         _______ _______ _______ _____ _____    ______ ____
ROOT
ATOM      1  N   LIG    1        3.032   0.422  -0.023  0.00  0.00    -0.460 N 
ATOM      2  C   LIG    1        2.509  -0.348  -1.160  0.00  0.00    +0.270 C 
ENDROOT
BRANCH   1   3
ATOM      3  C   LIG    1        2.513   1.702  -0.012  0.00  0.00    +0.450 A 
ATOM      4  C   LIG    1        1.121   1.916   0.002  0.00  0.00    -0.290 A 
ATOM      5  C   LIG    1       -0.013   1.076   0.008  0.00  0.00    +0.310 A 
ATOM      6  N   LIG    1       -1.080   1.823   0.017  0.00  0.00    -0.240 NA
ATOM      7  N   LIG    1       -0.710   3.174   0.025  0.00  0.00    -0.380 N 
ATOM      8  C   LIG    1        0.651   3.244   0.012  0.00  0.00    +0.360 A 
ATOM      9  N   LIG    1        1.536   4.239   0.010  0.00  0.00    -0.560 NA
ATOM     10  C   LIG    1        2.827   3.989  -0.003  0.00  0.00    +0.580 A 
ATOM     11  N   LIG    1        3.315   2.761  -0.013  0.00  0.00    -0.590 NA
BRANCH   7  12
ATOM     12  C   LIG    1       -1.629   4.315   0.038  0.00  0.00    +0.360 C 
BRANCH  12  13
ATOM     13  C   LIG    1       -1.962   4.718  -1.400  0.00  0.00    +0.160 C 
BRANCH  13  14
ATOM     14  O   LIG    1       -2.858   5.831  -1.387  0.00  0.00    -0.570 OA
ATOM     15  H   LIG    1       -3.113   6.141  -2.267  0.00  0.00    +0.390 HD
ENDBRANCH  13  14
ENDBRANCH  12  13
ENDBRANCH   7  12
ENDBRANCH   1   3
BRANCH   1  16
ATOM     16  C   LIG    1        4.500   0.449  -0.036  0.00  0.00    +0.280 C 
BRANCH  16  21
ATOM     17  C   LIG    1        5.563  -3.136  -0.623  0.00  0.00    +0.110 A 
ATOM     18  C   LIG    1        6.006  -3.498   0.638  0.00  0.00    -0.060 A 
ATOM     19  C   LIG    1        5.962  -2.584   1.675  0.00  0.00    +0.050 A 
ATOM     20  C   LIG    1        5.480  -1.308   1.455  0.00  0.00    +0.010 A 
ATOM     21  C   LIG    1        5.030  -0.942   0.199  0.00  0.00    -0.070 A 
ATOM     22  C   LIG    1        5.073  -1.853  -0.844  0.00  0.00    +0.070 A 
BRANCH  17  24
ATOM     23  C   LIG    1        6.121  -5.333  -1.344  0.00  0.00    +0.240 C 
ATOM     24  O   LIG    1        5.606  -4.034  -1.644  0.00  0.00    -0.310 OA
ENDBRANCH  17  24
BRANCH  22  25
ATOM     25  O   LIG    1        4.636  -1.493  -2.080  0.00  0.00    -0.320 OA
ATOM     26  C   LIG    1        5.599  -0.925  -2.969  0.00  0.00    +0.220 C 
ENDBRANCH  22  25
ENDBRANCH  16  21
ENDBRANCH   1  16
TORSDOF 8
