REMARK  Name = ZINCqH0000031Fnu.0
REMARK                            x       y       z     vdW  Elec       q    Type
REMARK                         _______ _______ _______ _____ _____    ______ ____
ROOT
ATOM      1  C   LIG    1       -0.405  -2.537  -1.374  0.00  0.00    +0.500 C 
ATOM      2  N   LIG    1       -0.695  -3.683  -2.021  0.00  0.00    -0.620 N 
ATOM      3  H   LIG    1       -1.431  -4.238  -1.717  0.00  0.00    +0.420 HD
ATOM      4  O   LIG    1        0.453  -1.797  -1.807  0.00  0.00    -0.470 OA
ENDROOT
BRANCH   2   5
ATOM      5  C   LIG    1        0.059  -4.070  -3.122  0.00  0.00    +0.280 A 
ATOM      6  N   LIG    1       -0.130  -5.148  -3.818  0.00  0.00    -0.500 NA
ATOM      7  C   LIG    1        0.689  -5.356  -4.839  0.00  0.00    +0.120 A 
ATOM      8  C   LIG    1        1.625  -4.409  -5.029  0.00  0.00    -0.110 A 
ATOM      9  S   LIG    1        1.414  -3.169  -3.795  0.00  0.00    +0.220 S 
BRANCH   7  10
ATOM     10  C   LIG    1        0.580  -6.549  -5.713  0.00  0.00    +0.000 A 
ATOM     11  C   LIG    1        1.461  -6.718  -6.779  0.00  0.00    +0.060 A 
ATOM     12  C   LIG    1        1.360  -7.833  -7.586  0.00  0.00    +0.030 A 
ATOM     13  C   LIG    1        0.377  -8.778  -7.347  0.00  0.00    +0.070 A 
ATOM     14  C   LIG    1       -0.507  -8.612  -6.290  0.00  0.00    +0.070 A 
ATOM     15  F   LIG    1       -1.465  -9.537  -6.060  0.00  0.00    -0.130 F 
ATOM     16  F   LIG    1        0.279  -9.865  -8.143  0.00  0.00    -0.130 F 
ATOM     17  C   LIG    1       -0.409  -7.502  -5.474  0.00  0.00    +0.060 A 
ENDBRANCH   7  10
ENDBRANCH   2   5
BRANCH   1  18
ATOM     18  C   LIG    1       -1.147  -2.174  -0.114  0.00  0.00    +0.270 C 
BRANCH  18  21
ATOM     19  C   LIG    1        0.168   1.383   0.401  0.00  0.00    +0.100 C 
ATOM     20  C   LIG    1        0.096  -0.118   0.296  0.00  0.00    +0.520 C 
ATOM     21  N   LIG    1       -1.089  -0.723   0.086  0.00  0.00    -0.720 N 
ATOM     22  H   LIG    1       -1.905  -0.199   0.067  0.00  0.00    +0.410 HD
ATOM     23  O   LIG    1        1.106  -0.782   0.400  0.00  0.00    -0.520 OA
ENDBRANCH  18  21
BRANCH  18  24
ATOM     24  C   LIG    1       -0.499  -2.878   1.080  0.00  0.00    +0.000 C 
ATOM     25  C   LIG    1       -0.720  -4.402   0.977  0.00  0.00    +0.020 C 
ATOM     26  C   LIG    1       -0.944  -4.853   2.442  0.00  0.00    +0.020 C 
ATOM     27  C   LIG    1       -1.775  -3.688   3.034  0.00  0.00    +0.010 C 
ATOM     28  C   LIG    1       -1.170  -2.424   2.388  0.00  0.00    +0.030 C 
ENDBRANCH  18  24
ENDBRANCH   1  18
TORSDOF 5
