REMARK  Name = ZINCtV000002PSsD.0
REMARK                            x       y       z     vdW  Elec       q    Type
REMARK                         _______ _______ _______ _____ _____    ______ ____
ROOT
ATOM      1  O   LIG    1       -6.486   4.991   2.126  0.00  0.00    -0.230 OA
ENDROOT
BRANCH   1   2
ATOM      2  C   LIG    1       -7.127   5.471   1.034  0.00  0.00    +0.410 A 
ATOM      3  C   LIG    1       -8.303   6.250   1.173  0.00  0.00    -0.180 A 
ATOM      4  C   LIG    1       -8.912   6.715   0.010  0.00  0.00    +0.110 A 
ATOM      5  S   LIG    1      -10.337   7.651   0.428  0.00  0.00    +0.180 S 
ATOM      6  C   LIG    1      -10.082   7.413   2.152  0.00  0.00    -0.170 A 
ATOM      7  C   LIG    1      -11.000   7.975   3.220  0.00  0.00    +0.120 C 
ATOM      8  C   LIG    1      -10.179   8.652   4.316  0.00  0.00    +0.020 C 
ATOM      9  C   LIG    1       -9.845   7.627   5.396  0.00  0.00    +0.020 C 
ATOM     10  C   LIG    1       -9.658   6.252   4.758  0.00  0.00    +0.010 C 
ATOM     11  C   LIG    1       -8.496   6.300   3.772  0.00  0.00    +0.100 C 
ATOM     12  N   LIG    1       -8.375   6.407  -1.177  0.00  0.00    -0.510 NA
ATOM     13  C   LIG    1       -7.285   5.679  -1.255  0.00  0.00    +0.560 A 
ATOM     14  C   LIG    1       -8.996   6.678   2.385  0.00  0.00    -0.050 A 
ATOM     15  N   LIG    1       -6.668   5.218  -0.181  0.00  0.00    -0.570 NA
ENDBRANCH   1   2
BRANCH   1  19
ATOM     16  C   LIG    1       -2.944   2.950   1.553  0.00  0.00    +0.140 A 
ATOM     17  C   LIG    1       -4.110   2.251   1.828  0.00  0.00    -0.060 A 
ATOM     18  C   LIG    1       -5.294   2.934   2.026  0.00  0.00    +0.060 A 
ATOM     19  C   LIG    1       -5.319   4.318   1.938  0.00  0.00    +0.040 A 
ATOM     20  C   LIG    1       -4.154   5.017   1.656  0.00  0.00    +0.060 A 
ATOM     21  C   LIG    1       -2.969   4.334   1.464  0.00  0.00    +0.000 A 
BRANCH  16  22
ATOM     22  O   LIG    1       -1.777   2.277   1.364  0.00  0.00    -0.300 OA
BRANCH  22  23
ATOM     23  C   LIG    1       -1.825   0.853   1.470  0.00  0.00    +0.240 C 
BRANCH  23  27
ATOM     24  C   LIG    1        2.071  -0.766   0.797  0.00  0.00    +0.020 A 
ATOM     25  C   LIG    1        1.677  -0.422   2.077  0.00  0.00    +0.010 A 
ATOM     26  C   LIG    1        0.417   0.105   2.294  0.00  0.00    +0.030 A 
ATOM     27  C   LIG    1       -0.449   0.286   1.232  0.00  0.00    -0.100 A 
ATOM     28  C   LIG    1       -0.055  -0.059  -0.048  0.00  0.00    +0.030 A 
ATOM     29  C   LIG    1        1.204  -0.586  -0.265  0.00  0.00    +0.010 A 
ENDBRANCH  23  27
ENDBRANCH  22  23
ENDBRANCH  16  22
ENDBRANCH   1  19
TORSDOF 5
