REMARK  Name = ZINCpk00000xNEgu.0
REMARK                            x       y       z     vdW  Elec       q    Type
REMARK                         _______ _______ _______ _____ _____    ______ ____
ROOT
ATOM      1  C   LIG    1        3.566   6.388   0.884  0.00  0.00    +0.150 A 
ATOM      2  C   LIG    1        2.651   5.640   0.198  0.00  0.00    -0.090 A 
ATOM      3  N   LIG    1        1.672   6.455  -0.233  0.00  0.00    -0.170 NA
ATOM      4  N   LIG    1        1.922   7.662   0.138  0.00  0.00    -0.040 NA
ATOM      5  N   LIG    1        3.128   7.665   0.854  0.00  0.00    -0.320 N 
ENDROOT
BRANCH   5   6
ATOM      6  C   LIG    1        3.755   8.778   1.431  0.00  0.00    +0.140 A 
ATOM      7  C   LIG    1        4.269   8.697   2.718  0.00  0.00    +0.030 A 
ATOM      8  C   LIG    1        4.891   9.794   3.283  0.00  0.00    +0.070 A 
ATOM      9  C   LIG    1        4.993  10.975   2.572  0.00  0.00    +0.060 A 
ATOM     10  C   LIG    1        4.477  11.061   1.290  0.00  0.00    -0.020 A 
ATOM     11 CL   LIG    1        4.607  12.546   0.401  0.00  0.00    -0.040 Cl
ATOM     12  C   LIG    1        3.858   9.965   0.719  0.00  0.00    +0.060 A 
ENDBRANCH   5   6
BRANCH   1  14
ATOM     13  C   LIG    1        5.950   5.815   0.512  0.00  0.00    +0.070 C 
ATOM     14  C   LIG    1        4.824   5.885   1.546  0.00  0.00    +0.140 C 
ENDBRANCH   1  14
BRANCH   2  15
ATOM     15  C   LIG    1        2.722   4.185  -0.027  0.00  0.00    +0.570 C 
ATOM     16  O   LIG    1        3.659   3.547   0.411  0.00  0.00    -0.490 OA
BRANCH  15  17
ATOM     17  O   LIG    1        1.748   3.562  -0.720  0.00  0.00    -0.310 OA
BRANCH  17  18
ATOM     18  C   LIG    1        1.884   2.128  -0.903  0.00  0.00    +0.200 C 
ATOM     19  C   LIG    1        0.494   1.490  -0.995  0.00  0.00    +0.090 C 
ATOM     20  C   LIG    1        0.661  -0.003  -1.299  0.00  0.00    +0.110 C 
ATOM     21  C   LIG    1        1.483  -0.163  -2.551  0.00  0.00    +0.520 C 
ATOM     22  N   LIG    1        2.403   0.749  -2.901  0.00  0.00    -0.670 N 
ATOM     23  H   LIG    1        2.917   0.604  -3.711  0.00  0.00    +0.420 HD
ATOM     24  O   LIG    1        1.310  -1.134  -3.255  0.00  0.00    -0.490 OA
ATOM     25  C   LIG    1        2.640   1.852  -2.176  0.00  0.00    +0.510 C 
ATOM     26  O   LIG    1        3.478   2.642  -2.552  0.00  0.00    -0.480 OA
ENDBRANCH  17  18
ENDBRANCH  15  17
ENDBRANCH   2  15
TORSDOF 5
