REMARK  Name = ZINCqH0000006k4t.0
REMARK                            x       y       z     vdW  Elec       q    Type
REMARK                         _______ _______ _______ _____ _____    ______ ____
ROOT
ATOM      1  N   LIG    1        7.827   2.856  -1.011  0.00  0.00    -0.740 N 
ATOM      2  H   LIG    1        7.441   2.684  -1.884  0.00  0.00    +0.400 HD
ATOM      3  C   LIG    1        7.307   2.265   0.084  0.00  0.00    +0.710 C 
ATOM      4  N   LIG    1        6.322   1.355  -0.046  0.00  0.00    -0.630 N 
ATOM      5  C   LIG    1        5.715   1.066  -1.353  0.00  0.00    +0.310 C 
ATOM      6  C   LIG    1        4.223   0.966  -1.194  0.00  0.00    -0.050 C 
ATOM      7  C   LIG    1        3.622   0.919  -0.028  0.00  0.00    -0.020 C 
ATOM      8  C   LIG    1        4.331   0.965   1.292  0.00  0.00    +0.060 C 
ATOM      9  C   LIG    1        5.810   0.609   1.117  0.00  0.00    +0.300 C 
ATOM     10  O   LIG    1        7.728   2.553   1.188  0.00  0.00    -0.580 OA
ENDROOT
BRANCH   7  11
ATOM     11  C   LIG    1        2.150   0.808  -0.016  0.00  0.00    -0.150 A 
ATOM     12  C   LIG    1        1.259   1.833  -0.003  0.00  0.00    +0.100 A 
ATOM     13  N   LIG    1       -0.012   1.338   0.006  0.00  0.00    -0.590 N 
ATOM     14  H   LIG    1       -0.818   1.878   0.013  0.00  0.00    +0.410 HD
ATOM     15  C   LIG    1        0.013  -0.040  -0.001  0.00  0.00    +0.090 A 
ATOM     16  C   LIG    1       -0.983  -1.011   0.002  0.00  0.00    -0.010 A 
ATOM     17  C   LIG    1       -0.641  -2.346  -0.009  0.00  0.00    +0.030 A 
ATOM     18  C   LIG    1        0.690  -2.736  -0.023  0.00  0.00    -0.020 A 
ATOM     19  C   LIG    1        1.692  -1.790  -0.026  0.00  0.00    +0.050 A 
ATOM     20  C   LIG    1        1.620   3.296   0.001  0.00  0.00    +0.140 C 
ATOM     21  C   LIG    1        1.362  -0.436  -0.016  0.00  0.00    -0.090 A 
ENDBRANCH   7  11
BRANCH   1  22
ATOM     22  C   LIG    1        8.976   3.756  -0.881  0.00  0.00    +0.310 C 
BRANCH  22  23
ATOM     23  C   LIG    1       10.268   2.938  -0.888  0.00  0.00    -0.050 C 
ATOM     24  C   LIG    1       10.161   1.449  -1.225  0.00  0.00    +0.020 C 
ATOM     25  C   LIG    1       10.448   1.891   0.212  0.00  0.00    +0.010 C 
ENDBRANCH  22  23
BRANCH  22  26
ATOM     26  C   LIG    1        8.987   4.739  -2.054  0.00  0.00    +0.180 C 
BRANCH  26  28
ATOM     27  C   LIG    1        9.232   4.854  -4.435  0.00  0.00    +0.200 C 
ATOM     28  O   LIG    1        9.203   4.024  -3.272  0.00  0.00    -0.380 OA
ENDBRANCH  26  28
ENDBRANCH  22  26
ENDBRANCH   1  22
TORSDOF 5
