REMARK  Name = ZINCwl0000000oQI.1
REMARK                            x       y       z     vdW  Elec       q    Type
REMARK                         _______ _______ _______ _____ _____    ______ ____
ROOT
ATOM      1  O   LIG    1        0.000   5.984   2.166  0.00  0.00    -0.500 OA
ATOM      2  C   LIG    1       -0.049   5.171   3.064  0.00  0.00    +0.540 C 
ATOM      3  N   LIG    1       -0.094   3.854   2.778  0.00  0.00    -0.720 N 
ATOM      4  H   LIG    1       -0.133   3.203   3.497  0.00  0.00    +0.410 HD
ENDROOT
BRANCH   3   5
ATOM      5  C   LIG    1       -0.084   3.406   1.384  0.00  0.00    +0.260 C 
ATOM      6  C   LIG    1        1.365   3.268   0.864  0.00  0.00    +0.060 C 
ATOM      7  C   LIG    1        1.363   1.994  -0.000  0.00  0.00    +0.250 C 
ATOM      8  N   LIG    1       -0.018   1.465   0.010  0.00  0.00    -0.390 N 
ATOM      9  H   LIG    1       -0.529   1.811  -0.788  0.00  0.00    +0.430 HD
ATOM     10  C   LIG    1       -0.632   1.962   1.268  0.00  0.00    +0.280 C 
BRANCH   8  11
ATOM     11  C   LIG    1        0.002  -0.004   0.002  0.00  0.00    +0.330 C 
BRANCH  11  12
ATOM     12  C   LIG    1        0.565  -0.492  -1.308  0.00  0.00    -0.160 A 
ATOM     13  C   LIG    1       -0.279  -0.733  -2.376  0.00  0.00    +0.040 A 
ATOM     14  C   LIG    1        0.237  -1.177  -3.579  0.00  0.00    +0.030 A 
ATOM     15  C   LIG    1        1.597  -1.387  -3.712  0.00  0.00    +0.060 A 
ATOM     16  C   LIG    1        2.441  -1.150  -2.643  0.00  0.00    +0.030 A 
ATOM     17  C   LIG    1        1.924  -0.703  -1.441  0.00  0.00    +0.040 A 
ENDBRANCH  11  12
ENDBRANCH   8  11
ENDBRANCH   3   5
BRANCH   2  18
ATOM     18  C   LIG    1       -0.059   5.631   4.498  0.00  0.00    +0.110 C 
BRANCH  18  19
ATOM     19  S   LIG    1        0.010   7.443   4.552  0.00  0.00    +0.040 S 
BRANCH  19  20
ATOM     20  C   LIG    1       -0.011   7.790   6.279  0.00  0.00    +0.150 A 
ATOM     21  C   LIG    1        0.032   9.110   6.719  0.00  0.00    -0.020 A 
ATOM     22  C   LIG    1        0.015   9.367   8.078  0.00  0.00    +0.210 A 
ATOM     23  C   LIG    1       -0.044   8.292   8.955  0.00  0.00    -0.740 A 
ATOM     24  C   LIG    1       -0.083   7.008   8.450  0.00  0.00    +0.400 A 
ATOM     25  N   LIG    1       -0.072   6.792   7.149  0.00  0.00    -0.510 NA
BRANCH  23  26
ATOM     26  S   LIG    1       -0.068   8.565  10.696  0.00  0.00    +2.700 S 
ATOM     27  O   LIG    1        0.522   9.840  10.910  0.00  0.00    -0.940 OA
ATOM     28  O   LIG    1        0.420   7.373  11.296  0.00  0.00    -0.940 OA
BRANCH  26  29
ATOM     29  N   LIG    1       -1.655   8.702  11.149  0.00  0.00    -1.000 NA
ATOM     30  C   LIG    1       -2.327  10.010  11.167  0.00  0.00    +0.270 C 
ATOM     31  C   LIG    1       -3.647   9.882  10.390  0.00  0.00    +0.210 C 
ATOM     32  O   LIG    1       -4.392   8.778  10.911  0.00  0.00    -0.370 OA
ATOM     33  C   LIG    1       -3.745   7.512  10.760  0.00  0.00    +0.210 C 
ATOM     34  C   LIG    1       -2.432   7.519  11.550  0.00  0.00    +0.270 C 
ENDBRANCH  26  29
ENDBRANCH  23  26
ENDBRANCH  19  20
ENDBRANCH  18  19
ENDBRANCH   2  18
TORSDOF 8
