REMARK  Name = ZINCwl0000000oQI.0
REMARK                            x       y       z     vdW  Elec       q    Type
REMARK                         _______ _______ _______ _____ _____    ______ ____
ROOT
ATOM      1  O   LIG    1       -4.827   2.250  -1.126  0.00  0.00    -0.500 OA
ATOM      2  C   LIG    1       -4.416   1.219  -1.614  0.00  0.00    +0.540 C 
ATOM      3  N   LIG    1       -3.123   0.869  -1.462  0.00  0.00    -0.730 N 
ATOM      4  H   LIG    1       -2.795   0.044  -1.852  0.00  0.00    +0.410 HD
ENDROOT
BRANCH   3   5
ATOM      5  C   LIG    1       -2.214   1.735  -0.707  0.00  0.00    +0.260 C 
ATOM      6  C   LIG    1       -2.230   1.356   0.792  0.00  0.00    +0.060 C 
ATOM      7  C   LIG    1       -0.741   1.501   1.203  0.00  0.00    +0.280 C 
ATOM      8  N   LIG    1       -0.012   1.005   0.008  0.00  0.00    -0.390 N 
ATOM      9  H   LIG    1        0.002  -0.004   0.002  0.00  0.00    +0.430 HD
ATOM     10  C   LIG    1       -0.761   1.511  -1.163  0.00  0.00    +0.270 C 
BRANCH   8  11
ATOM     11  C   LIG    1        1.360   1.531  -0.003  0.00  0.00    +0.330 C 
BRANCH  11  12
ATOM     12  C   LIG    1        2.138   0.928   1.139  0.00  0.00    -0.160 A 
ATOM     13  C   LIG    1        2.158   1.558   2.370  0.00  0.00    +0.040 A 
ATOM     14  C   LIG    1        2.867   1.003   3.418  0.00  0.00    +0.030 A 
ATOM     15  C   LIG    1        3.565  -0.177   3.233  0.00  0.00    +0.060 A 
ATOM     16  C   LIG    1        3.549  -0.803   2.001  0.00  0.00    +0.030 A 
ATOM     17  C   LIG    1        2.835  -0.251   0.954  0.00  0.00    +0.040 A 
ENDBRANCH  11  12
ENDBRANCH   8  11
ENDBRANCH   3   5
BRANCH   2  18
ATOM     18  C   LIG    1       -5.351   0.328  -2.391  0.00  0.00    +0.110 C 
BRANCH  18  19
ATOM     19  S   LIG    1       -7.008   1.066  -2.416  0.00  0.00    +0.040 S 
BRANCH  19  20
ATOM     20  C   LIG    1       -7.945  -0.096  -3.352  0.00  0.00    +0.150 A 
ATOM     21  C   LIG    1       -9.297   0.139  -3.588  0.00  0.00    -0.020 A 
ATOM     22  C   LIG    1      -10.020  -0.782  -4.324  0.00  0.00    +0.210 A 
ATOM     23  C   LIG    1       -9.367  -1.910  -4.801  0.00  0.00    -0.740 A 
ATOM     24  C   LIG    1       -8.023  -2.079  -4.530  0.00  0.00    +0.400 A 
ATOM     25  N   LIG    1       -7.356  -1.182  -3.830  0.00  0.00    -0.510 NA
BRANCH  23  26
ATOM     26  S   LIG    1      -10.242  -3.114  -5.744  0.00  0.00    +2.700 S 
ATOM     27  O   LIG    1      -11.613  -2.978  -5.394  0.00  0.00    -0.940 OA
ATOM     28  O   LIG    1       -9.522  -4.332  -5.608  0.00  0.00    -0.940 OA
BRANCH  26  29
ATOM     29  N   LIG    1      -10.120  -2.674  -7.335  0.00  0.00    -1.000 NA
ATOM     30  C   LIG    1      -11.123  -1.795  -7.957  0.00  0.00    +0.270 C 
ATOM     31  C   LIG    1      -10.382  -0.651  -8.668  0.00  0.00    +0.210 C 
ATOM     32  O   LIG    1       -9.394  -1.204  -9.542  0.00  0.00    -0.370 OA
ATOM     33  C   LIG    1       -8.374  -1.950  -8.874  0.00  0.00    +0.210 C 
ATOM     34  C   LIG    1       -9.009  -3.156  -8.172  0.00  0.00    +0.270 C 
ENDBRANCH  26  29
ENDBRANCH  23  26
ENDBRANCH  19  20
ENDBRANCH  18  19
ENDBRANCH   2  18
TORSDOF 8
