REMARK  Name = ZINCrH00000tj17t.0
REMARK                            x       y       z     vdW  Elec       q    Type
REMARK                         _______ _______ _______ _____ _____    ______ ____
ROOT
ATOM      1  C   LIG    1       -2.180  -4.327  -0.318  0.00  0.00    +0.040 C 
ENDROOT
BRANCH   1   2
ATOM      2  C   LIG    1       -2.478  -2.830  -0.206  0.00  0.00    +0.060 C 
BRANCH   2   5
ATOM      3  N   LIG    1       -1.201  -0.723   0.009  0.00  0.00    -0.670 N 
ATOM      4  H   LIG    1       -2.045  -0.255   0.100  0.00  0.00    +0.420 HD
ATOM      5  C   LIG    1       -1.183  -2.066  -0.100  0.00  0.00    +0.510 C 
ATOM      6  O   LIG    1       -0.126  -2.660  -0.113  0.00  0.00    -0.520 OA
BRANCH   3  11
ATOM      7  C   LIG    1        3.672   2.191  -0.069  0.00  0.00    +0.100 C 
ATOM      8  C   LIG    1        2.378   1.420  -0.047  0.00  0.00    -0.090 A 
ATOM      9  C   LIG    1        2.306   0.176  -0.646  0.00  0.00    +0.020 A 
ATOM     10  C   LIG    1        1.122  -0.536  -0.629  0.00  0.00    +0.040 A 
ATOM     11  C   LIG    1        0.001  -0.003  -0.009  0.00  0.00    +0.120 A 
ATOM     12  C   LIG    1        0.074   1.250   0.595  0.00  0.00    +0.080 A 
ATOM     13  C   LIG    1        1.265   1.958   0.573  0.00  0.00    +0.010 A 
BRANCH  12  14
ATOM     14  O   LIG    1       -1.022   1.780   1.200  0.00  0.00    -0.500 OA
ATOM     15  H   LIG    1       -1.104   1.553   2.136  0.00  0.00    +0.390 HD
ENDBRANCH  12  14
ENDBRANCH   3  11
ENDBRANCH   2   5
ENDBRANCH   1   2
BRANCH   1  16
ATOM     16  C   LIG    1       -3.494  -5.102  -0.425  0.00  0.00    +0.260 C 
BRANCH  16  17
ATOM     17  N   LIG    1       -3.208  -6.535  -0.533  0.00  0.00    -0.730 N 
ATOM     18  H   LIG    1       -2.290  -6.848  -0.527  0.00  0.00    +0.400 HD
ATOM     19  C   LIG    1       -4.221  -7.418  -0.639  0.00  0.00    +0.520 C 
ATOM     20  O   LIG    1       -5.369  -7.027  -0.645  0.00  0.00    -0.540 OA
BRANCH  19  21
ATOM     21  C   LIG    1       -3.927  -8.892  -0.749  0.00  0.00    -0.070 C 
ATOM     22  C   LIG    1       -3.162  -9.354   0.493  0.00  0.00    +0.040 C 
ATOM     23  C   LIG    1       -2.863 -10.850   0.381  0.00  0.00    -0.010 C 
ATOM     24  C   LIG    1       -2.015 -11.109  -0.866  0.00  0.00    +0.020 C 
ATOM     25  C   LIG    1       -2.780 -10.647  -2.108  0.00  0.00    -0.010 C 
ATOM     26  C   LIG    1       -4.094 -11.423  -2.216  0.00  0.00    +0.010 C 
ATOM     27  C   LIG    1       -4.943 -11.164  -0.969  0.00  0.00    -0.020 C 
ATOM     28  C   LIG    1       -4.178 -11.626   0.273  0.00  0.00    +0.010 C 
ATOM     29  C   LIG    1       -3.079  -9.151  -1.996  0.00  0.00    +0.040 C 
ATOM     30  C   LIG    1       -5.241  -9.668  -0.857  0.00  0.00    +0.050 C 
ENDBRANCH  19  21
ENDBRANCH  16  17
ENDBRANCH   1  16
TORSDOF 7
