REMARK  Name = ZINCvU0000000Crb.0
REMARK                            x       y       z     vdW  Elec       q    Type
REMARK                         _______ _______ _______ _____ _____    ______ ____
ROOT
ATOM      1  N   LIG    1       -2.226   8.404   6.830  0.00  0.00    -0.410 N 
ATOM      2  C   LIG    1       -2.247   7.266   6.071  0.00  0.00    +0.160 A 
ATOM      3  N   LIG    1       -3.122   6.451   6.616  0.00  0.00    -0.290 NA
ATOM      4  N   LIG    1       -3.638   6.991   7.662  0.00  0.00    -0.260 NA
ATOM      5  C   LIG    1       -3.134   8.189   7.845  0.00  0.00    +0.230 A 
ENDROOT
BRANCH   1  12
ATOM      6  C   LIG    1        0.343   8.521   8.051  0.00  0.00    +0.100 C 
ATOM      7  C   LIG    1       -0.185   9.646   7.198  0.00  0.00    -0.060 A 
ATOM      8  C   LIG    1        0.583  10.775   6.990  0.00  0.00    +0.030 A 
ATOM      9  C   LIG    1        0.099  11.807   6.207  0.00  0.00    +0.050 A 
ATOM     10  C   LIG    1       -1.155  11.713   5.632  0.00  0.00    +0.030 A 
ATOM     11  C   LIG    1       -1.925  10.584   5.832  0.00  0.00    +0.040 A 
ATOM     12  C   LIG    1       -1.444   9.549   6.621  0.00  0.00    +0.090 A 
ENDBRANCH   1  12
BRANCH   5  13
ATOM     13  C   LIG    1       -3.476   9.130   8.932  0.00  0.00    -0.020 A 
ATOM     14  C   LIG    1       -2.652  10.226   9.195  0.00  0.00    +0.050 A 
ATOM     15  C   LIG    1       -2.979  11.103  10.208  0.00  0.00    +0.030 A 
ATOM     16  C   LIG    1       -4.116  10.893  10.970  0.00  0.00    -0.020 A 
ATOM     17  C   LIG    1       -4.934   9.804  10.717  0.00  0.00    +0.030 A 
ATOM     18 CL   LIG    1       -4.518  11.998  12.247  0.00  0.00    -0.060 Cl
ATOM     19  C   LIG    1       -4.620   8.923   9.704  0.00  0.00    +0.090 A 
ENDBRANCH   5  13
BRANCH   2  20
ATOM     20  S   LIG    1       -1.288   6.956   4.626  0.00  0.00    +0.100 S 
BRANCH  20  21
ATOM     21  C   LIG    1       -1.867   5.291   4.216  0.00  0.00    +0.110 C 
BRANCH  21  22
ATOM     22  C   LIG    1       -1.161   4.805   2.976  0.00  0.00    +0.540 C 
ATOM     23  N   LIG    1       -1.435   3.582   2.481  0.00  0.00    -0.720 N 
ATOM     24  H   LIG    1       -2.087   3.014   2.922  0.00  0.00    +0.400 HD
ATOM     25  O   LIG    1       -0.347   5.514   2.424  0.00  0.00    -0.520 OA
BRANCH  23  26
ATOM     26  C   LIG    1       -0.750   3.109   1.275  0.00  0.00    +0.240 C 
ATOM     27  C   LIG    1       -1.490   3.616   0.036  0.00  0.00    +0.000 C 
ATOM     28  C   LIG    1       -0.773   3.123  -1.223  0.00  0.00    +0.010 C 
ATOM     29  C   LIG    1       -0.753   1.593  -1.232  0.00  0.00    +0.010 C 
ATOM     30  C   LIG    1       -0.013   1.086   0.008  0.00  0.00    +0.030 C 
ATOM     31  C   LIG    1       -0.729   1.579   1.267  0.00  0.00    -0.020 C 
ATOM     32  C   LIG    1        0.011   1.072   2.506  0.00  0.00    +0.030 C 
ENDBRANCH  23  26
ENDBRANCH  21  22
ENDBRANCH  20  21
ENDBRANCH   2  20
TORSDOF 6
