REMARK  Name = ZINCpe000000Ywc7.0
REMARK                            x       y       z     vdW  Elec       q    Type
REMARK                         _______ _______ _______ _____ _____    ______ ____
ROOT
ATOM      1  N   LIG    1       -0.137   1.457   0.065  0.00  0.00    -0.530 NA
ATOM      2  C   LIG    1       -1.133   1.933  -0.904  0.00  0.00    +0.170 C 
ATOM      3  C   LIG    1       -1.381   3.429  -0.684  0.00  0.00    +0.300 C 
ATOM      4  N   LIG    1       -0.087   4.128  -0.728  0.00  0.00    -1.010 NA
ATOM      5  C   LIG    1        1.006   3.622   0.117  0.00  0.00    +0.300 C 
ATOM      6  C   LIG    1        1.159   2.119  -0.135  0.00  0.00    +0.170 C 
ENDROOT
BRANCH   4   7
ATOM      7  S   LIG    1        0.133   5.449  -1.702  0.00  0.00    +2.800 S 
ATOM      8  O   LIG    1        1.205   6.190  -1.137  0.00  0.00    -0.970 OA
ATOM      9  O   LIG    1       -1.158   5.999  -1.929  0.00  0.00    -0.970 OA
BRANCH   7  10
ATOM     10  N   LIG    1        0.669   4.894  -3.167  0.00  0.00    -1.020 NA
ATOM     11  C   LIG    1        2.076   4.704  -3.548  0.00  0.00    +0.250 C 
ATOM     12  C   LIG    1        2.091   4.197  -5.006  0.00  0.00    +0.030 C 
ATOM     13  C   LIG    1        0.721   4.676  -5.553  0.00  0.00    +0.030 C 
ATOM     14  C   LIG    1       -0.185   4.514  -4.307  0.00  0.00    +0.260 C 
ENDBRANCH   7  10
ENDBRANCH   4   7
BRANCH   1  15
ATOM     15  C   LIG    1        0.002  -0.004   0.002  0.00  0.00    +0.200 C 
BRANCH  15  16
ATOM     16  C   LIG    1        0.631  -0.513   1.301  0.00  0.00    +0.200 C 
BRANCH  16  17
ATOM     17  O   LIG    1       -0.255  -0.255   2.392  0.00  0.00    -0.290 OA
BRANCH  17  21
ATOM     18  C   LIG    1        0.993  -1.449   6.142  0.00  0.00    -0.070 A 
ATOM     19  C   LIG    1       -0.246  -0.823   5.982  0.00  0.00    +0.110 A 
ATOM     20  C   LIG    1       -0.659  -0.427   4.729  0.00  0.00    -0.010 A 
ATOM     21  C   LIG    1        0.155  -0.648   3.625  0.00  0.00    +0.170 A 
ATOM     22  C   LIG    1        1.386  -1.274   3.779  0.00  0.00    -0.080 A 
ATOM     23  C   LIG    1        1.809  -1.669   5.029  0.00  0.00    +0.100 A 
BRANCH  18  25
ATOM     24  N   LIG    1        1.769  -2.192   8.474  0.00  0.00    -0.420 NA
ATOM     25  C   LIG    1        1.426  -1.863   7.442  0.00  0.00    +0.260 C 
ENDBRANCH  18  25
ENDBRANCH  17  21
ENDBRANCH  16  17
ENDBRANCH  15  16
ENDBRANCH   1  15
TORSDOF 7
