REMARK  Name = ZINCrH00000No4ND.0
REMARK                            x       y       z     vdW  Elec       q    Type
REMARK                         _______ _______ _______ _____ _____    ______ ____
ROOT
ATOM      1  N   LIG    1       -1.927   3.644   2.350  0.00  0.00    -0.680 N 
ATOM      2  H   LIG    1       -2.028   3.059   3.117  0.00  0.00    +0.410 HD
ATOM      3  C   LIG    1       -1.294   3.203   1.245  0.00  0.00    +0.700 C 
ATOM      4  N   LIG    1       -0.701   1.992   1.246  0.00  0.00    -0.730 N 
ATOM      5  H   LIG    1       -0.730   1.439   2.042  0.00  0.00    +0.390 HD
ATOM      6  O   LIG    1       -1.257   3.896   0.247  0.00  0.00    -0.560 OA
ENDROOT
BRANCH   1  16
ATOM      7  C   LIG    1       -1.799   8.277   0.734  0.00  0.00    +0.100 C 
ATOM      8  C   LIG    1       -2.407   7.222   1.622  0.00  0.00    -0.050 A 
ATOM      9  C   LIG    1       -3.441   7.554   2.443  0.00  0.00    -0.090 A 
ATOM     10  C   LIG    1       -4.018   6.581   3.277  0.00  0.00    +0.150 A 
ATOM     11  N   LIG    1       -5.034   6.886   4.091  0.00  0.00    -0.470 NA
ATOM     12  C   LIG    1       -5.577   5.983   4.871  0.00  0.00    +0.290 A 
ATOM     13  C   LIG    1       -5.126   4.667   4.892  0.00  0.00    -0.040 A 
ATOM     14  C   LIG    1       -4.090   4.288   4.084  0.00  0.00    +0.070 A 
ATOM     15  C   LIG    1       -3.514   5.257   3.246  0.00  0.00    -0.120 A 
ATOM     16  C   LIG    1       -2.439   4.941   2.389  0.00  0.00    +0.180 A 
ATOM     17  C   LIG    1       -3.966   8.966   2.458  0.00  0.00    +0.110 C 
ATOM     18  C   LIG    1       -1.901   5.926   1.588  0.00  0.00    +0.020 A 
ENDBRANCH   1  16
BRANCH   4  19
ATOM     19  C   LIG    1       -0.012   1.513   0.045  0.00  0.00    +0.250 C 
ATOM     20  C   LIG    1        1.420   2.052   0.029  0.00  0.00    +0.020 C 
ATOM     21  C   LIG    1        2.163   1.562   1.274  0.00  0.00    +0.050 C 
ATOM     22  C   LIG    1        2.192   0.033   1.282  0.00  0.00    +0.080 C 
ATOM     23  C   LIG    1        2.936  -0.458   2.526  0.00  0.00    +0.200 C 
ATOM     24  O   LIG    1        3.056  -1.883   2.470  0.00  0.00    -0.380 OA
ATOM     25  C   LIG    1        3.733  -2.354   1.300  0.00  0.00    +0.180 C 
ATOM     26  C   LIG    1        2.988  -1.863   0.056  0.00  0.00    +0.190 C 
ATOM     27  C   LIG    1        0.761  -0.507   1.296  0.00  0.00    +0.010 C 
ATOM     28  O   LIG    1        2.868  -0.438   0.112  0.00  0.00    -0.360 OA
ATOM     29  C   LIG    1        0.019  -0.017   0.052  0.00  0.00    +0.040 C 
ENDBRANCH   4  19
TORSDOF 2
