REMARK  Name = ZINCrD000000g0Tk.0
REMARK                            x       y       z     vdW  Elec       q    Type
REMARK                         _______ _______ _______ _____ _____    ______ ____
ROOT
ATOM      1  C   LIG    1       -1.252  -2.109  -0.085  0.00  0.00    +0.010 A 
ATOM      2  N   LIG    1       -0.224  -2.940  -0.140  0.00  0.00    -0.230 NA
ATOM      3  N   LIG    1       -0.628  -4.157  -0.013  0.00  0.00    -0.220 N 
ATOM      4  C   LIG    1       -1.971  -4.182   0.136  0.00  0.00    +0.020 A 
ATOM      5  C   LIG    1       -2.881  -5.369   0.320  0.00  0.00    +0.120 C 
ATOM      6  C   LIG    1       -4.225  -4.864   0.868  0.00  0.00    +0.030 C 
ATOM      7  C   LIG    1       -4.726  -3.706   0.002  0.00  0.00    +0.030 C 
ATOM      8  C   LIG    1       -3.839  -2.474   0.230  0.00  0.00    +0.120 C 
ATOM      9  C   LIG    1       -2.402  -2.897   0.099  0.00  0.00    -0.130 A 
ENDROOT
BRANCH   3  10
ATOM     10  C   LIG    1        0.201  -5.286  -0.027  0.00  0.00    +0.110 A 
ATOM     11  C   LIG    1        1.416  -5.265   0.645  0.00  0.00    +0.090 A 
ATOM     12  C   LIG    1        2.231  -6.380   0.633  0.00  0.00    +0.010 A 
ATOM     13  C   LIG    1        1.841  -7.516  -0.056  0.00  0.00    +0.120 A 
ATOM     14  C   LIG    1        0.631  -7.538  -0.731  0.00  0.00    +0.010 A 
ATOM     15  F   LIG    1        2.641  -8.604  -0.070  0.00  0.00    -0.130 F 
ATOM     16  C   LIG    1       -0.188  -6.426  -0.718  0.00  0.00    +0.070 A 
ENDBRANCH   3  10
BRANCH   1  17
ATOM     17  C   LIG    1       -1.202  -0.638  -0.189  0.00  0.00    +0.560 C 
ATOM     18  O   LIG    1       -2.227   0.011  -0.122  0.00  0.00    -0.490 OA
BRANCH  17  19
ATOM     19  O   LIG    1       -0.019  -0.015  -0.360  0.00  0.00    -0.320 OA
BRANCH  19  20
ATOM     20  C   LIG    1       -0.045   1.433  -0.455  0.00  0.00    +0.310 C 
BRANCH  20  21
ATOM     21  C   LIG    1        1.358   1.950  -0.642  0.00  0.00    +0.470 C 
ATOM     22  O   LIG    1        2.285   1.176  -0.691  0.00  0.00    -0.480 OA
BRANCH  21  23
ATOM     23  O   LIG    1        1.579   3.269  -0.755  0.00  0.00    -0.350 OA
BRANCH  23  25
ATOM     24  C   LIG    1        3.520   3.072  -2.212  0.00  0.00    +0.020 C 
ATOM     25  C   LIG    1        2.955   3.694  -0.933  0.00  0.00    +0.120 C 
ATOM     26  C   LIG    1        3.789   3.239   0.266  0.00  0.00    +0.020 C 
ATOM     27  C   LIG    1        3.008   5.219  -1.042  0.00  0.00    +0.080 C 
ENDBRANCH  23  25
ENDBRANCH  21  23
ENDBRANCH  20  21
ENDBRANCH  19  20
ENDBRANCH  17  19
ENDBRANCH   1  17
TORSDOF 7
