REMARK  Name = ZINCtV00000L6jqC.0
REMARK                            x       y       z     vdW  Elec       q    Type
REMARK                         _______ _______ _______ _____ _____    ______ ____
ROOT
ATOM      1  C   LIG    1       -0.924   5.278   0.015  0.00  0.00    +0.190 C 
ATOM      2  C   LIG    1       -1.367   5.830  -1.308  0.00  0.00    -0.090 C 
ATOM      3  C   LIG    1       -1.309   5.076  -2.438  0.00  0.00    +0.160 C 
ATOM      4  N   LIG    1       -0.848   3.781  -2.380  0.00  0.00    -0.640 N 
ATOM      5  H   LIG    1       -0.538   3.343  -3.188  0.00  0.00    +0.420 HD
ATOM      6  C   LIG    1       -0.824   3.104  -1.190  0.00  0.00    +0.220 C 
ATOM      7  C   LIG    1       -0.761   1.597  -1.225  0.00  0.00    +0.090 C 
ATOM      8  C   LIG    1       -0.013   1.086   0.008  0.00  0.00    +0.060 C 
ATOM      9  C   LIG    1       -0.738   1.584   1.262  0.00  0.00    +0.030 C 
ATOM     10  C   LIG    1       -0.834   3.085   1.208  0.00  0.00    +0.400 C 
ATOM     11  O   LIG    1       -0.886   3.715   2.246  0.00  0.00    -0.460 OA
ATOM     12  C   LIG    1       -0.860   3.772  -0.018  0.00  0.00    -0.260 C 
ENDROOT
BRANCH   1  17
ATOM     13  C   LIG    1        4.309   7.370   1.290  0.00  0.00    +0.090 C 
ATOM     14  C   LIG    1        2.944   6.825   0.957  0.00  0.00    -0.090 A 
ATOM     15  C   LIG    1        1.877   7.072   1.800  0.00  0.00    +0.000 A 
ATOM     16  C   LIG    1        0.625   6.571   1.495  0.00  0.00    +0.030 A 
ATOM     17  C   LIG    1        0.440   5.824   0.347  0.00  0.00    -0.080 A 
ATOM     18  C   LIG    1        1.508   5.573  -0.493  0.00  0.00    +0.010 A 
ATOM     19  C   LIG    1        2.760   6.077  -0.191  0.00  0.00    +0.000 A 
ENDBRANCH   1  17
BRANCH   2  20
ATOM     20  C   LIG    1       -1.857   7.173  -1.383  0.00  0.00    +0.260 C 
ATOM     21  N   LIG    1       -2.246   8.239  -1.442  0.00  0.00    -0.400 NA
ENDBRANCH   2  20
BRANCH   3  22
ATOM     22  S   LIG    1       -1.826   5.757  -3.979  0.00  0.00    -0.030 S 
BRANCH  22  23
ATOM     23  C   LIG    1       -1.530   4.339  -5.065  0.00  0.00    +0.120 C 
BRANCH  23  24
ATOM     24  C   LIG    1       -1.912   4.700  -6.477  0.00  0.00    -0.080 A 
ATOM     25  C   LIG    1       -3.200   4.473  -6.924  0.00  0.00    +0.050 A 
ATOM     26  C   LIG    1       -3.553   4.808  -8.218  0.00  0.00    +0.030 A 
ATOM     27  C   LIG    1       -2.613   5.361  -9.069  0.00  0.00    -0.020 A 
ATOM     28  C   LIG    1       -1.322   5.583  -8.623  0.00  0.00    +0.030 A 
ATOM     29 CL   LIG    1       -3.052   5.775 -10.697  0.00  0.00    -0.060 Cl
ATOM     30  C   LIG    1       -0.973   5.253  -7.327  0.00  0.00    +0.050 A 
ENDBRANCH  23  24
ENDBRANCH  22  23
ENDBRANCH   3  22
TORSDOF 5
