REMARK  Name = ZINCrg000013UAlw.0
REMARK                            x       y       z     vdW  Elec       q    Type
REMARK                         _______ _______ _______ _____ _____    ______ ____
ROOT
ATOM      1  C   LIG    1       -0.399   1.120   0.043  0.00  0.00    +0.520 C 
ATOM      2  N   LIG    1        0.585   2.040  -0.004  0.00  0.00    -0.610 N 
ATOM      3  C   LIG    1        0.288   3.474   0.135  0.00  0.00    +0.250 C 
ATOM      4  C   LIG    1        1.223   4.056   1.207  0.00  0.00    +0.230 C 
ATOM      5  O   LIG    1        2.574   3.716   0.884  0.00  0.00    -0.350 OA
ATOM      6  C   LIG    1        2.839   2.312   0.880  0.00  0.00    +0.190 C 
ATOM      7  C   LIG    1        1.987   1.640  -0.203  0.00  0.00    +0.310 C 
ATOM      8  O   LIG    1       -0.145  -0.049  -0.158  0.00  0.00    -0.500 OA
ENDROOT
BRANCH   1  14
ATOM      9  C   LIG    1       -2.168   1.344   1.853  0.00  0.00    -0.140 C 
ATOM     10  C   LIG    1       -2.405  -0.188   2.036  0.00  0.00    +0.090 C 
ATOM     11  C   LIG    1       -3.460   0.096   0.928  0.00  0.00    +0.080 C 
ATOM     12  O   LIG    1       -2.778   0.628  -0.250  0.00  0.00    -0.310 OA
ATOM     13  C   LIG    1       -4.584  -0.917   0.702  0.00  0.00    +0.120 C 
ATOM     14  C   LIG    1       -1.814   1.544   0.339  0.00  0.00    +0.200 C 
ATOM     15  C   LIG    1       -3.719   1.345   1.805  0.00  0.00    +0.070 C 
BRANCH   9  16
ATOM     16  C   LIG    1       -1.416   2.145   2.885  0.00  0.00    +0.500 C 
ATOM     17  O   LIG    1       -1.979   3.019   3.500  0.00  0.00    -0.490 OA
BRANCH  16  18
ATOM     18  O   LIG    1       -0.120   1.887   3.120  0.00  0.00    -0.350 OA
BRANCH  18  20
ATOM     19  C   LIG    1        1.994   2.251   4.274  0.00  0.00    +0.070 C 
ATOM     20  C   LIG    1        0.506   2.603   4.218  0.00  0.00    +0.220 C 
ENDBRANCH  18  20
ENDBRANCH  16  18
ENDBRANCH   9  16
ENDBRANCH   1  14
BRANCH   6  21
ATOM     21  C   LIG    1        4.299   2.076   0.590  0.00  0.00    +0.470 C 
ATOM     22  O   LIG    1        5.020   3.008   0.321  0.00  0.00    -0.470 OA
BRANCH  21  23
ATOM     23  O   LIG    1        4.799   0.831   0.629  0.00  0.00    -0.350 OA
BRANCH  23  24
ATOM     24  C   LIG    1        6.214   0.679   0.339  0.00  0.00    +0.120 C 
ATOM     25  C   LIG    1        6.503   1.193  -1.073  0.00  0.00    +0.020 C 
ATOM     26  C   LIG    1        6.598  -0.799   0.432  0.00  0.00    +0.080 C 
ATOM     27  C   LIG    1        7.032   1.483   1.352  0.00  0.00    +0.030 C 
ENDBRANCH  23  24
ENDBRANCH  21  23
ENDBRANCH   6  21
TORSDOF 7
