REMARK  Name = ZINCrH000004mwOj.0
REMARK                            x       y       z     vdW  Elec       q    Type
REMARK                         _______ _______ _______ _____ _____    ______ ____
ROOT
ATOM      1  C   LIG    1       -1.329   1.945   0.035  0.00  0.00    +0.220 C 
ATOM      2  C   LIG    1       -1.661   2.413   1.474  0.00  0.00    +0.070 C 
ATOM      3  C   LIG    1       -3.206   2.539   1.413  0.00  0.00    +0.060 C 
ATOM      4  C   LIG    1       -3.610   1.377   0.481  0.00  0.00    +0.250 C 
ATOM      5  N   LIG    1       -2.432   1.037  -0.330  0.00  0.00    -0.610 N 
ATOM      6  C   LIG    1       -2.370   0.058  -1.254  0.00  0.00    +0.610 C 
ATOM      7  O   LIG    1       -1.337  -0.135  -1.868  0.00  0.00    -0.500 OA
ENDROOT
BRANCH   6   8
ATOM      8  C   LIG    1       -3.547  -0.776  -1.518  0.00  0.00    -0.260 A 
ATOM      9  C   LIG    1       -3.608  -1.786  -2.425  0.00  0.00    +0.120 A 
ATOM     10  C   LIG    1       -4.844  -2.424  -2.479  0.00  0.00    -0.140 A 
ATOM     11  C   LIG    1       -5.756  -1.920  -1.630  0.00  0.00    -0.230 A 
ATOM     12  C   LIG    1       -7.075  -2.671  -1.762  0.00  0.00    +0.110 C 
ATOM     13  C   LIG    1       -6.980  -3.405  -3.114  0.00  0.00    +0.040 C 
ATOM     14  C   LIG    1       -5.457  -3.575  -3.274  0.00  0.00    +0.100 C 
ATOM     15  S   LIG    1       -5.101  -0.623  -0.719  0.00  0.00    +0.220 S 
ENDBRANCH   6   8
BRANCH   1  18
ATOM     16  N   LIG    1        1.143   1.898   0.001  0.00  0.00    -0.660 N 
ATOM     17  H   LIG    1        1.131   2.866  -0.069  0.00  0.00    +0.410 HD
ATOM     18  C   LIG    1       -0.015   1.209   0.013  0.00  0.00    +0.510 C 
ATOM     19  O   LIG    1        0.002  -0.004  -0.000  0.00  0.00    -0.480 OA
BRANCH  16  26
ATOM     20  C   LIG    1        3.527   1.798  -0.414  0.00  0.00    +0.090 A 
ATOM     21  C   LIG    1        4.731   1.120  -0.321  0.00  0.00    -0.050 A 
ATOM     22  C   LIG    1        4.779  -0.129   0.271  0.00  0.00    +0.030 A 
ATOM     23  C   LIG    1        3.627  -0.704   0.772  0.00  0.00    -0.100 A 
ATOM     24  C   LIG    1        2.422  -0.032   0.690  0.00  0.00    +0.050 A 
ATOM     25  C   LIG    1        3.686  -2.065   1.417  0.00  0.00    +0.100 C 
ATOM     26  C   LIG    1        2.365   1.218   0.092  0.00  0.00    +0.130 A 
BRANCH  20  28
ATOM     27  C   LIG    1        4.708   3.558  -1.491  0.00  0.00    +0.250 C 
ATOM     28  O   LIG    1        3.478   3.026  -0.995  0.00  0.00    -0.320 OA
ENDBRANCH  20  28
ENDBRANCH  16  26
ENDBRANCH   1  18
TORSDOF 4
