REMARK  Name = ZINCah0000006kBH.0
REMARK                            x       y       z     vdW  Elec       q    Type
REMARK                         _______ _______ _______ _____ _____    ______ ____
ROOT
ATOM      1  C   LIG    1       -0.809   1.621   1.229  0.00  0.00    -0.160 C 
ATOM      2  C   LIG    1       -0.013   1.086   0.008  0.00  0.00    +0.030 C 
ATOM      3  C   LIG    1       -0.827   1.631  -1.185  0.00  0.00    +0.190 C 
ATOM      4  O   LIG    1       -2.149   1.916  -0.712  0.00  0.00    -0.380 OA
ATOM      5  C   LIG    1       -2.261   1.562   0.675  0.00  0.00    +0.230 C 
ENDROOT
BRANCH   1   6
ATOM      6  C   LIG    1       -0.410   3.036   1.560  0.00  0.00    +0.460 C 
ATOM      7  O   LIG    1        0.431   3.596   0.899  0.00  0.00    -0.450 OA
ENDBRANCH   1   6
BRANCH   1   8
ATOM      8  C   LIG    1       -0.638   0.705   2.443  0.00  0.00    +0.090 C 
BRANCH   8  10
ATOM      9  C   LIG    1       -2.311   0.508   4.211  0.00  0.00    +0.020 C 
ATOM     10  C   LIG    1       -1.425   1.258   3.604  0.00  0.00    -0.060 C 
ENDBRANCH   8  10
ENDBRANCH   1   8
TORSDOF 3
