REMARK  Name = ZINCqH00000385V8.0
REMARK                            x       y       z     vdW  Elec       q    Type
REMARK                         _______ _______ _______ _____ _____    ______ ____
ROOT
ATOM      1  C   LIG    1       11.285   0.032  -0.454  0.00  0.00    -0.230 A 
ATOM      2  C   LIG    1       10.482  -1.027  -0.338  0.00  0.00    +0.100 A 
ATOM      3  N   LIG    1        9.195  -0.737  -0.296  0.00  0.00    -0.470 NA
ATOM      4  C   LIG    1        8.873   0.516  -0.370  0.00  0.00    +0.260 A 
ATOM      5  C   LIG    1       11.001  -2.440  -0.262  0.00  0.00    +0.160 C 
ATOM      6  S   LIG    1       10.280   1.477  -0.516  0.00  0.00    +0.130 S 
ENDROOT
BRANCH   4   7
ATOM      7  N   LIG    1        7.573   1.007  -0.341  0.00  0.00    -0.630 N 
ATOM      8  H   LIG    1        7.414   1.962  -0.403  0.00  0.00    +0.420 HD
ATOM      9  C   LIG    1        6.533   0.157  -0.228  0.00  0.00    +0.530 C 
ATOM     10  O   LIG    1        6.732  -1.037  -0.152  0.00  0.00    -0.440 OA
BRANCH   9  11
ATOM     11  C   LIG    1        5.124   0.689  -0.197  0.00  0.00    +0.070 C 
BRANCH  11  12
ATOM     12  S   LIG    1        3.959  -0.692  -0.040  0.00  0.00    +0.110 S 
BRANCH  12  13
ATOM     13  C   LIG    1        2.391   0.112  -0.020  0.00  0.00    +0.050 C 
ATOM     14  C   LIG    1        2.289   1.433  -0.442  0.00  0.00    +0.010 C 
ATOM     15  C   LIG    1        1.051   2.052  -0.421  0.00  0.00    +0.100 C 
ATOM     16  C   LIG    1       -0.046   1.327   0.021  0.00  0.00    +0.040 C 
ATOM     17  C   LIG    1        0.127   0.017   0.426  0.00  0.00    +0.290 C 
ATOM     18  N   LIG    1        1.319  -0.548   0.396  0.00  0.00    -0.110 NA
ATOM     19  O   LIG    1        1.457  -1.892   0.819  0.00  0.00    -0.530 OA
ENDBRANCH  12  13
ENDBRANCH  11  12
ENDBRANCH   9  11
ENDBRANCH   4   7
BRANCH   1  20
ATOM     20  C   LIG    1       12.790  -0.003  -0.526  0.00  0.00    +0.190 C 
BRANCH  20  25
ATOM     21  C   LIG    1       14.447  -0.439  -6.045  0.00  0.00    +0.090 C 
ATOM     22  C   LIG    1       14.015  -0.325  -4.605  0.00  0.00    -0.090 A 
ATOM     23  C   LIG    1       13.840   0.921  -4.033  0.00  0.00    +0.000 A 
ATOM     24  C   LIG    1       13.444   1.025  -2.712  0.00  0.00    +0.010 A 
ATOM     25  C   LIG    1       13.222  -0.117  -1.965  0.00  0.00    -0.090 A 
ATOM     26  C   LIG    1       13.402  -1.363  -2.536  0.00  0.00    +0.010 A 
ATOM     27  C   LIG    1       13.794  -1.467  -3.858  0.00  0.00    +0.000 A 
ENDBRANCH  20  25
ENDBRANCH   1  20
TORSDOF 6
