REMARK  Name = ZINCrH00000tj0WD.0
REMARK                            x       y       z     vdW  Elec       q    Type
REMARK                         _______ _______ _______ _____ _____    ______ ____
ROOT
ATOM      1  N   LIG    1        0.038   1.636   2.453  0.00  0.00    -0.590 N 
ATOM      2  C   LIG    1       -0.515   0.842   3.391  0.00  0.00    +0.540 C 
ATOM      3  O   LIG    1        0.125   0.524   4.371  0.00  0.00    -0.500 OA
ENDROOT
BRANCH   1   4
ATOM      4  C   LIG    1        1.413   2.115   2.617  0.00  0.00    +0.280 C 
ATOM      5  C   LIG    1        2.373   0.915   2.698  0.00  0.00    +0.070 C 
ATOM      6  C   LIG    1        3.733   1.468   3.197  0.00  0.00    -0.310 C 
ATOM      7  S   LIG    1        3.228   2.630   4.522  0.00  0.00    +2.390 S 
ATOM      8  O   LIG    1        3.986   3.827   4.412  0.00  0.00    -0.940 OA
ATOM      9  O   LIG    1        3.176   1.937   5.762  0.00  0.00    -0.920 OA
ATOM     10  C   LIG    1        1.526   2.928   3.922  0.00  0.00    -0.330 C 
ENDBRANCH   1   4
BRANCH   1  11
ATOM     11  C   LIG    1       -0.735   2.019   1.269  0.00  0.00    +0.220 C 
ATOM     12  C   LIG    1       -0.866   3.543   1.217  0.00  0.00    +0.030 C 
BRANCH  11  14
ATOM     13  C   LIG    1        0.002  -0.004   0.002  0.00  0.00    +0.020 C 
ATOM     14  C   LIG    1       -0.019   1.526   0.010  0.00  0.00    +0.010 C 
ENDBRANCH  11  14
ENDBRANCH   1  11
BRANCH   2  15
ATOM     15  C   LIG    1       -1.929   0.349   3.222  0.00  0.00    +0.070 C 
BRANCH  15  16
ATOM     16  S   LIG    1       -2.380  -0.687   4.637  0.00  0.00    +0.120 S 
BRANCH  16  17
ATOM     17  C   LIG    1       -4.030  -1.113   4.190  0.00  0.00    +0.040 A 
ATOM     18  N   LIG    1       -4.825  -1.865   4.888  0.00  0.00    -0.440 NA
ATOM     19  C   LIG    1       -6.042  -2.078   4.391  0.00  0.00    +0.120 A 
ATOM     20  C   LIG    1       -6.295  -1.479   3.214  0.00  0.00    -0.050 A 
ATOM     21  S   LIG    1       -4.859  -0.579   2.732  0.00  0.00    +0.080 S 
BRANCH  19  22
ATOM     22  C   LIG    1       -7.048  -2.917   5.086  0.00  0.00    -0.030 A 
ATOM     23  C   LIG    1       -8.311  -3.105   4.526  0.00  0.00    +0.020 A 
ATOM     24  C   LIG    1       -9.241  -3.890   5.175  0.00  0.00    +0.010 A 
ATOM     25  C   LIG    1       -8.926  -4.483   6.385  0.00  0.00    +0.020 A 
ATOM     26  C   LIG    1       -7.677  -4.296   6.948  0.00  0.00    +0.010 A 
ATOM     27  C   LIG    1       -6.737  -3.516   6.306  0.00  0.00    +0.050 A 
ENDBRANCH  19  22
ENDBRANCH  16  17
ENDBRANCH  15  16
ENDBRANCH   2  15
TORSDOF 7
