REMARK  Name = ZINCrg000014pG0T.0
REMARK                            x       y       z     vdW  Elec       q    Type
REMARK                         _______ _______ _______ _____ _____    ______ ____
ROOT
ATOM      1  N   LIG    1       -3.424   3.096  -4.932  0.00  0.00    -0.710 N 
ATOM      2  H   LIG    1       -2.803   3.104  -5.677  0.00  0.00    +0.400 HD
ATOM      3  C   LIG    1       -2.989   3.382  -3.689  0.00  0.00    +0.500 C 
ATOM      4  O   LIG    1       -3.766   3.371  -2.758  0.00  0.00    -0.500 OA
ENDROOT
BRANCH   1  10
ATOM      5  C   LIG    1       -4.968   1.921  -6.425  0.00  0.00    +0.140 C 
ATOM      6  C   LIG    1       -4.490   2.739  -7.629  0.00  0.00    -0.010 C 
ATOM      7  C   LIG    1       -5.303   4.034  -7.711  0.00  0.00    +0.220 C 
ATOM      8  O   LIG    1       -5.160   4.763  -6.490  0.00  0.00    -0.370 OA
ATOM      9  C   LIG    1       -5.634   4.066  -5.336  0.00  0.00    +0.230 C 
ATOM     10  C   LIG    1       -4.835   2.772  -5.159  0.00  0.00    +0.240 C 
BRANCH   5  11
ATOM     11  O   LIG    1       -6.335   1.551  -6.611  0.00  0.00    -0.550 OA
ATOM     12  H   LIG    1       -6.493   1.010  -7.396  0.00  0.00    +0.390 HD
ENDBRANCH   5  11
BRANCH   5  13
ATOM     13  C   LIG    1       -4.109   0.662  -6.289  0.00  0.00    +0.160 C 
BRANCH  13  15
ATOM     14  C   LIG    1       -3.367  -1.273  -7.493  0.00  0.00    +0.200 C 
ATOM     15  O   LIG    1       -4.142  -0.072  -7.514  0.00  0.00    -0.390 OA
ENDBRANCH  13  15
ENDBRANCH   5  13
ENDBRANCH   1  10
BRANCH   3  16
ATOM     16  C   LIG    1       -1.538   3.714  -3.456  0.00  0.00    +0.330 C 
BRANCH  16  17
ATOM     17  N   LIG    1       -1.321   3.985  -2.033  0.00  0.00    -0.410 N 
ATOM     18  C   LIG    1       -1.417   5.186  -1.418  0.00  0.00    +0.110 A 
ATOM     19  N   LIG    1       -1.156   5.030  -0.146  0.00  0.00    -0.420 NA
ATOM     20  C   LIG    1       -0.888   3.743   0.091  0.00  0.00    +0.010 A 
ATOM     21  C   LIG    1       -0.536   3.095   1.407  0.00  0.00    +0.130 C 
ATOM     22  C   LIG    1       -0.730   1.580   1.268  0.00  0.00    +0.030 C 
ATOM     23  C   LIG    1       -0.013   1.086   0.008  0.00  0.00    +0.040 C 
ATOM     24  C   LIG    1       -0.755   1.594  -1.235  0.00  0.00    +0.120 C 
ATOM     25  C   LIG    1       -0.986   3.075  -1.078  0.00  0.00    +0.020 A 
BRANCH  18  26
ATOM     26  C   LIG    1       -1.768   6.490  -2.088  0.00  0.00    +0.560 C 
ATOM     27  F   LIG    1       -3.138   6.517  -2.368  0.00  0.00    -0.160 F 
ATOM     28  F   LIG    1       -1.046   6.609  -3.280  0.00  0.00    -0.170 F 
ATOM     29  F   LIG    1       -1.444   7.553  -1.238  0.00  0.00    -0.150 F 
ENDBRANCH  18  26
ENDBRANCH  16  17
ENDBRANCH   3  16
TORSDOF 7
