REMARK  Name = ZINCpe000000TL29.0
REMARK                            x       y       z     vdW  Elec       q    Type
REMARK                         _______ _______ _______ _____ _____    ______ ____
ROOT
ATOM      1  N   LIG    1       -4.256  -4.183  -0.336  0.00  0.00    -0.710 N 
ATOM      2  H   LIG    1       -3.584  -4.141  -1.034  0.00  0.00    +0.420 HD
ATOM      3  C   LIG    1       -4.298  -3.231   0.617  0.00  0.00    +0.610 C 
ATOM      4  O   LIG    1       -5.140  -3.283   1.493  0.00  0.00    -0.530 OA
ENDROOT
BRANCH   3   5
ATOM      5  C   LIG    1       -3.322  -2.124   0.597  0.00  0.00    -0.100 A 
ATOM      6  C   LIG    1       -3.254  -1.104   1.503  0.00  0.00    +0.310 A 
ATOM      7  N   LIG    1       -2.230  -0.311   1.121  0.00  0.00    -0.300 N 
ATOM      8  N   LIG    1       -1.680  -0.888  -0.033  0.00  0.00    -0.050 NA
ATOM      9  N   LIG    1       -2.348  -1.953  -0.312  0.00  0.00    -0.200 NA
BRANCH   7  10
ATOM     10  C   LIG    1       -1.796   0.861   1.758  0.00  0.00    +0.120 A 
ATOM     11  C   LIG    1       -2.440   1.309   2.903  0.00  0.00    +0.020 A 
ATOM     12  C   LIG    1       -2.014   2.466   3.526  0.00  0.00    +0.040 A 
ATOM     13  C   LIG    1       -0.944   3.175   3.012  0.00  0.00    +0.030 A 
ATOM     14  C   LIG    1       -0.296   2.728   1.875  0.00  0.00    +0.040 A 
ATOM     15  C   LIG    1       -0.718   1.572   1.248  0.00  0.00    -0.060 A 
BRANCH  15  16
ATOM     16  C   LIG    1       -0.013   1.086   0.008  0.00  0.00    +0.070 C 
ATOM     17  C   LIG    1       -0.753   1.593  -1.232  0.00  0.00    +0.020 C 
ENDBRANCH  15  16
ENDBRANCH   7  10
ENDBRANCH   3   5
BRANCH   1  18
ATOM     18  C   LIG    1       -5.225  -5.282  -0.316  0.00  0.00    +0.240 C 
ATOM     19  C   LIG    1       -4.720  -6.391   0.609  0.00  0.00    +0.040 C 
BRANCH  18  20
ATOM     20  C   LIG    1       -5.396  -5.836  -1.732  0.00  0.00    +0.260 C 
BRANCH  20  21
ATOM     21  C   LIG    1       -6.481  -6.882  -1.734  0.00  0.00    +0.440 C 
ATOM     22  O   LIG    1       -6.210  -8.033  -1.984  0.00  0.00    -0.490 OA
BRANCH  21  23
ATOM     23  O   LIG    1       -7.748  -6.535  -1.458  0.00  0.00    -0.350 OA
BRANCH  23  25
ATOM     24  C   LIG    1      -10.115  -7.012  -1.143  0.00  0.00    +0.070 C 
ATOM     25  C   LIG    1       -8.741  -7.595  -1.479  0.00  0.00    +0.200 C 
ENDBRANCH  23  25
ENDBRANCH  21  23
ENDBRANCH  20  21
BRANCH  20  26
ATOM     26  O   LIG    1       -4.167  -6.423  -2.165  0.00  0.00    -0.520 OA
ATOM     27  H   LIG    1       -3.862  -7.152  -1.608  0.00  0.00    +0.390 HD
ENDBRANCH  20  26
ENDBRANCH  18  20
ENDBRANCH   1  18
TORSDOF 9
