REMARK  Name = ZINCwl0000000sYK.0
REMARK                            x       y       z     vdW  Elec       q    Type
REMARK                         _______ _______ _______ _____ _____    ______ ____
ROOT
ATOM      1  C   LIG    1       -6.047   0.645   0.034  0.00  0.00    +0.600 C 
ATOM      2  N   LIG    1       -6.807  -0.469   0.032  0.00  0.00    -0.730 N 
ATOM      3  H   LIG    1       -6.386  -1.343   0.025  0.00  0.00    +0.400 HD
ATOM      4  O   LIG    1       -6.574   1.740   0.042  0.00  0.00    -0.530 OA
ENDROOT
BRANCH   1   7
ATOM      5  C   LIG    1       -4.015   3.049   0.050  0.00  0.00    +0.200 C 
ATOM      6  C   LIG    1       -3.677   1.580   0.033  0.00  0.00    +0.200 A 
ATOM      7  C   LIG    1       -4.577   0.534   0.026  0.00  0.00    -0.300 A 
ATOM      8  C   LIG    1       -3.826  -0.663   0.017  0.00  0.00    +0.310 A 
ATOM      9  N   LIG    1       -2.561  -0.347   0.013  0.00  0.00    -0.270 NA
ATOM     10  N   LIG    1       -2.441   1.047   0.019  0.00  0.00    -0.310 N 
BRANCH  10  11
ATOM     11  C   LIG    1       -1.240   1.766   0.018  0.00  0.00    +0.350 A 
ATOM     12  N   LIG    1       -1.265   3.076   0.031  0.00  0.00    -0.240 NA
ATOM     13  N   LIG    1       -0.077   3.815   0.023  0.00  0.00    -0.490 N 
ATOM     14  H   LIG    1       -0.110   4.784   0.029  0.00  0.00    +0.450 HD
ATOM     15  C   LIG    1        1.115   3.184   0.009  0.00  0.00    +0.500 A 
ATOM     16  C   LIG    1        1.154   1.774   0.001  0.00  0.00    +0.050 A 
ATOM     17  O   LIG    1        2.151   3.828   0.002  0.00  0.00    -0.520 OA
ATOM     18  C   LIG    1       -0.013   1.076   0.008  0.00  0.00    +0.090 A 
ENDBRANCH  10  11
ENDBRANCH   1   7
BRANCH   2  19
ATOM     19  C   LIG    1       -8.268  -0.359   0.040  0.00  0.00    +0.260 C 
BRANCH  19  20
ATOM     20  C   LIG    1       -8.885  -1.759   0.035  0.00  0.00    +0.030 C 
BRANCH  20  21
ATOM     21  C   LIG    1      -10.410  -1.644   0.044  0.00  0.00    +0.030 C 
BRANCH  21  22
ATOM     22  C   LIG    1      -11.027  -3.044   0.039  0.00  0.00    +0.250 C 
BRANCH  22  23
ATOM     23  N   LIG    1      -12.492  -2.934   0.047  0.00  0.00    -0.390 N 
ATOM     24  C   LIG    1      -12.930  -2.319   1.308  0.00  0.00    +0.270 C 
ATOM     25  C   LIG    1      -14.454  -2.187   1.308  0.00  0.00    +0.230 C 
ATOM     26  N   LIG    1      -15.059  -3.518   1.157  0.00  0.00    -0.490 N 
ATOM     27  C   LIG    1      -14.610  -4.156  -0.089  0.00  0.00    +0.220 C 
ATOM     28  C   LIG    1      -13.084  -4.272  -0.078  0.00  0.00    +0.280 C 
ATOM     29  H   LIG    1      -12.790  -2.360  -0.728  0.00  0.00    +0.420 HD
BRANCH  26  30
ATOM     30  C   LIG    1      -16.453  -3.443   1.207  0.00  0.00    +0.080 A 
ATOM     31  C   LIG    1      -17.214  -3.935   0.155  0.00  0.00    -0.030 A 
ATOM     32  C   LIG    1      -18.593  -3.864   0.210  0.00  0.00    +0.040 A 
ATOM     33  C   LIG    1      -19.214  -3.294   1.306  0.00  0.00    +0.000 A 
ATOM     34  C   LIG    1      -18.458  -2.799   2.353  0.00  0.00    +0.040 A 
ATOM     35  C   LIG    1      -17.080  -2.871   2.306  0.00  0.00    +0.000 A 
ENDBRANCH  26  30
ENDBRANCH  22  23
ENDBRANCH  21  22
ENDBRANCH  20  21
ENDBRANCH  19  20
ENDBRANCH   2  19
TORSDOF 8
