REMARK  Name = ZINCrH00000No58D.0
REMARK                            x       y       z     vdW  Elec       q    Type
REMARK                         _______ _______ _______ _____ _____    ______ ____
ROOT
ATOM      1  N   LIG    1       -0.849   1.521  -1.353  0.00  0.00    -0.600 N 
ATOM      2  C   LIG    1       -1.772   0.850  -2.070  0.00  0.00    +0.550 C 
ATOM      3  O   LIG    1       -2.217  -0.203  -1.655  0.00  0.00    -0.540 OA
ENDROOT
BRANCH   2   4
ATOM      4  C   LIG    1       -2.241   1.390  -3.355  0.00  0.00    -0.090 C 
ATOM      5  C   LIG    1       -3.221   0.780  -4.015  0.00  0.00    +0.140 C 
ENDBRANCH   2   4
BRANCH   1   6
ATOM      6  C   LIG    1       -0.384   2.835  -1.805  0.00  0.00    +0.340 C 
BRANCH   6  13
ATOM      7  C   LIG    1        2.052   2.409  -2.221  0.00  0.00    +0.140 A 
ATOM      8  C   LIG    1        3.129   2.249  -3.081  0.00  0.00    -0.070 A 
ATOM      9  C   LIG    1        2.941   2.339  -4.447  0.00  0.00    +0.060 A 
ATOM     10  C   LIG    1        1.680   2.589  -4.957  0.00  0.00    -0.120 A 
ATOM     11  C   LIG    1        0.604   2.744  -4.102  0.00  0.00    +0.060 A 
ATOM     12  C   LIG    1        1.478   2.687  -6.447  0.00  0.00    +0.100 C 
ATOM     13  C   LIG    1        0.788   2.660  -2.736  0.00  0.00    -0.130 A 
BRANCH   7  14
ATOM     14  O   LIG    1        2.235   2.321  -0.878  0.00  0.00    -0.310 OA
BRANCH  14  15
ATOM     15  C   LIG    1        3.538   1.951  -0.423  0.00  0.00    +0.350 C 
BRANCH  15  17
ATOM     16  C   LIG    1        3.505   1.662   2.207  0.00  0.00    +0.070 C 
ATOM     17  C   LIG    1        3.520   1.790   1.040  0.00  0.00    -0.210 C 
ENDBRANCH  15  17
ENDBRANCH  14  15
ENDBRANCH   7  14
ENDBRANCH   6  13
ENDBRANCH   1   6
BRANCH   1  18
ATOM     18  C   LIG    1       -0.310   0.937  -0.123  0.00  0.00    +0.360 C 
BRANCH  18  19
ATOM     19  C   LIG    1       -1.160   1.359   1.048  0.00  0.00    -0.140 A 
ATOM     20  C   LIG    1       -2.037   0.464   1.620  0.00  0.00    +0.130 A 
ATOM     21  C   LIG    1       -2.821   0.856   2.708  0.00  0.00    -0.040 A 
ATOM     22  C   LIG    1       -2.718   2.158   3.203  0.00  0.00    +0.100 A 
ATOM     23  C   LIG    1       -1.841   3.047   2.620  0.00  0.00    -0.010 A 
ATOM     24  C   LIG    1       -1.062   2.651   1.544  0.00  0.00    +0.140 A 
ATOM     25  F   LIG    1       -0.204   3.526   0.975  0.00  0.00    -0.120 F 
BRANCH  21  26
ATOM     26  C   LIG    1       -3.730  -0.072   3.310  0.00  0.00    +0.250 C 
ATOM     27  N   LIG    1       -4.452  -0.808   3.788  0.00  0.00    -0.410 NA
ENDBRANCH  21  26
ENDBRANCH  18  19
ENDBRANCH   1  18
TORSDOF 9
