REMARK  Name = ZINCqH0000033ZOZ.0
REMARK                            x       y       z     vdW  Elec       q    Type
REMARK                         _______ _______ _______ _____ _____    ______ ____
ROOT
ATOM      1  C   LIG    1       -0.018   1.512   0.010  0.00  0.00    +0.170 C 
ATOM      2  N   LIG    1        1.409   1.877  -0.001  0.00  0.00    -0.710 N 
ATOM      3  H   LIG    1        1.777   2.775  -0.000  0.00  0.00    +0.440 HD
ATOM      4  C   LIG    1        2.101   0.724  -0.014  0.00  0.00    +0.710 C 
ATOM      5  N   LIG    1        1.304  -0.351  -0.012  0.00  0.00    -0.570 N 
ATOM      6  O   LIG    1        3.315   0.665  -0.026  0.00  0.00    -0.540 OA
ATOM      7  C   LIG    1        0.002  -0.004   0.002  0.00  0.00    +0.540 C 
ATOM      8  O   LIG    1       -0.954  -0.749   0.006  0.00  0.00    -0.440 OA
ENDROOT
BRANCH   1   9
ATOM      9  C   LIG    1       -0.711   2.039  -1.220  0.00  0.00    -0.100 A 
ATOM     10  C   LIG    1       -2.074   2.272  -1.199  0.00  0.00    +0.040 A 
ATOM     11  C   LIG    1       -2.708   2.760  -2.326  0.00  0.00    +0.010 A 
ATOM     12  C   LIG    1       -1.982   3.006  -3.477  0.00  0.00    +0.020 A 
ATOM     13  C   LIG    1       -0.620   2.769  -3.498  0.00  0.00    +0.010 A 
ATOM     14  C   LIG    1        0.015   2.285  -2.370  0.00  0.00    +0.020 A 
ENDBRANCH   1   9
BRANCH   1  16
ATOM     15  C   LIG    1        0.128   1.632   2.502  0.00  0.00    +0.020 C 
ATOM     16  C   LIG    1       -0.698   2.034   1.278  0.00  0.00    +0.060 C 
ENDBRANCH   1  16
BRANCH   5  17
ATOM     17  C   LIG    1        1.788  -1.734  -0.025  0.00  0.00    +0.440 C 
BRANCH  17  18
ATOM     18  C   LIG    1        1.940  -2.199  -1.450  0.00  0.00    -0.040 A 
ATOM     19  C   LIG    1        3.071  -2.166  -2.177  0.00  0.00    +0.200 A 
ATOM     20  O   LIG    1        2.783  -2.675  -3.393  0.00  0.00    -0.190 OA
ATOM     21  C   LIG    1        1.478  -3.004  -3.399  0.00  0.00    +0.270 A 
ATOM     22  N   LIG    1        0.970  -2.715  -2.221  0.00  0.00    -0.450 NA
BRANCH  21  23
ATOM     23  C   LIG    1        0.745  -3.589  -4.531  0.00  0.00    -0.150 A 
ATOM     24  C   LIG    1        1.279  -3.880  -5.749  0.00  0.00    +0.060 A 
ATOM     25  C   LIG    1        0.388  -4.426  -6.646  0.00  0.00    +0.010 A 
ATOM     26  C   LIG    1       -0.859  -4.578  -6.189  0.00  0.00    -0.040 A 
ATOM     27  S   LIG    1       -0.961  -4.016  -4.526  0.00  0.00    +0.220 S 
ENDBRANCH  21  23
ENDBRANCH  17  18
ENDBRANCH   5  17
TORSDOF 5
