REMARK  Name = ZINCqH0000004BJ9.0
REMARK                            x       y       z     vdW  Elec       q    Type
REMARK                         _______ _______ _______ _____ _____    ______ ____
ROOT
ATOM      1  C   LIG    1        3.660   7.389   0.806  0.00  0.00    +0.560 C 
ATOM      2  N   LIG    1        3.748   6.330  -0.023  0.00  0.00    -0.610 N 
ATOM      3  C   LIG    1        4.967   5.511  -0.062  0.00  0.00    +0.290 C 
ATOM      4  C   LIG    1        5.476   5.459  -1.508  0.00  0.00    +0.290 C 
ATOM      5  N   LIG    1        4.355   5.103  -2.389  0.00  0.00    -0.610 N 
ATOM      6  C   LIG    1        3.138   5.926  -2.353  0.00  0.00    +0.270 C 
ATOM      7  C   LIG    1        4.443   4.044  -3.218  0.00  0.00    +0.560 C 
ATOM      8  O   LIG    1        5.415   3.316  -3.172  0.00  0.00    -0.500 OA
ATOM      9  C   LIG    1        2.627   5.975  -0.904  0.00  0.00    +0.280 C 
ATOM     10  O   LIG    1        4.630   7.739   1.450  0.00  0.00    -0.530 OA
ENDROOT
BRANCH   7  11
ATOM     11  C   LIG    1        3.358   3.769  -4.181  0.00  0.00    -0.120 A 
ATOM     12  C   LIG    1        2.927   4.768  -5.056  0.00  0.00    +0.090 A 
ATOM     13  C   LIG    1        1.914   4.506  -5.953  0.00  0.00    +0.010 A 
ATOM     14  C   LIG    1        1.323   3.252  -5.989  0.00  0.00    +0.130 A 
ATOM     15  C   LIG    1        1.747   2.255  -5.123  0.00  0.00    +0.020 A 
ATOM     16  F   LIG    1        0.331   3.001  -6.870  0.00  0.00    -0.120 F 
ATOM     17  C   LIG    1        2.760   2.506  -4.221  0.00  0.00    -0.030 A 
ATOM     18 BR   LIG    1        3.336   1.146  -3.041  0.00  0.00    -0.010 Br
ENDBRANCH   7  11
BRANCH   1  22
ATOM     19  C   LIG    1       -0.006   9.504   1.168  0.00  0.00    -0.060 A 
ATOM     20  C   LIG    1        1.183  10.202   1.058  0.00  0.00    +0.010 A 
ATOM     21  C   LIG    1        2.377   9.521   0.940  0.00  0.00    +0.070 A 
ATOM     22  C   LIG    1        2.384   8.125   0.933  0.00  0.00    -0.140 A 
ATOM     23  C   LIG    1        1.180   7.427   1.039  0.00  0.00    +0.040 A 
ATOM     24  C   LIG    1       -0.007   8.120   1.161  0.00  0.00    +0.010 A 
BRANCH  19  26
ATOM     25  C   LIG    1       -1.884  10.514  -0.098  0.00  0.00    +0.030 C 
ATOM     26  C   LIG    1       -1.307  10.254   1.295  0.00  0.00    +0.070 C 
ENDBRANCH  19  26
ENDBRANCH   1  22
TORSDOF 3
