REMARK  Name = ZINCkj00000kKDxY.0
REMARK                            x       y       z     vdW  Elec       q    Type
REMARK                         _______ _______ _______ _____ _____    ______ ____
ROOT
ATOM      1  C   LIG    1        1.707  -2.472  -2.228  0.00  0.00    +0.150 C 
ATOM      2  C   LIG    1        0.977  -2.138  -3.531  0.00  0.00    +0.040 C 
ATOM      3  C   LIG    1        1.840  -2.558  -4.723  0.00  0.00    +0.050 C 
ATOM      4  C   LIG    1        2.072  -4.071  -4.673  0.00  0.00    +0.290 C 
ATOM      5  N   LIG    1        2.641  -4.420  -3.365  0.00  0.00    -0.580 N 
ATOM      6  C   LIG    1        1.937  -3.985  -2.150  0.00  0.00    +0.310 C 
ENDROOT
BRANCH   5   7
ATOM      7  C   LIG    1        3.821  -5.146  -3.277  0.00  0.00    +0.330 A 
ATOM      8  N   LIG    1        4.404  -5.333  -2.112  0.00  0.00    -0.490 NA
ATOM      9  C   LIG    1        5.534  -6.032  -2.020  0.00  0.00    +0.180 A 
ATOM     10  C   LIG    1        6.130  -6.565  -3.108  0.00  0.00    +0.200 A 
ATOM     11  N   LIG    1        5.589  -6.408  -4.349  0.00  0.00    -0.480 N 
ATOM     12  C   LIG    1        6.244  -6.989  -5.524  0.00  0.00    +0.340 C 
ATOM     13  C   LIG    1        4.440  -5.709  -4.482  0.00  0.00    +0.480 A 
ATOM     14  O   LIG    1        3.929  -5.550  -5.578  0.00  0.00    -0.520 OA
ENDBRANCH   5   7
BRANCH   1  15
ATOM     15  N   LIG    1        0.892  -2.041  -1.085  0.00  0.00    -0.500 N 
ATOM     16  H   LIG    1       -0.025  -2.456  -1.150  0.00  0.00    +0.420 HD
ATOM     17  H   LIG    1        1.334  -2.334  -0.227  0.00  0.00    +0.430 HD
BRANCH  15  18
ATOM     18  C   LIG    1        0.769  -0.577  -1.097  0.00  0.00    +0.250 C 
BRANCH  18  19
ATOM     19  C   LIG    1       -0.080  -0.127   0.094  0.00  0.00    -0.020 C 
ATOM     20  C   LIG    1       -1.507  -0.655  -0.069  0.00  0.00    +0.040 C 
BRANCH  19  22
ATOM     21  C   LIG    1       -0.850   1.850   1.414  0.00  0.00    +0.030 C 
ATOM     22  C   LIG    1       -0.106   1.401   0.154  0.00  0.00    +0.020 C 
ENDBRANCH  19  22
ENDBRANCH  18  19
ENDBRANCH  15  18
ENDBRANCH   1  15
TORSDOF 5
