REMARK  Name = ZINCkj000005hi5m.0
REMARK                            x       y       z     vdW  Elec       q    Type
REMARK                         _______ _______ _______ _____ _____    ______ ____
ROOT
ATOM      1  C   LIG    1       -1.376  -0.512  -0.023  0.00  0.00    +0.330 C 
ATOM      2  N   LIG    1        0.002  -0.004   0.002  0.00  0.00    -0.370 N 
ATOM      3  H   LIG    1        0.495  -0.329  -0.816  0.00  0.00    +0.420 HD
ENDROOT
BRANCH   2   4
ATOM      4  C   LIG    1       -0.018   1.465   0.010  0.00  0.00    +0.010 C 
ATOM      5  C   LIG    1       -0.641   2.005  -1.296  0.00  0.00    +0.060 C 
ATOM      6  C   LIG    1        0.495   2.828  -1.942  0.00  0.00    +0.230 C 
ATOM      7  O   LIG    1        1.354   3.198  -0.841  0.00  0.00    -0.330 OA
ATOM      8  C   LIG    1        1.421   2.026  -0.001  0.00  0.00    +0.250 C 
BRANCH   4   9
ATOM      9  C   LIG    1       -0.786   1.982   1.228  0.00  0.00    +0.220 C 
BRANCH   9  10
ATOM     10  O   LIG    1       -0.792   3.411   1.215  0.00  0.00    -0.540 OA
ATOM     11  H   LIG    1       -1.263   3.809   1.960  0.00  0.00    +0.400 HD
ENDBRANCH   9  10
ENDBRANCH   4   9
ENDBRANCH   2   4
BRANCH   2  12
ATOM     12  C   LIG    1        0.682  -0.491   1.210  0.00  0.00    +0.310 C 
BRANCH  12  13
ATOM     13  C   LIG    1        0.811  -1.991   1.143  0.00  0.00    -0.160 A 
ATOM     14  C   LIG    1       -0.075  -2.789   1.837  0.00  0.00    +0.040 A 
ATOM     15  C   LIG    1        0.044  -4.165   1.777  0.00  0.00    +0.030 A 
ATOM     16  C   LIG    1        1.050  -4.736   1.024  0.00  0.00    +0.060 A 
ATOM     17  C   LIG    1        1.942  -3.936   0.326  0.00  0.00    -0.110 A 
ATOM     18  C   LIG    1        3.030  -4.597  -0.480  0.00  0.00    +0.290 C 
ATOM     19  O   LIG    1        3.597  -3.666  -1.401  0.00  0.00    -0.370 OA
ATOM     20  C   LIG    1        4.011  -2.443  -0.781  0.00  0.00    +0.240 C 
ATOM     21  C   LIG    1        2.762  -1.660  -0.370  0.00  0.00    +0.040 C 
ATOM     22  C   LIG    1        1.817  -2.564   0.380  0.00  0.00    -0.050 A 
ENDBRANCH  12  13
ENDBRANCH   2  12
TORSDOF 5
