REMARK  Name = ZINCkj000005hi5m.1
REMARK                            x       y       z     vdW  Elec       q    Type
REMARK                         _______ _______ _______ _____ _____    ______ ____
ROOT
ATOM      1  C   LIG    1        1.283   2.616  -2.189  0.00  0.00    +0.330 C 
ATOM      2  N   LIG    1        1.659   3.054  -0.838  0.00  0.00    -0.370 N 
ATOM      3  H   LIG    1        2.605   3.405  -0.849  0.00  0.00    +0.420 HD
ENDROOT
BRANCH   2   4
ATOM      4  C   LIG    1        1.568   1.918   0.088  0.00  0.00    +0.010 C 
ATOM      5  C   LIG    1        2.440   0.743  -0.409  0.00  0.00    +0.060 C 
ATOM      6  C   LIG    1        1.431  -0.403  -0.639  0.00  0.00    +0.230 C 
ATOM      7  O   LIG    1        0.312  -0.086   0.217  0.00  0.00    -0.330 OA
ATOM      8  C   LIG    1        0.135   1.342   0.100  0.00  0.00    +0.250 C 
BRANCH   4   9
ATOM      9  C   LIG    1        1.989   2.338   1.498  0.00  0.00    +0.210 C 
BRANCH   9  10
ATOM     10  O   LIG    1        1.936   1.206   2.368  0.00  0.00    -0.540 OA
ATOM     11  H   LIG    1        2.191   1.399   3.281  0.00  0.00    +0.410 HD
ENDBRANCH   9  10
ENDBRANCH   4   9
ENDBRANCH   2   4
BRANCH   2  12
ATOM     12  C   LIG    1        0.748   4.119  -0.398  0.00  0.00    +0.310 C 
BRANCH  12  13
ATOM     13  C   LIG    1        0.935   5.333  -1.270  0.00  0.00    -0.160 A 
ATOM     14  C   LIG    1        0.050   5.582  -2.301  0.00  0.00    +0.050 A 
ATOM     15  C   LIG    1        0.219   6.699  -3.098  0.00  0.00    +0.030 A 
ATOM     16  C   LIG    1        1.278   7.554  -2.869  0.00  0.00    +0.060 A 
ATOM     17  C   LIG    1        2.171   7.302  -1.839  0.00  0.00    -0.110 A 
ATOM     18  C   LIG    1        3.318   8.255  -1.625  0.00  0.00    +0.290 C 
ATOM     19  O   LIG    1        3.892   8.056  -0.334  0.00  0.00    -0.360 OA
ATOM     20  C   LIG    1        4.233   6.689  -0.074  0.00  0.00    +0.220 C 
ATOM     21  C   LIG    1        2.939   5.891   0.099  0.00  0.00    +0.040 C 
ATOM     22  C   LIG    1        1.997   6.192  -1.038  0.00  0.00    -0.060 A 
ENDBRANCH  12  13
ENDBRANCH   2  12
TORSDOF 5
