REMARK  Name = ZINCrD000000ASZk.0
REMARK                            x       y       z     vdW  Elec       q    Type
REMARK                         _______ _______ _______ _____ _____    ______ ____
ROOT
ATOM      1  C   LIG    1       -0.064   7.066   3.717  0.00  0.00    +0.300 C 
ENDROOT
BRANCH   1   4
ATOM      2  O   LIG    1       -0.546   9.269   5.198  0.00  0.00    -0.530 OA
ATOM      3  C   LIG    1        0.618   9.090   4.891  0.00  0.00    +0.590 C 
ATOM      4  N   LIG    1        0.963   8.017   4.152  0.00  0.00    -0.730 N 
ATOM      5  H   LIG    1        1.890   7.874   3.907  0.00  0.00    +0.390 HD
BRANCH   3   6
ATOM      6  C   LIG    1        1.648  10.043   5.327  0.00  0.00    -0.230 A 
ATOM      7  C   LIG    1        2.984   9.978   5.063  0.00  0.00    +0.290 A 
ATOM      8  N   LIG    1        3.615  11.034   5.631  0.00  0.00    -0.580 N 
ATOM      9  H   LIG    1        4.569  11.201   5.579  0.00  0.00    +0.420 HD
ATOM     10  C   LIG    1        2.709  11.837   6.293  0.00  0.00    +0.080 A 
ATOM     11  C   LIG    1        2.836  13.015   7.021  0.00  0.00    -0.010 A 
ATOM     12  C   LIG    1        1.721  13.602   7.579  0.00  0.00    +0.030 A 
ATOM     13  C   LIG    1        0.468  13.028   7.423  0.00  0.00    -0.010 A 
ATOM     14  C   LIG    1        0.322  11.861   6.705  0.00  0.00    +0.070 A 
ATOM     15  C   LIG    1        1.439  11.262   6.130  0.00  0.00    -0.060 A 
ENDBRANCH   3   6
ENDBRANCH   1   4
BRANCH   1  16
ATOM     16  C   LIG    1        0.588   5.950   2.899  0.00  0.00    +0.050 C 
BRANCH  16  17
ATOM     17  C   LIG    1       -0.468   4.972   2.452  0.00  0.00    +0.510 C 
ATOM     18  N   LIG    1       -0.124   3.900   1.712  0.00  0.00    -0.590 N 
ATOM     19  C   LIG    1        1.258   3.722   1.370  0.00  0.00    +0.260 C 
ATOM     20  C   LIG    1        1.453   3.099   0.021  0.00  0.00    -0.030 C 
ATOM     21  C   LIG    1        1.429   1.596  -0.003  0.00  0.00    +0.030 C 
ATOM     22  C   LIG    1       -0.013   1.086   0.008  0.00  0.00    -0.010 C 
ATOM     23  C   LIG    1       -0.752   1.555   1.239  0.00  0.00    +0.020 C 
ATOM     24  C   LIG    1       -0.705   1.575  -1.266  0.00  0.00    +0.020 C 
ATOM     25  C   LIG    1       -0.800   3.100  -1.173  0.00  0.00    -0.030 C 
ATOM     26  C   LIG    1       -1.739   3.465  -0.033  0.00  0.00    +0.020 C 
ATOM     27  C   LIG    1        0.576   3.724  -1.051  0.00  0.00    +0.020 C 
ATOM     28  C   LIG    1       -1.169   2.979   1.301  0.00  0.00    +0.240 C 
ATOM     29  O   LIG    1       -1.628   5.151   2.758  0.00  0.00    -0.530 OA
ENDBRANCH  16  17
ENDBRANCH   1  16
TORSDOF 4
