REMARK  Name = ZINCrD000000AkNY.0
REMARK                            x       y       z     vdW  Elec       q    Type
REMARK                         _______ _______ _______ _____ _____    ______ ____
ROOT
ATOM      1  O   LIG    1       -1.736   2.268  -1.088  0.00  0.00    -0.520 OA
ATOM      2  C   LIG    1       -0.742   1.585  -1.213  0.00  0.00    +0.510 C 
ATOM      3  N   LIG    1       -0.288   1.272  -2.443  0.00  0.00    -0.620 N 
ATOM      4  C   LIG    1        0.902   0.462  -2.737  0.00  0.00    +0.250 C 
ATOM      5  C   LIG    1        1.010   0.347  -4.272  0.00  0.00    +0.050 C 
ATOM      6  C   LIG    1       -0.439   0.631  -4.747  0.00  0.00    +0.040 C 
ATOM      7  C   LIG    1       -0.901   1.692  -3.717  0.00  0.00    +0.270 C 
ENDROOT
BRANCH   6   8
ATOM      8  C   LIG    1       -0.450   1.196  -6.144  0.00  0.00    -0.050 A 
ATOM      9  C   LIG    1       -1.243   0.617  -7.117  0.00  0.00    +0.010 A 
ATOM     10  C   LIG    1       -1.254   1.134  -8.400  0.00  0.00    +0.050 A 
ATOM     11  C   LIG    1       -0.472   2.230  -8.710  0.00  0.00    -0.010 A 
ATOM     12  C   LIG    1        0.324   2.810  -7.736  0.00  0.00    +0.100 A 
ATOM     13  F   LIG    1        1.089   3.882  -8.039  0.00  0.00    -0.140 F 
ATOM     14  C   LIG    1        0.330   2.295  -6.451  0.00  0.00    -0.010 A 
ENDBRANCH   6   8
BRANCH   2  15
ATOM     15  C   LIG    1       -0.013   1.086   0.008  0.00  0.00    +0.340 C 
BRANCH  15  16
ATOM     16  N   LIG    1       -0.698   1.558   1.213  0.00  0.00    -0.540 N 
ATOM     17  C   LIG    1       -1.678   0.820   1.779  0.00  0.00    +0.500 C 
ATOM     18  C   LIG    1       -2.399   1.341   2.996  0.00  0.00    +0.310 C 
ATOM     19  O   LIG    1       -1.509   2.147   3.773  0.00  0.00    -0.300 OA
ATOM     20  C   LIG    1       -0.768   3.064   3.098  0.00  0.00    +0.090 A 
ATOM     21  C   LIG    1       -0.428   4.269   3.687  0.00  0.00    +0.070 A 
ATOM     22  C   LIG    1        0.327   5.192   2.983  0.00  0.00    -0.090 A 
ATOM     23  C   LIG    1        0.744   4.913   1.694  0.00  0.00    +0.060 A 
ATOM     24  C   LIG    1        0.408   3.710   1.099  0.00  0.00    +0.030 A 
ATOM     25 BR   LIG    1        0.791   6.839   3.788  0.00  0.00    -0.030 Br
ATOM     26  O   LIG    1       -1.978  -0.257   1.308  0.00  0.00    -0.500 OA
ATOM     27  C   LIG    1       -0.344   2.781   1.801  0.00  0.00    +0.120 A 
ENDBRANCH  15  16
ENDBRANCH   2  15
TORSDOF 3
