REMARK  Name = ZINCrD0000071prE.0
REMARK                            x       y       z     vdW  Elec       q    Type
REMARK                         _______ _______ _______ _____ _____    ______ ____
ROOT
ATOM      1  C   LIG    1       -1.198  -0.844   0.009  0.00  0.00    +0.410 C 
ENDROOT
BRANCH   1   2
ATOM      2  N   LIG    1        0.002  -0.004   0.002  0.00  0.00    -0.570 N 
ATOM      3  C   LIG    1        1.253  -0.480  -0.013  0.00  0.00    +0.710 C 
ATOM      4  N   LIG    1        2.176   0.501  -0.016  0.00  0.00    -0.710 N 
ATOM      5  H   LIG    1        3.140   0.392  -0.026  0.00  0.00    +0.440 HD
ATOM      6  C   LIG    1        1.435   1.768  -0.002  0.00  0.00    +0.130 C 
ATOM      7  C   LIG    1        1.765   2.568   1.254  0.00  0.00    +0.050 C 
ATOM      8  C   LIG    1        0.951   3.864   1.264  0.00  0.00    +0.020 C 
ATOM      9  C   LIG    1        1.282   4.683   0.015  0.00  0.00    +0.010 C 
ATOM     10  C   LIG    1        0.926   3.877  -1.236  0.00  0.00    +0.030 C 
ATOM     11  C   LIG    1        1.741   2.581  -1.255  0.00  0.00    +0.010 C 
ATOM     12  C   LIG    1        1.371   1.765  -2.495  0.00  0.00    +0.030 C 
ATOM     13  O   LIG    1        1.526  -1.665  -0.021  0.00  0.00    -0.540 OA
ATOM     14  C   LIG    1       -0.016   1.345   0.009  0.00  0.00    +0.540 C 
ATOM     15  O   LIG    1       -0.991   2.066   0.018  0.00  0.00    -0.450 OA
ENDBRANCH   1   2
BRANCH   1  16
ATOM     16  C   LIG    1       -1.623  -1.124  -1.410  0.00  0.00    +0.450 C 
ATOM     17  O   LIG    1       -0.988  -0.669  -2.332  0.00  0.00    -0.490 OA
BRANCH  16  18
ATOM     18  O   LIG    1       -2.707  -1.879  -1.649  0.00  0.00    -0.350 OA
BRANCH  18  19
ATOM     19  C   LIG    1       -3.057  -2.108  -3.040  0.00  0.00    +0.270 C 
BRANCH  19  23
ATOM     20  C   LIG    1       -6.554  -4.552  -3.245  0.00  0.00    -0.060 A 
ATOM     21  C   LIG    1       -6.674  -3.175  -3.200  0.00  0.00    +0.010 A 
ATOM     22  C   LIG    1       -5.543  -2.385  -3.134  0.00  0.00    +0.030 A 
ATOM     23  C   LIG    1       -4.290  -2.970  -3.112  0.00  0.00    -0.110 A 
ATOM     24  C   LIG    1       -4.170  -4.346  -3.163  0.00  0.00    +0.030 A 
ATOM     25  C   LIG    1       -5.302  -5.137  -3.224  0.00  0.00    +0.010 A 
BRANCH  20  27
ATOM     26  C   LIG    1       -7.749  -6.252  -4.598  0.00  0.00    +0.030 C 
ATOM     27  C   LIG    1       -7.788  -5.414  -3.319  0.00  0.00    +0.020 C 
ATOM     28  C   LIG    1       -7.835  -6.341  -2.103  0.00  0.00    +0.030 C 
ENDBRANCH  20  27
ENDBRANCH  19  23
ENDBRANCH  18  19
ENDBRANCH  16  18
ENDBRANCH   1  16
TORSDOF 6
