REMARK  Name = ZINCqH00000i33Lj.0
REMARK                            x       y       z     vdW  Elec       q    Type
REMARK                         _______ _______ _______ _____ _____    ______ ____
ROOT
ATOM      1  O   LIG    1       -5.364   2.590  -2.231  0.00  0.00    -0.490 OA
ATOM      2  C   LIG    1       -4.462   1.783  -2.320  0.00  0.00    +0.520 C 
ATOM      3  N   LIG    1       -3.351   1.928  -1.571  0.00  0.00    -0.640 N 
ATOM      4  H   LIG    1       -2.599   1.329  -1.697  0.00  0.00    +0.420 HD
ENDROOT
BRANCH   3   5
ATOM      5  C   LIG    1       -3.283   2.948  -0.605  0.00  0.00    +0.070 A 
ATOM      6  C   LIG    1       -4.343   3.725  -0.286  0.00  0.00    -0.010 A 
ATOM      7  S   LIG    1       -3.780   4.813   0.921  0.00  0.00    +0.300 S 
ATOM      8  N   LIG    1       -2.194   4.214   0.971  0.00  0.00    -0.440 NA
ATOM      9  C   LIG    1       -2.121   3.236   0.104  0.00  0.00    +0.150 A 
BRANCH   9  10
ATOM     10  C   LIG    1       -0.864   2.479  -0.114  0.00  0.00    -0.030 A 
ATOM     11  C   LIG    1       -0.896   1.091  -0.243  0.00  0.00    +0.020 A 
ATOM     12  C   LIG    1        0.277   0.392  -0.441  0.00  0.00    +0.020 A 
ATOM     13  C   LIG    1        1.482   1.066  -0.524  0.00  0.00    +0.030 A 
ATOM     14  C   LIG    1        1.519   2.444  -0.403  0.00  0.00    +0.020 A 
ATOM     15  C   LIG    1        0.353   3.153  -0.199  0.00  0.00    +0.050 A 
ENDBRANCH   9  10
ENDBRANCH   3   5
BRANCH   2  16
ATOM     16  C   LIG    1       -4.583   0.619  -3.269  0.00  0.00    +0.010 C 
BRANCH  16  17
ATOM     17  C   LIG    1       -4.494  -0.691  -2.484  0.00  0.00    +0.460 C 
ATOM     18  F   LIG    1       -3.304  -0.713  -1.748  0.00  0.00    -0.180 F 
ATOM     19  F   LIG    1       -4.513  -1.770  -3.374  0.00  0.00    -0.170 F 
ATOM     20  F   LIG    1       -5.584  -0.787  -1.612  0.00  0.00    -0.170 F 
ENDBRANCH  16  17
BRANCH  16  21
ATOM     21  C   LIG    1       -5.930   0.689  -3.993  0.00  0.00    +0.110 C 
BRANCH  21  22
ATOM     22  C   LIG    1       -5.950   1.909  -4.917  0.00  0.00    +0.140 C 
ATOM     23  C   LIG    1       -7.319   2.016  -5.593  0.00  0.00    +0.200 C 
ATOM     24  O   LIG    1       -7.293   3.090  -6.538  0.00  0.00    -0.370 OA
ATOM     25  C   LIG    1       -6.284   2.946  -7.541  0.00  0.00    +0.190 C 
ATOM     26  C   LIG    1       -4.914   2.839  -6.864  0.00  0.00    +0.200 C 
ATOM     27  O   LIG    1       -4.940   1.765  -5.920  0.00  0.00    -0.380 OA
ENDBRANCH  21  22
ENDBRANCH  16  21
ENDBRANCH   2  16
TORSDOF 6
