REMARK  Name = ZINCqH0000050swp.0
REMARK                            x       y       z     vdW  Elec       q    Type
REMARK                         _______ _______ _______ _____ _____    ______ ____
ROOT
ATOM      1  N   LIG    1       -0.688   1.621   1.270  0.00  0.00    -0.630 N 
ATOM      2  C   LIG    1       -0.014   1.996   2.374  0.00  0.00    +0.710 C 
ATOM      3  N   LIG    1        1.308   1.751   2.473  0.00  0.00    -0.730 N 
ATOM      4  H   LIG    1        1.774   1.305   1.748  0.00  0.00    +0.390 HD
ATOM      5  O   LIG    1       -0.597   2.556   3.283  0.00  0.00    -0.590 OA
ATOM      6  C   LIG    1        0.015   0.947   0.176  0.00  0.00    +0.280 C 
ENDROOT
BRANCH   1   7
ATOM      7  C   LIG    1       -2.125   1.888   1.163  0.00  0.00    +0.350 C 
ATOM      8  C   LIG    1       -2.861   0.590   0.825  0.00  0.00    +0.040 C 
BRANCH   7  13
ATOM      9  C   LIG    1       -2.425   4.997  -3.332  0.00  0.00    +0.150 C 
ATOM     10  C   LIG    1       -2.506   4.326  -1.985  0.00  0.00    -0.180 A 
ATOM     11  C   LIG    1       -3.207   4.775  -0.943  0.00  0.00    +0.000 A 
ATOM     12  C   LIG    1       -3.135   3.986   0.192  0.00  0.00    +0.020 A 
ATOM     13  C   LIG    1       -2.368   2.901   0.075  0.00  0.00    -0.190 A 
ATOM     14  S   LIG    1       -1.691   2.830  -1.547  0.00  0.00    +0.100 S 
ENDBRANCH   7  13
ENDBRANCH   1   7
BRANCH   3  15
ATOM     15  C   LIG    1        2.041   2.159   3.674  0.00  0.00    +0.340 C 
BRANCH  15  16
ATOM     16  C   LIG    1        3.491   1.772   3.532  0.00  0.00    -0.090 A 
ATOM     17  C   LIG    1        3.966   0.635   4.154  0.00  0.00    +0.040 A 
ATOM     18  C   LIG    1        5.296   0.276   4.021  0.00  0.00    +0.010 A 
ATOM     19  C   LIG    1        6.155   1.060   3.275  0.00  0.00    +0.020 A 
ATOM     20  C   LIG    1        5.687   2.202   2.654  0.00  0.00    -0.030 A 
ATOM     21  C   LIG    1        4.352   2.562   2.781  0.00  0.00    +0.100 A 
BRANCH  21  22
ATOM     22  N   LIG    1        3.875   3.716   2.155  0.00  0.00    -0.500 N 
ATOM     23  C   LIG    1        3.979   3.604   0.693  0.00  0.00    +0.160 C 
ATOM     24  C   LIG    1        3.393   4.862   0.047  0.00  0.00    +0.220 C 
ATOM     25  O   LIG    1        4.075   6.013   0.551  0.00  0.00    -0.380 OA
ATOM     26  C   LIG    1        3.994   6.154   1.972  0.00  0.00    +0.220 C 
ATOM     27  C   LIG    1        4.586   4.909   2.638  0.00  0.00    +0.160 C 
ENDBRANCH  21  22
ENDBRANCH  15  16
ENDBRANCH   3  15
TORSDOF 5
