REMARK  Name = ZINCrD00000hQ5DI.0
REMARK                            x       y       z     vdW  Elec       q    Type
REMARK                         _______ _______ _______ _____ _____    ______ ____
ROOT
ATOM      1  N   LIG    1        0.145  -6.717   5.398  0.00  0.00    -0.610 N 
ATOM      2  C   LIG    1       -1.013  -6.961   6.043  0.00  0.00    +0.530 C 
ATOM      3  O   LIG    1       -2.072  -6.770   5.483  0.00  0.00    -0.540 OA
ENDROOT
BRANCH   1   4
ATOM      4  C   LIG    1        1.423  -6.947   6.075  0.00  0.00    +0.300 C 
BRANCH   4   5
ATOM      5  C   LIG    1        1.854  -5.670   6.800  0.00  0.00    +0.160 C 
BRANCH   5   7
ATOM      6  C   LIG    1        1.234  -4.195   8.584  0.00  0.00    +0.200 C 
ATOM      7  O   LIG    1        0.922  -5.376   7.842  0.00  0.00    -0.390 OA
ENDBRANCH   5   7
ENDBRANCH   4   5
ENDBRANCH   1   4
BRANCH   2   8
ATOM      8  C   LIG    1       -0.993  -7.471   7.461  0.00  0.00    +0.070 C 
BRANCH   8   9
ATOM      9  C   LIG    1       -2.428  -7.663   7.955  0.00  0.00    +0.140 C 
BRANCH   9  10
ATOM     10  C   LIG    1       -2.408  -8.173   9.373  0.00  0.00    -0.170 A 
ATOM     11  C   LIG    1       -2.408  -7.407  10.465  0.00  0.00    +0.000 A 
ATOM     12  C   LIG    1       -2.388  -8.101  11.663  0.00  0.00    +0.010 A 
ATOM     13  C   LIG    1       -2.371  -9.429  11.544  0.00  0.00    -0.060 A 
ATOM     14  S   LIG    1       -2.388  -9.868   9.841  0.00  0.00    +0.090 S 
ENDBRANCH   9  10
ENDBRANCH   8   9
ENDBRANCH   2   8
BRANCH   1  15
ATOM     15  C   LIG    1        0.125  -6.221   4.020  0.00  0.00    +0.290 C 
BRANCH  15  16
ATOM     16  C   LIG    1        0.104  -4.691   4.028  0.00  0.00    +0.000 C 
BRANCH  16  17
ATOM     17  C   LIG    1        0.083  -4.173   2.589  0.00  0.00    +0.260 C 
BRANCH  17  18
ATOM     18  N   LIG    1        0.064  -2.709   2.597  0.00  0.00    -0.730 N 
ATOM     19  H   LIG    1        0.065  -2.228   3.439  0.00  0.00    +0.400 HD
ATOM     20  C   LIG    1        0.043  -2.029   1.433  0.00  0.00    +0.510 C 
ATOM     21  O   LIG    1        0.041  -2.629   0.380  0.00  0.00    -0.540 OA
BRANCH  20  22
ATOM     22  C   LIG    1        0.023  -0.522   1.442  0.00  0.00    +0.060 C 
BRANCH  22  23
ATOM     23  C   LIG    1        0.002  -0.004   0.002  0.00  0.00    +0.140 C 
BRANCH  23  24
ATOM     24  C   LIG    1       -0.018   1.503   0.010  0.00  0.00    -0.180 A 
ATOM     25  C   LIG    1        1.061   2.287   0.004  0.00  0.00    +0.000 A 
ATOM     26  C   LIG    1        0.795   3.645   0.014  0.00  0.00    +0.010 A 
ATOM     27  C   LIG    1       -0.499   3.965   0.027  0.00  0.00    -0.050 A 
ATOM     28  S   LIG    1       -1.469   2.497   0.022  0.00  0.00    +0.100 S 
ENDBRANCH  23  24
ENDBRANCH  22  23
ENDBRANCH  20  22
ENDBRANCH  17  18
ENDBRANCH  16  17
ENDBRANCH  15  16
ENDBRANCH   1  15
TORSDOF 13
