REMARK  Name = ZINCrH000004rRm5.0
REMARK                            x       y       z     vdW  Elec       q    Type
REMARK                         _______ _______ _______ _____ _____    ______ ____
ROOT
ATOM      1  N   LIG    1       -2.024  -5.380  -2.380  0.00  0.00    -0.570 N 
ATOM      2  C   LIG    1       -2.318  -5.668  -0.971  0.00  0.00    +0.300 C 
ATOM      3  C   LIG    1       -2.530  -4.290  -0.305  0.00  0.00    +0.000 C 
ATOM      4  C   LIG    1       -2.975  -3.423  -1.506  0.00  0.00    +0.090 C 
ATOM      5  C   LIG    1       -2.387  -4.129  -2.709  0.00  0.00    +0.520 C 
ATOM      6  O   LIG    1       -2.263  -3.636  -3.811  0.00  0.00    -0.510 OA
ENDROOT
BRANCH   1  12
ATOM      7  C   LIG    1        2.015  -7.308  -4.416  0.00  0.00    +0.090 C 
ATOM      8  C   LIG    1        0.516  -7.248  -4.273  0.00  0.00    -0.080 A 
ATOM      9  C   LIG    1       -0.284  -8.095  -5.018  0.00  0.00    +0.020 A 
ATOM     10  C   LIG    1       -1.660  -8.043  -4.890  0.00  0.00    +0.010 A 
ATOM     11  C   LIG    1       -2.240  -7.148  -4.012  0.00  0.00    +0.010 A 
ATOM     12  C   LIG    1       -1.439  -6.292  -3.266  0.00  0.00    +0.140 A 
ATOM     13  C   LIG    1       -0.058  -6.347  -3.397  0.00  0.00    -0.070 A 
ATOM     14  C   LIG    1        0.814  -5.424  -2.586  0.00  0.00    +0.100 C 
ENDBRANCH   1  12
BRANCH   3  15
ATOM     15  C   LIG    1       -1.244  -3.773   0.286  0.00  0.00    +0.520 C 
ATOM     16  N   LIG    1       -1.207  -2.554   0.859  0.00  0.00    -0.720 N 
ATOM     17  H   LIG    1       -2.009  -2.009   0.890  0.00  0.00    +0.400 HD
ATOM     18  O   LIG    1       -0.241  -4.455   0.246  0.00  0.00    -0.520 OA
BRANCH  16  19
ATOM     19  C   LIG    1        0.043  -2.052   1.433  0.00  0.00    +0.230 C 
ATOM     20  C   LIG    1        0.190  -2.567   2.866  0.00  0.00    +0.030 C 
BRANCH  19  21
ATOM     21  C   LIG    1        0.023  -0.522   1.442  0.00  0.00    +0.030 C 
BRANCH  21  22
ATOM     22  C   LIG    1        0.002  -0.004   0.002  0.00  0.00    +0.060 C 
BRANCH  22  23
ATOM     23  C   LIG    1       -0.018   1.503   0.010  0.00  0.00    -0.080 A 
ATOM     24  C   LIG    1       -1.225   2.178   0.020  0.00  0.00    +0.000 A 
ATOM     25  C   LIG    1       -1.244   3.560   0.032  0.00  0.00    +0.000 A 
ATOM     26  C   LIG    1       -0.056   4.267   0.025  0.00  0.00    +0.000 A 
ATOM     27  C   LIG    1        1.151   3.592   0.010  0.00  0.00    +0.000 A 
ATOM     28  C   LIG    1        1.169   2.210   0.003  0.00  0.00    +0.000 A 
ENDBRANCH  22  23
ENDBRANCH  21  22
ENDBRANCH  19  21
ENDBRANCH  16  19
ENDBRANCH   3  15
TORSDOF 6
