REMARK  Name = ZINCrD0000073rK1.0
REMARK                            x       y       z     vdW  Elec       q    Type
REMARK                         _______ _______ _______ _____ _____    ______ ____
ROOT
ATOM      1  N   LIG    1        0.863  -0.190  -1.338  0.00  0.00    -0.600 N 
ATOM      2  C   LIG    1        1.251   0.388  -0.184  0.00  0.00    +0.530 C 
ATOM      3  O   LIG    1        2.260   0.011   0.374  0.00  0.00    -0.540 OA
ATOM      4  C   LIG    1        1.629  -1.311  -1.890  0.00  0.00    +0.290 C 
ENDROOT
BRANCH   2   5
ATOM      5  C   LIG    1        0.432   1.504   0.412  0.00  0.00    -0.020 C 
ATOM      6  C   LIG    1       -0.902   0.945   0.914  0.00  0.00    +0.030 C 
ATOM      7  C   LIG    1       -1.748   2.083   1.490  0.00  0.00    +0.020 C 
ATOM      8  C   LIG    1       -1.011   2.712   2.676  0.00  0.00    +0.260 C 
ATOM      9  N   LIG    1        0.333   3.123   2.237  0.00  0.00    -0.610 N 
ATOM     10  C   LIG    1        0.765   4.386   2.425  0.00  0.00    +0.530 C 
ATOM     11  O   LIG    1        1.837   4.733   1.978  0.00  0.00    -0.540 OA
ATOM     12  C   LIG    1        1.194   2.127   1.586  0.00  0.00    +0.310 C 
BRANCH  10  13
ATOM     13  C   LIG    1       -0.085   5.367   3.191  0.00  0.00    -0.080 C 
ATOM     14  C   LIG    1       -0.447   4.773   4.553  0.00  0.00    +0.040 C 
ATOM     15  C   LIG    1       -1.365   5.655   2.404  0.00  0.00    +0.050 C 
ATOM     16  C   LIG    1        0.694   6.668   3.392  0.00  0.00    +0.050 C 
ENDBRANCH  10  13
ENDBRANCH   2   5
BRANCH   1  17
ATOM     17  C   LIG    1       -0.324   0.302  -2.042  0.00  0.00    +0.230 C 
ATOM     18  C   LIG    1        0.095   0.928  -3.373  0.00  0.00    +0.020 C 
BRANCH  17  19
ATOM     19  C   LIG    1       -1.281  -0.862  -2.304  0.00  0.00    +0.080 C 
BRANCH  19  23
ATOM     20  C   LIG    1       -2.831  -2.297   1.411  0.00  0.00    +0.130 A 
ATOM     21  C   LIG    1       -3.550  -1.372   0.668  0.00  0.00    -0.020 A 
ATOM     22  C   LIG    1       -3.047  -0.910  -0.532  0.00  0.00    +0.050 A 
ATOM     23  C   LIG    1       -1.827  -1.368  -0.994  0.00  0.00    -0.120 A 
ATOM     24  C   LIG    1       -1.111  -2.295  -0.259  0.00  0.00    +0.050 A 
ATOM     25  C   LIG    1       -1.607  -2.756   0.945  0.00  0.00    -0.070 A 
BRANCH  20  27
ATOM     26  C   LIG    1       -2.529  -3.705   3.302  0.00  0.00    +0.250 C 
ATOM     27  O   LIG    1       -3.324  -2.753   2.592  0.00  0.00    -0.320 OA
ENDBRANCH  20  27
ENDBRANCH  19  23
ENDBRANCH  17  19
ENDBRANCH   1  17
TORSDOF 6
