REMARK  Name = ZINCnE000004TjjJ.0
REMARK                            x       y       z     vdW  Elec       q    Type
REMARK                         _______ _______ _______ _____ _____    ______ ____
ROOT
ATOM      1  C   LIG    1       -0.013   1.086   0.008  0.00  0.00    -0.030 C 
ATOM      2  C   LIG    1       -0.749   1.593  -1.234  0.00  0.00    +0.020 C 
ATOM      3  C   LIG    1       -0.051   1.072  -2.492  0.00  0.00    +0.020 C 
ATOM      4  C   LIG    1        1.385   1.603  -2.531  0.00  0.00    +0.160 C 
ATOM      5  N   LIG    1        2.057   1.242  -1.275  0.00  0.00    -0.570 N 
ATOM      6  C   LIG    1        3.231   0.581  -1.289  0.00  0.00    +0.510 C 
ATOM      7  O   LIG    1        3.743   0.278  -2.346  0.00  0.00    -0.530 OA
ATOM      8  C   LIG    1        1.424   1.617  -0.003  0.00  0.00    +0.280 C 
ENDROOT
BRANCH   4   9
ATOM      9  C   LIG    1        1.366   3.102  -2.682  0.00  0.00    +0.500 C 
ATOM     10  O   LIG    1        0.851   3.610  -3.663  0.00  0.00    -0.690 OA
ATOM     11  O   LIG    1        1.866   3.808  -1.822  0.00  0.00    -0.690 OA
ENDBRANCH   4   9
BRANCH   1  13
ATOM     12  C   LIG    1       -0.067   0.972   2.503  0.00  0.00    +0.000 C 
ATOM     13  C   LIG    1       -0.730   1.580   1.266  0.00  0.00    +0.010 C 
ENDBRANCH   1  13
BRANCH   6  14
ATOM     14  C   LIG    1        3.908   0.218   0.007  0.00  0.00    +0.230 C 
BRANCH  14  15
ATOM     15  O   LIG    1        5.127  -0.473  -0.269  0.00  0.00    -0.280 OA
BRANCH  15  16
ATOM     16  C   LIG    1        5.865  -0.874   0.800  0.00  0.00    +0.160 A 
ATOM     17  C   LIG    1        7.061  -1.550   0.605  0.00  0.00    +0.020 A 
ATOM     18  C   LIG    1        7.810  -1.957   1.692  0.00  0.00    +0.090 A 
ATOM     19  C   LIG    1        7.368  -1.691   2.976  0.00  0.00    -0.070 A 
ATOM     20  C   LIG    1        6.175  -1.016   3.174  0.00  0.00    +0.010 A 
ATOM     21 CL   LIG    1        5.624  -0.682   4.786  0.00  0.00    -0.050 Cl
ATOM     22 CL   LIG    1        8.311  -2.204   4.340  0.00  0.00    -0.050 Cl
ATOM     23  C   LIG    1        5.426  -0.602   2.088  0.00  0.00    -0.050 A 
ENDBRANCH  15  16
ENDBRANCH  14  15
ENDBRANCH   6  14
TORSDOF 5
