REMARK  Name = ZINCpk00000ebHiC.0
REMARK                            x       y       z     vdW  Elec       q    Type
REMARK                         _______ _______ _______ _____ _____    ______ ____
ROOT
ATOM      1  C   LIG    1       -2.452   5.630  -0.061  0.00  0.00    +0.520 C 
ATOM      2  N   LIG    1       -3.531   6.437  -0.024  0.00  0.00    -0.610 N 
ATOM      3  C   LIG    1       -4.888   5.872  -0.014  0.00  0.00    +0.270 C 
ATOM      4  C   LIG    1       -5.635   6.425   1.211  0.00  0.00    +0.280 C 
ATOM      5  N   LIG    1       -5.476   7.886   1.236  0.00  0.00    -0.610 N 
ATOM      6  C   LIG    1       -4.120   8.451   1.220  0.00  0.00    +0.290 C 
ATOM      7  C   LIG    1       -6.555   8.693   1.273  0.00  0.00    +0.610 C 
ATOM      8  O   LIG    1       -6.412   9.895   1.397  0.00  0.00    -0.510 OA
ATOM      9  C   LIG    1       -3.373   7.898   0.001  0.00  0.00    +0.290 C 
ATOM     10  O   LIG    1       -1.338   6.108  -0.074  0.00  0.00    -0.510 OA
ENDROOT
BRANCH   7  11
ATOM     11  C   LIG    1       -7.902   8.122   1.165  0.00  0.00    -0.090 A 
ATOM     12  C   LIG    1       -9.067   8.827   1.072  0.00  0.00    +0.050 A 
ATOM     13  C   LIG    1      -10.104   7.885   0.987  0.00  0.00    -0.060 A 
ATOM     14  C   LIG    1       -9.534   6.661   1.040  0.00  0.00    +0.200 A 
ATOM     15  O   LIG    1       -8.207   6.808   1.147  0.00  0.00    -0.160 OA
ENDBRANCH   7  11
BRANCH   1  16
ATOM     16  C   LIG    1       -2.631   4.134  -0.087  0.00  0.00    +0.250 C 
BRANCH  16  17
ATOM     17  O   LIG    1       -1.329   3.492  -0.125  0.00  0.00    -0.330 OA
BRANCH  17  19
ATOM     18  O   LIG    1       -2.356   1.524  -0.143  0.00  0.00    -0.500 OA
ATOM     19  C   LIG    1       -1.312   2.145  -0.152  0.00  0.00    +0.510 C 
BRANCH  19  20
ATOM     20  C   LIG    1       -0.024   1.424  -0.191  0.00  0.00    -0.130 A 
ATOM     21  C   LIG    1        1.178   2.134  -0.208  0.00  0.00    +0.080 A 
ATOM     22  C   LIG    1        2.377   1.454  -0.250  0.00  0.00    +0.000 A 
ATOM     23  C   LIG    1        2.391   0.071  -0.277  0.00  0.00    +0.050 A 
ATOM     24  C   LIG    1        1.204  -0.640  -0.262  0.00  0.00    +0.000 A 
ATOM     25  C   LIG    1       -0.002   0.028  -0.219  0.00  0.00    +0.090 A 
ENDBRANCH  19  20
ENDBRANCH  17  19
ENDBRANCH  16  17
ENDBRANCH   1  16
TORSDOF 5
