REMARK  Name = ZINCpe00000MJLFE.0
REMARK                            x       y       z     vdW  Elec       q    Type
REMARK                         _______ _______ _______ _____ _____    ______ ____
ROOT
ATOM      1  C   LIG    1       -2.706   0.481   2.208  0.00  0.00    +0.550 C 
ATOM      2  N   LIG    1       -2.141   1.168   1.196  0.00  0.00    -0.600 N 
ATOM      3  C   LIG    1       -0.730   1.575   1.264  0.00  0.00    +0.270 C 
ATOM      4  C   LIG    1       -0.012   1.076   0.006  0.00  0.00    +0.020 C 
ATOM      5  C   LIG    1       -0.753   1.581  -1.234  0.00  0.00    +0.020 C 
ATOM      6  C   LIG    1       -2.179   1.026  -1.240  0.00  0.00    +0.260 C 
ATOM      7  C   LIG    1       -2.922   1.524   0.004  0.00  0.00    +0.280 C 
ATOM      8  O   LIG    1       -3.897   0.231   2.182  0.00  0.00    -0.540 OA
ENDROOT
BRANCH   6   9
ATOM      9  N   LIG    1       -2.877   1.484  -2.443  0.00  0.00    -0.630 N 
ATOM     10  C   LIG    1       -3.440   0.613  -3.486  0.00  0.00    +0.250 C 
ATOM     11  C   LIG    1       -4.053   1.599  -4.500  0.00  0.00    +0.250 C 
ATOM     12  N   LIG    1       -3.762   2.921  -3.926  0.00  0.00    -0.740 N 
ATOM     13  H   LIG    1       -4.010   3.772  -4.320  0.00  0.00    +0.430 HD
ATOM     14  C   LIG    1       -3.100   2.764  -2.772  0.00  0.00    +0.700 C 
ATOM     15  O   LIG    1       -2.734   3.697  -2.085  0.00  0.00    -0.580 OA
ENDBRANCH   6   9
BRANCH   1  17
ATOM     16  C   LIG    1       -2.429  -0.740   4.299  0.00  0.00    +0.120 C 
ATOM     17  C   LIG    1       -1.888   0.036   3.340  0.00  0.00    -0.080 C 
BRANCH  16  21
ATOM     18  C   LIG    1       -0.058  -2.030   7.577  0.00  0.00    -0.130 A 
ATOM     19  C   LIG    1       -1.399  -2.411   7.494  0.00  0.00    +0.080 A 
ATOM     20  C   LIG    1       -2.169  -1.993   6.431  0.00  0.00    +0.040 A 
ATOM     21  C   LIG    1       -1.607  -1.188   5.435  0.00  0.00    -0.050 A 
ATOM     22  C   LIG    1       -0.262  -0.812   5.517  0.00  0.00    +0.020 A 
ATOM     23  C   LIG    1        0.504  -1.226   6.583  0.00  0.00    +0.040 A 
BRANCH  18  27
ATOM     24  N   LIG    1        2.062  -2.112   8.800  0.00  0.00    -0.850 N 
ATOM     25  H   LIG    1        2.604  -2.406   9.549  0.00  0.00    +0.410 HD
ATOM     26  H   LIG    1        2.452  -1.553   8.109  0.00  0.00    +0.400 HD
ATOM     27  C   LIG    1        0.768  -2.479   8.719  0.00  0.00    +0.560 C 
ATOM     28  O   LIG    1        0.279  -3.179   9.584  0.00  0.00    -0.540 OA
ENDBRANCH  18  27
ENDBRANCH  16  21
ENDBRANCH   1  17
TORSDOF 4
