REMARK  Name = ZINCrD0000072yAG.0
REMARK                            x       y       z     vdW  Elec       q    Type
REMARK                         _______ _______ _______ _____ _____    ______ ____
ROOT
ATOM      1  C   LIG    1       -0.084   5.667   5.981  0.00  0.00    +0.520 C 
ATOM      2  N   LIG    1        1.083   5.387   5.368  0.00  0.00    -0.680 N 
ATOM      3  H   LIG    1        1.920   5.501   5.844  0.00  0.00    +0.410 HD
ATOM      4  O   LIG    1       -1.135   5.435   5.422  0.00  0.00    -0.510 OA
ENDROOT
BRANCH   2   5
ATOM      5  C   LIG    1        1.086   4.932   4.045  0.00  0.00    +0.160 A 
ATOM      6  C   LIG    1        0.121   5.381   3.152  0.00  0.00    +0.020 A 
ATOM      7  C   LIG    1        0.127   4.930   1.847  0.00  0.00    +0.070 A 
ATOM      8  C   LIG    1        1.091   4.032   1.428  0.00  0.00    -0.130 A 
ATOM      9  C   LIG    1        2.050   3.579   2.316  0.00  0.00    +0.050 A 
ATOM     10  C   LIG    1        2.053   4.031   3.621  0.00  0.00    -0.020 A 
BRANCH   8  11
ATOM     11  C   LIG    1        1.094   3.541   0.004  0.00  0.00    +0.340 C 
BRANCH  11  12
ATOM     12  N   LIG    1        1.917   4.433  -0.818  0.00  0.00    -0.490 N 
ATOM     13  C   LIG    1        3.242   4.178  -0.965  0.00  0.00    +0.290 A 
ATOM     14  C   LIG    1        4.022   4.987  -1.719  0.00  0.00    -0.080 A 
ATOM     15  C   LIG    1        3.462   6.101  -2.359  0.00  0.00    +0.110 A 
ATOM     16  C   LIG    1        2.130   6.356  -2.211  0.00  0.00    -0.090 A 
ATOM     17  C   LIG    1        1.349   5.495  -1.421  0.00  0.00    +0.510 A 
ATOM     18  O   LIG    1        0.156   5.711  -1.280  0.00  0.00    -0.550 OA
ENDBRANCH  11  12
ENDBRANCH   8  11
ENDBRANCH   2   5
BRANCH   1  19
ATOM     19  C   LIG    1       -0.084   6.269   7.363  0.00  0.00    +0.040 C 
BRANCH  19  20
ATOM     20  C   LIG    1       -1.526   6.486   7.825  0.00  0.00    +0.310 C 
BRANCH  20  22
ATOM     21  C   LIG    1       -1.538   6.201  10.347  0.00  0.00    +0.280 C 
ATOM     22  N   LIG    1       -1.525   7.072   9.168  0.00  0.00    -0.630 N 
BRANCH  22  23
ATOM     23  C   LIG    1       -1.513   8.459   9.326  0.00  0.00    +0.210 A 
ATOM     24  C   LIG    1       -1.495   9.286   8.210  0.00  0.00    -0.080 A 
ATOM     25  C   LIG    1       -1.488  10.658   8.369  0.00  0.00    +0.050 A 
ATOM     26  C   LIG    1       -1.487  11.209   9.637  0.00  0.00    -0.060 A 
ATOM     27  C   LIG    1       -1.499  10.388  10.750  0.00  0.00    +0.050 A 
ATOM     28  C   LIG    1       -1.512   9.016  10.598  0.00  0.00    -0.080 A 
ENDBRANCH  22  23
ENDBRANCH  20  22
ENDBRANCH  19  20
ENDBRANCH   1  19
TORSDOF 7
