REMARK  Name = ZINCvU0000000HOE.0
REMARK                            x       y       z     vdW  Elec       q    Type
REMARK                         _______ _______ _______ _____ _____    ______ ____
ROOT
ATOM      1  C   LIG    1       -0.877   1.562  -1.250  0.00  0.00    +0.190 C 
ATOM      2  N   LIG    1       -1.842   2.288  -0.800  0.00  0.00    -0.280 NA
ATOM      3  N   LIG    1       -2.075   2.143   0.566  0.00  0.00    -0.430 N 
ATOM      4  C   LIG    1       -1.113   1.168   1.113  0.00  0.00    +0.310 C 
ATOM      5  C   LIG    1       -0.283   0.755  -0.118  0.00  0.00    +0.110 C 
ENDROOT
BRANCH   1   9
ATOM      6  C   LIG    1        0.429   1.452  -5.288  0.00  0.00    +0.160 A 
ATOM      7  C   LIG    1       -0.626   2.279  -4.924  0.00  0.00    -0.020 A 
ATOM      8  C   LIG    1       -1.053   2.318  -3.615  0.00  0.00    +0.110 A 
ATOM      9  C   LIG    1       -0.424   1.524  -2.652  0.00  0.00    -0.090 A 
ATOM     10  C   LIG    1        0.640   0.697  -3.022  0.00  0.00    +0.100 A 
ATOM     11  C   LIG    1        1.057   0.660  -4.335  0.00  0.00    -0.070 A 
BRANCH   6  13
ATOM     12  C   LIG    1        1.936   0.544  -6.886  0.00  0.00    +0.240 C 
ATOM     13  O   LIG    1        0.847   1.416  -6.580  0.00  0.00    -0.310 OA
ENDBRANCH   6  13
ENDBRANCH   1   9
BRANCH   4  14
ATOM     14  C   LIG    1       -0.234   1.812   2.154  0.00  0.00    -0.010 A 
ATOM     15  C   LIG    1       -0.193   3.189   2.267  0.00  0.00    +0.040 A 
ATOM     16  C   LIG    1        0.613   3.780   3.222  0.00  0.00    +0.080 A 
ATOM     17  C   LIG    1        1.379   2.994   4.063  0.00  0.00    +0.040 A 
ATOM     18  C   LIG    1        1.337   1.617   3.950  0.00  0.00    +0.110 A 
ATOM     19  C   LIG    1        0.527   1.026   2.998  0.00  0.00    -0.030 A 
BRANCH  19  20
ATOM     20  N   LIG    1        0.479  -0.449   2.881  0.00  0.00    +0.030 N 
ATOM     21  O   LIG    1       -0.231  -0.970   2.039  0.00  0.00    -0.170 OA
ATOM     22  O   LIG    1        1.150  -1.141   3.625  0.00  0.00    -0.150 OA
ENDBRANCH  19  20
ENDBRANCH   4  14
BRANCH   3  23
ATOM     23  C   LIG    1       -3.023   2.789   1.273  0.00  0.00    +0.580 C 
ATOM     24  S   LIG    1       -3.184   2.501   2.952  0.00  0.00    -0.580 S 
BRANCH  23  25
ATOM     25  N   LIG    1       -3.844   3.663   0.657  0.00  0.00    -0.610 N 
ATOM     26  H   LIG    1       -3.702   3.887  -0.276  0.00  0.00    +0.420 HD
BRANCH  25  27
ATOM     27  C   LIG    1       -4.901   4.246   1.363  0.00  0.00    +0.120 A 
ATOM     28  C   LIG    1       -5.668   3.477   2.228  0.00  0.00    +0.070 A 
ATOM     29  C   LIG    1       -6.709   4.056   2.927  0.00  0.00    +0.020 A 
ATOM     30  C   LIG    1       -6.993   5.399   2.760  0.00  0.00    +0.020 A 
ATOM     31  C   LIG    1       -6.234   6.167   1.896  0.00  0.00    +0.020 A 
ATOM     32  C   LIG    1       -5.189   5.595   1.197  0.00  0.00    +0.000 A 
ENDBRANCH  25  27
ENDBRANCH  23  25
ENDBRANCH   3  23
TORSDOF 7
