REMARK  Name = ZINCpe00000MJMgf.0
REMARK                            x       y       z     vdW  Elec       q    Type
REMARK                         _______ _______ _______ _____ _____    ______ ____
ROOT
ATOM      1  O   LIG    1       -0.971   0.277  -2.163  0.00  0.00    -0.490 OA
ATOM      2  C   LIG    1       -0.605  -0.501  -1.307  0.00  0.00    +0.520 C 
ATOM      3  N   LIG    1       -0.848  -1.819  -1.447  0.00  0.00    -0.660 N 
ATOM      4  H   LIG    1       -0.490  -2.450  -0.803  0.00  0.00    +0.420 HD
ENDROOT
BRANCH   2   5
ATOM      5  C   LIG    1        0.121   0.006  -0.088  0.00  0.00    +0.040 C 
ATOM      6  C   LIG    1        1.489  -0.700   0.009  0.00  0.00    -0.270 C 
ATOM      7  S   LIG    1        2.627   0.499  -0.795  0.00  0.00    +2.390 S 
ATOM      8  C   LIG    1        1.731   1.977  -0.169  0.00  0.00    -0.270 C 
ATOM      9  O   LIG    1        2.493   0.417  -2.208  0.00  0.00    -0.900 OA
ATOM     10  O   LIG    1        3.911   0.422  -0.193  0.00  0.00    -0.910 OA
ATOM     11  C   LIG    1        0.259   1.520  -0.189  0.00  0.00    +0.030 C 
BRANCH  11  12
ATOM     12  C   LIG    1       -0.477   2.164   0.989  0.00  0.00    +0.470 C 
ATOM     13  F   LIG    1       -1.829   1.808   0.945  0.00  0.00    -0.170 F 
ATOM     14  F   LIG    1       -0.358   3.556   0.907  0.00  0.00    -0.170 F 
ATOM     15  F   LIG    1        0.085   1.718   2.190  0.00  0.00    -0.180 F 
ENDBRANCH  11  12
ENDBRANCH   2   5
BRANCH   3  16
ATOM     16  C   LIG    1       -1.617  -2.279  -2.522  0.00  0.00    +0.120 A 
ATOM     17  C   LIG    1       -1.360  -3.518  -3.093  0.00  0.00    +0.290 A 
ATOM     18  N   LIG    1       -2.080  -3.957  -4.106  0.00  0.00    -0.430 NA
ATOM     19  C   LIG    1       -3.066  -3.248  -4.618  0.00  0.00    +0.280 A 
ATOM     20  C   LIG    1       -3.386  -1.999  -4.103  0.00  0.00    +0.020 A 
ATOM     21  C   LIG    1       -2.654  -1.502  -3.031  0.00  0.00    +0.120 A 
BRANCH  20  22
ATOM     22  O   LIG    1       -4.404  -1.274  -4.636  0.00  0.00    -0.650 OA
BRANCH  22  23
ATOM     23  S   LIG    1       -5.757  -1.538  -3.990  0.00  0.00    +2.740 S 
ATOM     24  F   LIG    1       -6.347  -2.882  -4.652  0.00  0.00    -0.480 F 
ATOM     25  O   LIG    1       -6.611  -0.480  -4.402  0.00  0.00    -0.910 OA
ATOM     26  O   LIG    1       -5.498  -1.843  -2.627  0.00  0.00    -0.940 OA
ENDBRANCH  22  23
ENDBRANCH  20  22
ENDBRANCH   3  16
TORSDOF 5
