REMARK  Name = ZINCrD000000fEVp.0
REMARK                            x       y       z     vdW  Elec       q    Type
REMARK                         _______ _______ _______ _____ _____    ______ ____
ROOT
ATOM      1  C   LIG    1       -2.503   1.007   0.020  0.00  0.00    +0.570 C 
ATOM      2  N   LIG    1       -3.676   1.670   0.029  0.00  0.00    -0.650 N 
ATOM      3  H   LIG    1       -3.686   2.640   0.034  0.00  0.00    +0.410 HD
ATOM      4  O   LIG    1       -2.491  -0.208   0.013  0.00  0.00    -0.490 OA
ENDROOT
BRANCH   1   8
ATOM      5  C   LIG    1        1.155   3.167   0.008  0.00  0.00    -0.080 A 
ATOM      6  C   LIG    1        1.172   1.783   0.000  0.00  0.00    +0.040 A 
ATOM      7  C   LIG    1       -0.013   1.076   0.008  0.00  0.00    +0.090 A 
ATOM      8  C   LIG    1       -1.230   1.759   0.017  0.00  0.00    -0.130 A 
ATOM      9  C   LIG    1       -1.240   3.155   0.029  0.00  0.00    +0.040 A 
ATOM     10  C   LIG    1       -0.048   3.850   0.022  0.00  0.00    +0.040 A 
BRANCH   5  11
ATOM     11  C   LIG    1        2.452   3.933  -0.001  0.00  0.00    +0.310 C 
BRANCH  11  14
ATOM     12  C   LIG    1        4.417   5.126  -3.063  0.00  0.00    +0.090 C 
ATOM     13  C   LIG    1        3.998   4.863  -1.639  0.00  0.00    +0.510 C 
ATOM     14  N   LIG    1        2.859   4.188  -1.385  0.00  0.00    -0.730 N 
ATOM     15  H   LIG    1        2.309   3.872  -2.119  0.00  0.00    +0.400 HD
ATOM     16  O   LIG    1        4.686   5.259  -0.722  0.00  0.00    -0.540 OA
ENDBRANCH  11  14
ENDBRANCH   5  11
ENDBRANCH   1   8
BRANCH   2  17
ATOM     17  C   LIG    1       -4.876   0.962   0.031  0.00  0.00    +0.310 A 
ATOM     18  C   LIG    1       -5.012  -0.393   0.019  0.00  0.00    -0.080 A 
ATOM     19  C   LIG    1       -6.378  -0.688   0.030  0.00  0.00    +0.100 A 
ATOM     20  N   LIG    1       -7.045   0.439   0.039  0.00  0.00    -0.280 NA
ATOM     21  C   LIG    1       -6.982  -2.068   0.026  0.00  0.00    +0.170 C 
ATOM     22  N   LIG    1       -6.128   1.497   0.040  0.00  0.00    -0.340 N 
BRANCH  22  23
ATOM     23  C   LIG    1       -6.442   2.863   0.049  0.00  0.00    +0.150 A 
ATOM     24  C   LIG    1       -5.638   3.757   0.743  0.00  0.00    -0.030 A 
ATOM     25  C   LIG    1       -5.947   5.103   0.745  0.00  0.00    +0.050 A 
ATOM     26  C   LIG    1       -7.062   5.559   0.066  0.00  0.00    -0.090 A 
ATOM     27  C   LIG    1       -7.867   4.670  -0.623  0.00  0.00    +0.050 A 
ATOM     28  C   LIG    1       -7.401   7.027   0.076  0.00  0.00    +0.100 C 
ATOM     29  C   LIG    1       -7.560   3.323  -0.633  0.00  0.00    +0.040 A 
ENDBRANCH  22  23
ENDBRANCH   2  17
TORSDOF 5
