REMARK  Name = ZINCrH000004n5lj.0
REMARK                            x       y       z     vdW  Elec       q    Type
REMARK                         _______ _______ _______ _____ _____    ______ ____
ROOT
ATOM      1  C   LIG    1        1.211   2.273  -0.019  0.00  0.00    +0.300 C 
ATOM      2  C   LIG    1        1.657   2.591   1.430  0.00  0.00    +0.020 C 
ATOM      3  C   LIG    1        2.157   1.376   2.089  0.00  0.00    +0.000 C 
ATOM      4  C   LIG    1        1.115   0.273   2.249  0.00  0.00    +0.000 C 
ATOM      5  C   LIG    1        1.059  -0.549   0.984  0.00  0.00    +0.020 C 
ATOM      6  C   LIG    1       -0.009   0.018   0.032  0.00  0.00    +0.250 C 
ATOM      7  N   LIG    1       -0.006   1.494   0.009  0.00  0.00    -0.620 N 
ATOM      8  C   LIG    1       -1.188   2.142   0.007  0.00  0.00    +0.690 C 
ATOM      9  N   LIG    1       -2.338   1.446  -0.096  0.00  0.00    -0.670 N 
ATOM     10  H   LIG    1       -2.320   0.476  -0.096  0.00  0.00    +0.410 HD
ATOM     11  O   LIG    1       -1.217   3.354   0.098  0.00  0.00    -0.490 OA
ENDROOT
BRANCH   1  15
ATOM     12  C   LIG    1        0.518   5.923  -2.130  0.00  0.00    +0.120 A 
ATOM     13  C   LIG    1        1.022   5.953  -0.837  0.00  0.00    -0.010 A 
ATOM     14  C   LIG    1        1.245   4.771  -0.157  0.00  0.00    +0.070 A 
ATOM     15  C   LIG    1        0.967   3.560  -0.763  0.00  0.00    -0.090 A 
ATOM     16  C   LIG    1        0.469   3.528  -2.053  0.00  0.00    +0.040 A 
ATOM     17  C   LIG    1        0.239   4.707  -2.735  0.00  0.00    -0.080 A 
BRANCH  12  19
ATOM     18  C   LIG    1       -0.222   6.978  -4.128  0.00  0.00    +0.230 C 
ATOM     19  O   LIG    1        0.298   7.085  -2.801  0.00  0.00    -0.320 OA
ENDBRANCH  12  19
ENDBRANCH   1  15
BRANCH   9  20
ATOM     20  C   LIG    1       -3.551   2.119  -0.201  0.00  0.00    +0.450 A 
ATOM     21  C   LIG    1       -4.731   1.416  -0.412  0.00  0.00    -0.200 A 
ATOM     22  C   LIG    1       -5.919   2.136  -0.510  0.00  0.00    +0.460 A 
ATOM     23  N   LIG    1       -5.882   3.462  -0.399  0.00  0.00    -0.600 NA
ATOM     24  C   LIG    1       -4.742   4.091  -0.199  0.00  0.00    +0.570 A 
ATOM     25  N   LIG    1       -3.599   3.446  -0.096  0.00  0.00    -0.540 NA
BRANCH  22  26
ATOM     26  N   LIG    1       -7.123   1.481  -0.720  0.00  0.00    -0.610 N 
ATOM     27  C   LIG    1       -8.350   2.254  -0.931  0.00  0.00    +0.300 C 
ATOM     28  C   LIG    1       -7.168   0.017  -0.732  0.00  0.00    +0.290 C 
ENDBRANCH  22  26
ENDBRANCH   9  20
TORSDOF 4
