REMARK  Name = ZINCrH000004nbZH.0
REMARK                            x       y       z     vdW  Elec       q    Type
REMARK                         _______ _______ _______ _____ _____    ______ ____
ROOT
ATOM      1  C   LIG    1        3.658  -3.945  -0.554  0.00  0.00    +0.150 A 
ATOM      2  C   LIG    1        3.756  -3.836   0.826  0.00  0.00    -0.080 A 
ATOM      3  C   LIG    1        3.233  -2.727   1.468  0.00  0.00    +0.080 A 
ATOM      4  C   LIG    1        2.613  -1.742   0.734  0.00  0.00    -0.180 A 
ATOM      5  C   LIG    1        2.068  -0.496   1.407  0.00  0.00    +0.340 C 
ATOM      6  N   LIG    1        0.611  -0.474   1.250  0.00  0.00    -0.620 N 
ATOM      7  C   LIG    1        0.003  -0.009   0.003  0.00  0.00    +0.290 C 
ATOM      8  C   LIG    1        0.372  -0.917  -1.161  0.00  0.00    +0.220 C 
ATOM      9  O   LIG    1        1.793  -0.924  -1.349  0.00  0.00    -0.320 OA
ATOM     10  C   LIG    1       -0.176  -0.886   2.264  0.00  0.00    +0.710 C 
ATOM     11  N   LIG    1        0.376  -1.414   3.374  0.00  0.00    -0.740 N 
ATOM     12  H   LIG    1        1.340  -1.432   3.475  0.00  0.00    +0.390 HD
ATOM     13  O   LIG    1       -1.385  -0.780   2.177  0.00  0.00    -0.580 OA
ATOM     14  C   LIG    1        2.476  -1.857  -0.643  0.00  0.00    +0.150 A 
ATOM     15  C   LIG    1        3.020  -2.958  -1.289  0.00  0.00    -0.030 A 
ENDROOT
BRANCH   1  17
ATOM     16  C   LIG    1        4.832  -6.004  -0.369  0.00  0.00    +0.250 C 
ATOM     17  O   LIG    1        4.189  -5.024  -1.187  0.00  0.00    -0.310 OA
ENDBRANCH   1  17
BRANCH  11  18
ATOM     18  C   LIG    1       -0.481  -1.960   4.430  0.00  0.00    +0.280 C 
BRANCH  18  19
ATOM     19  C   LIG    1        0.390  -2.492   5.569  0.00  0.00    -0.030 C 
ATOM     20  C   LIG    1        1.237  -1.352   6.139  0.00  0.00    +0.040 C 
ATOM     21  C   LIG    1        1.309  -3.594   5.037  0.00  0.00    +0.040 C 
BRANCH  19  22
ATOM     22  C   LIG    1       -0.491  -3.054   6.655  0.00  0.00    -0.080 A 
ATOM     23  C   LIG    1       -1.866  -3.023   6.514  0.00  0.00    +0.050 A 
ATOM     24  C   LIG    1       -2.675  -3.543   7.506  0.00  0.00    -0.010 A 
ATOM     25  C   LIG    1       -2.109  -4.085   8.647  0.00  0.00    +0.100 A 
ATOM     26  C   LIG    1       -0.732  -4.111   8.790  0.00  0.00    -0.010 A 
ATOM     27  F   LIG    1       -2.899  -4.588   9.621  0.00  0.00    -0.140 F 
ATOM     28  C   LIG    1        0.075  -3.596   7.794  0.00  0.00    +0.050 A 
ENDBRANCH  19  22
ENDBRANCH  18  19
ENDBRANCH  11  18
TORSDOF 4
