REMARK  Name = ZINCpe000000Z52a.0
REMARK                            x       y       z     vdW  Elec       q    Type
REMARK                         _______ _______ _______ _____ _____    ______ ____
ROOT
ATOM      1  C   LIG    1        0.865   1.761   0.083  0.00  0.00    +0.200 C 
ATOM      2  C   LIG    1        0.805   2.632  -1.174  0.00  0.00    +0.250 C 
ATOM      3  O   LIG    1        1.990   3.436  -1.232  0.00  0.00    -0.360 OA
ATOM      4  C   LIG    1        3.172   2.670  -1.476  0.00  0.00    +0.290 C 
ATOM      5  C   LIG    1        3.229   1.505  -0.528  0.00  0.00    +0.490 C 
ATOM      6  O   LIG    1        4.281   0.918  -0.385  0.00  0.00    -0.520 OA
ATOM      7  N   LIG    1        2.160   1.091   0.163  0.00  0.00    -0.580 N 
ENDROOT
BRANCH   1   9
ATOM      8  O   LIG    1       -0.025  -0.347  -0.492  0.00  0.00    -0.510 OA
ATOM      9  C   LIG    1       -0.231   0.728   0.029  0.00  0.00    +0.510 C 
ATOM     10  N   LIG    1       -1.442   1.002   0.553  0.00  0.00    -0.720 N 
ATOM     11  H   LIG    1       -1.607   1.862   0.970  0.00  0.00    +0.410 HD
BRANCH  10  12
ATOM     12  C   LIG    1       -2.509  -0.000   0.495  0.00  0.00    +0.280 C 
BRANCH  12  13
ATOM     13  C   LIG    1       -3.770   0.559   1.157  0.00  0.00    +0.010 C 
BRANCH  13  14
ATOM     14  C   LIG    1       -4.885  -0.488   1.096  0.00  0.00    +0.310 C 
BRANCH  14  15
ATOM     15  N   LIG    1       -6.092   0.048   1.729  0.00  0.00    -0.460 N 
ATOM     16  C   LIG    1       -7.090   0.751   1.111  0.00  0.00    +0.110 A 
ATOM     17  C   LIG    1       -8.002   1.048   2.057  0.00  0.00    +0.140 A 
ATOM     18  N   LIG    1       -7.572   0.540   3.221  0.00  0.00    -0.490 NA
ATOM     19  C   LIG    1       -6.431  -0.066   3.032  0.00  0.00    +0.380 A 
ENDBRANCH  14  15
ENDBRANCH  13  14
ENDBRANCH  12  13
ENDBRANCH  10  12
ENDBRANCH   1   9
BRANCH   7  20
ATOM     20  C   LIG    1        2.294  -0.080   1.034  0.00  0.00    +0.340 C 
BRANCH  20  21
ATOM     21  C   LIG    1        2.708   0.364   2.413  0.00  0.00    -0.110 A 
ATOM     22  C   LIG    1        4.044   0.354   2.770  0.00  0.00    +0.040 A 
ATOM     23  C   LIG    1        4.424   0.765   4.034  0.00  0.00    +0.000 A 
ATOM     24  C   LIG    1        3.468   1.178   4.943  0.00  0.00    +0.010 A 
ATOM     25  C   LIG    1        2.132   1.184   4.588  0.00  0.00    +0.000 A 
ATOM     26  C   LIG    1        1.752   0.776   3.322  0.00  0.00    +0.000 A 
ENDBRANCH  20  21
ENDBRANCH   7  20
TORSDOF 7
