REMARK  Name = ZINCqH00000h220A.0
REMARK                            x       y       z     vdW  Elec       q    Type
REMARK                         _______ _______ _______ _____ _____    ______ ____
ROOT
ATOM      1  C   LIG    1        1.162   2.012  -0.041  0.00  0.00    -0.260 C 
ATOM      2  C   LIG    1        1.123   3.358  -0.138  0.00  0.00    +0.220 C 
ATOM      3  N   LIG    1        2.270   4.100  -0.104  0.00  0.00    -0.540 N 
ATOM      4  C   LIG    1        3.494   3.571   0.015  0.00  0.00    +0.710 C 
ATOM      5  N   LIG    1        3.693   2.242   0.117  0.00  0.00    -0.710 N 
ATOM      6  H   LIG    1        4.589   1.879   0.203  0.00  0.00    +0.440 HD
ATOM      7  O   LIG    1        4.456   4.313   0.032  0.00  0.00    -0.550 OA
ATOM      8  C   LIG    1       -0.206   4.054  -0.282  0.00  0.00    +0.140 C 
ATOM      9  C   LIG    1        2.519   1.353   0.096  0.00  0.00    +0.350 C 
ENDROOT
BRANCH   9  10
ATOM     10  C   LIG    1        2.520   0.552   1.373  0.00  0.00    -0.160 A 
ATOM     11  C   LIG    1        2.985   1.119   2.544  0.00  0.00    +0.100 A 
ATOM     12  C   LIG    1        2.982   0.387   3.717  0.00  0.00    -0.010 A 
ATOM     13  C   LIG    1        2.523  -0.919   3.717  0.00  0.00    +0.140 A 
ATOM     14  C   LIG    1        2.062  -1.490   2.543  0.00  0.00    -0.040 A 
ATOM     15  F   LIG    1        2.525  -1.636   4.862  0.00  0.00    -0.130 F 
ATOM     16  C   LIG    1        2.061  -0.755   1.371  0.00  0.00    +0.140 A 
ATOM     17  F   LIG    1        1.611  -1.311   0.225  0.00  0.00    -0.120 F 
ENDBRANCH   9  10
BRANCH   1  18
ATOM     18  C   LIG    1       -0.025   1.243  -0.071  0.00  0.00    +0.540 C 
ATOM     19  O   LIG    1       -0.354   0.672  -1.094  0.00  0.00    -0.480 OA
BRANCH  18  21
ATOM     20  C   LIG    1       -1.973   0.344   0.934  0.00  0.00    +0.250 C 
ATOM     21  O   LIG    1       -0.789   1.137   1.037  0.00  0.00    -0.350 OA
ENDBRANCH  18  21
ENDBRANCH   1  18
BRANCH   3  22
ATOM     22  C   LIG    1        2.154   5.557  -0.210  0.00  0.00    +0.400 C 
BRANCH  22  23
ATOM     23  C   LIG    1        2.146   6.162   1.170  0.00  0.00    -0.220 A 
ATOM     24  C   LIG    1        3.232   6.470   1.881  0.00  0.00    +0.050 A 
ATOM     25  C   LIG    1        2.978   7.018   3.127  0.00  0.00    +0.000 A 
ATOM     26  C   LIG    1        1.686   7.153   3.428  0.00  0.00    -0.030 A 
ATOM     27  S   LIG    1        0.704   6.575   2.088  0.00  0.00    +0.100 S 
ENDBRANCH  22  23
ENDBRANCH   3  22
TORSDOF 5
