REMARK  Name = ZINCqH0000003sEg.0
REMARK                            x       y       z     vdW  Elec       q    Type
REMARK                         _______ _______ _______ _____ _____    ______ ____
ROOT
ATOM      1  C   LIG    1        2.396   1.043  -0.432  0.00  0.00    +0.370 A 
ATOM      2  N   LIG    1        3.599   1.560  -0.468  0.00  0.00    -0.530 NA
ATOM      3  C   LIG    1        3.835   2.833  -0.073  0.00  0.00    +0.170 A 
ATOM      4  C   LIG    1        5.119   3.384  -0.112  0.00  0.00    +0.030 A 
ATOM      5  C   LIG    1        5.316   4.683   0.298  0.00  0.00    +0.070 A 
ATOM      6  C   LIG    1        4.253   5.455   0.751  0.00  0.00    -0.010 A 
ATOM      7  C   LIG    1        2.979   4.935   0.799  0.00  0.00    +0.100 A 
ATOM      8  C   LIG    1        2.757   3.622   0.388  0.00  0.00    -0.200 A 
ATOM      9  C   LIG    1        1.417   3.019   0.413  0.00  0.00    +0.560 A 
ATOM     10  O   LIG    1        0.448   3.649   0.795  0.00  0.00    -0.500 OA
ATOM     11  N   LIG    1        1.300   1.736  -0.001  0.00  0.00    -0.510 N 
ENDROOT
BRANCH  11  12
ATOM     12  C   LIG    1       -0.013   1.086   0.008  0.00  0.00    +0.170 C 
ATOM     13  C   LIG    1       -1.191   1.866  -0.578  0.00  0.00    +0.080 C 
ATOM     14  C   LIG    1       -0.607   0.674  -1.341  0.00  0.00    +0.060 C 
ENDBRANCH  11  12
BRANCH   1  15
ATOM     15  S   LIG    1        2.180  -0.622  -0.966  0.00  0.00    +0.040 S 
BRANCH  15  16
ATOM     16  C   LIG    1        3.886  -1.034  -1.408  0.00  0.00    +0.220 C 
BRANCH  16  18
ATOM     17  C   LIG    1        3.792  -2.854  -3.203  0.00  0.00    -0.200 A 
ATOM     18  C   LIG    1        3.947  -2.454  -1.907  0.00  0.00    +0.090 A 
ATOM     19  O   LIG    1        4.157  -3.539  -1.154  0.00  0.00    -0.160 OA
ATOM     20  C   LIG    1        4.153  -4.651  -1.905  0.00  0.00    +0.200 A 
ATOM     21  C   LIG    1        3.937  -4.317  -3.186  0.00  0.00    +0.000 A 
BRANCH  17  22
ATOM     22  C   LIG    1        3.535  -1.998  -4.373  0.00  0.00    +0.540 C 
ATOM     23  O   LIG    1        3.440  -0.794  -4.236  0.00  0.00    -0.500 OA
BRANCH  22  24
ATOM     24  O   LIG    1        3.405  -2.550  -5.595  0.00  0.00    -0.350 OA
BRANCH  24  26
ATOM     25  C   LIG    1        3.035  -2.449  -8.000  0.00  0.00    +0.070 C 
ATOM     26  C   LIG    1        3.152  -1.646  -6.703  0.00  0.00    +0.200 C 
ENDBRANCH  24  26
ENDBRANCH  22  24
ENDBRANCH  17  22
ENDBRANCH  16  18
ENDBRANCH  15  16
ENDBRANCH   1  15
TORSDOF 7
