REMARK  Name = ZINCrD000000BNtJ.0
REMARK                            x       y       z     vdW  Elec       q    Type
REMARK                         _______ _______ _______ _____ _____    ______ ____
ROOT
ATOM      1  O   LIG    1        1.095   6.006  -1.193  0.00  0.00    -0.520 OA
ATOM      2  C   LIG    1        2.071   5.323  -1.437  0.00  0.00    +0.620 C 
ATOM      3  N   LIG    1        2.193   4.100  -0.885  0.00  0.00    -0.720 N 
ATOM      4  H   LIG    1        2.972   3.555  -1.080  0.00  0.00    +0.390 HD
ENDROOT
BRANCH   2   5
ATOM      5  C   LIG    1        3.121   5.833  -2.338  0.00  0.00    -0.260 A 
ATOM      6  C   LIG    1        3.131   7.059  -2.973  0.00  0.00    +0.320 A 
ATOM      7  N   LIG    1        4.263   7.128  -3.697  0.00  0.00    -0.310 N 
ATOM      8  N   LIG    1        4.974   5.936  -3.520  0.00  0.00    -0.290 NA
ATOM      9  C   LIG    1        4.308   5.161  -2.709  0.00  0.00    +0.270 A 
BRANCH   7  10
ATOM     10  C   LIG    1        4.662   8.210  -4.494  0.00  0.00    +0.150 A 
ATOM     11  C   LIG    1        3.857   9.337  -4.588  0.00  0.00    -0.010 A 
ATOM     12  C   LIG    1        4.256  10.404  -5.370  0.00  0.00    +0.040 A 
ATOM     13  C   LIG    1        5.449  10.345  -6.066  0.00  0.00    +0.000 A 
ATOM     14  C   LIG    1        6.249   9.221  -5.978  0.00  0.00    +0.030 A 
ATOM     15  C   LIG    1        5.859   8.153  -5.194  0.00  0.00    +0.020 A 
ENDBRANCH   7  10
ENDBRANCH   2   5
BRANCH   3  16
ATOM     16  C   LIG    1        1.151   3.592   0.010  0.00  0.00    +0.310 C 
BRANCH  16  17
ATOM     17  C   LIG    1        1.171   2.086   0.002  0.00  0.00    -0.100 A 
ATOM     18  C   LIG    1       -0.017   1.378   0.010  0.00  0.00    +0.010 A 
ATOM     19  C   LIG    1        0.002  -0.004   0.002  0.00  0.00    +0.000 A 
ATOM     20  C   LIG    1        1.208  -0.679  -0.013  0.00  0.00    +0.000 A 
ATOM     21  C   LIG    1        2.396   0.029  -0.021  0.00  0.00    +0.000 A 
ATOM     22  C   LIG    1        2.377   1.411  -0.015  0.00  0.00    +0.010 A 
ENDBRANCH  16  17
BRANCH  16  23
ATOM     23  C   LIG    1        1.407   4.098   1.431  0.00  0.00    +0.140 C 
BRANCH  23  24
ATOM     24  C   LIG    1        1.266   5.598   1.463  0.00  0.00    +0.200 A 
ATOM     25  N   LIG    1        1.915   6.440   0.706  0.00  0.00    -0.440 NA
ATOM     26  C   LIG    1        1.535   7.691   1.008  0.00  0.00    +0.140 A 
ATOM     27  C   LIG    1        0.621   7.622   1.995  0.00  0.00    +0.110 A 
ATOM     28  N   LIG    1        0.450   6.295   2.284  0.00  0.00    -0.570 N 
ATOM     29  H   LIG    1       -0.145   5.923   2.954  0.00  0.00    +0.410 HD
ENDBRANCH  23  24
ENDBRANCH  16  23
ENDBRANCH   3  16
TORSDOF 6
