REMARK  Name = ZINCpk00001AZj08.0
REMARK                            x       y       z     vdW  Elec       q    Type
REMARK                         _______ _______ _______ _____ _____    ______ ____
ROOT
ATOM      1  N   LIG    1        0.003  -0.004   0.009  0.00  0.00    -0.580 N 
ATOM      2  H   LIG    1        0.849  -0.478  -0.012  0.00  0.00    +0.380 HD
ATOM      3  C   LIG    1       -1.155  -0.694   0.031  0.00  0.00    +0.580 C 
ATOM      4  O   LIG    1       -2.216  -0.101   0.058  0.00  0.00    -0.490 OA
ENDROOT
BRANCH   3   5
ATOM      5  C   LIG    1       -1.135  -2.170   0.021  0.00  0.00    -0.120 A 
ATOM      6  C   LIG    1        0.083  -2.854  -0.015  0.00  0.00    +0.080 A 
ATOM      7  C   LIG    1        0.098  -4.231  -0.019  0.00  0.00    +0.020 A 
ATOM      8  C   LIG    1       -1.097  -4.941   0.003  0.00  0.00    +0.160 A 
ATOM      9  C   LIG    1       -2.311  -4.264   0.034  0.00  0.00    +0.040 A 
ATOM     10  C   LIG    1       -2.334  -2.887   0.043  0.00  0.00    +0.130 A 
BRANCH   8  11
ATOM     11  N   LIG    1       -1.078  -6.341  -0.006  0.00  0.00    -0.340 N 
ATOM     12  C   LIG    1        0.006  -7.146  -0.040  0.00  0.00    +0.470 A 
ATOM     13  N   LIG    1       -0.426  -8.380  -0.033  0.00  0.00    -0.330 NA
ATOM     14  N   LIG    1       -1.710  -8.409  -0.005  0.00  0.00    -0.030 NA
ATOM     15  N   LIG    1       -2.183  -7.210   0.013  0.00  0.00    -0.070 NA
ENDBRANCH   8  11
ENDBRANCH   3   5
BRANCH   1  17
ATOM     16  C   LIG    1        1.099   2.061  -0.002  0.00  0.00    +0.250 C 
ATOM     17  N   LIG    1       -0.016   1.397   0.018  0.00  0.00    -0.240 NA
BRANCH  16  21
ATOM     18  C   LIG    1        1.041   6.306   0.025  0.00  0.00    +0.240 A 
ATOM     19  C   LIG    1        2.256   5.629  -0.006  0.00  0.00    -0.080 A 
ATOM     20  C   LIG    1        2.278   4.252  -0.015  0.00  0.00    +0.100 A 
ATOM     21  C   LIG    1        1.079   3.535   0.007  0.00  0.00    -0.130 A 
ATOM     22  C   LIG    1       -0.140   4.219   0.032  0.00  0.00    +0.110 A 
ATOM     23  C   LIG    1       -0.155   5.596   0.047  0.00  0.00    -0.080 A 
BRANCH  18  25
ATOM     24  C   LIG    1        2.277   8.450   0.139  0.00  0.00    +0.280 C 
ATOM     25  N   LIG    1        1.022   7.701   0.034  0.00  0.00    -0.630 N 
ATOM     26  C   LIG    1       -0.253   8.417  -0.060  0.00  0.00    +0.280 C 
ENDBRANCH  18  25
ENDBRANCH  16  21
ENDBRANCH   1  17
TORSDOF 5
