REMARK  Name = ZINCpk00001AZj5W.0
REMARK                            x       y       z     vdW  Elec       q    Type
REMARK                         _______ _______ _______ _____ _____    ______ ____
ROOT
ATOM      1  C   LIG    1       -0.013   1.086   0.008  0.00  0.00    +0.260 C 
ENDROOT
BRANCH   1   2
ATOM      2  N   LIG    1       -0.721   1.571  -1.179  0.00  0.00    -0.720 N 
ATOM      3  H   LIG    1       -1.516   2.118  -1.079  0.00  0.00    +0.410 HD
ATOM      4  C   LIG    1       -0.268   1.258  -2.409  0.00  0.00    +0.550 C 
ATOM      5  O   LIG    1        0.730   0.572  -2.534  0.00  0.00    -0.540 OA
BRANCH   4   6
ATOM      6  C   LIG    1       -0.952   1.727  -3.555  0.00  0.00    -0.070 C 
ATOM      7  C   LIG    1       -0.496   1.412  -4.793  0.00  0.00    +0.170 C 
BRANCH   7   8
ATOM      8  C   LIG    1       -1.181   1.881  -5.940  0.00  0.00    -0.150 A 
ATOM      9  C   LIG    1       -0.821   1.632  -7.239  0.00  0.00    +0.060 A 
ATOM     10  C   LIG    1       -1.665   2.211  -8.156  0.00  0.00    +0.120 A 
ATOM     11  C   LIG    1       -2.681   2.909  -7.633  0.00  0.00    -0.210 A 
ATOM     12  S   LIG    1       -2.635   2.870  -5.928  0.00  0.00    +0.330 S 
BRANCH  11  13
ATOM     13  N   LIG    1       -3.711   3.614  -8.428  0.00  0.00    +0.060 N 
ATOM     14  O   LIG    1       -4.601   4.226  -7.865  0.00  0.00    -0.160 OA
ATOM     15  O   LIG    1       -3.668   3.583  -9.645  0.00  0.00    -0.140 OA
ENDBRANCH  11  13
ENDBRANCH   7   8
ENDBRANCH   4   6
ENDBRANCH   1   2
BRANCH   1  16
ATOM     16  C   LIG    1       -0.729   1.579   1.267  0.00  0.00    +0.210 C 
BRANCH  16  17
ATOM     17  O   LIG    1       -0.748   3.008   1.275  0.00  0.00    -0.550 OA
ATOM     18  H   LIG    1        0.130   3.413   1.268  0.00  0.00    +0.380 HD
ENDBRANCH  16  17
BRANCH  16  19
ATOM     19  C   LIG    1        0.011   1.072   2.506  0.00  0.00    +0.250 C 
BRANCH  19  21
ATOM     20  C   LIG    1       -0.274   1.099   4.926  0.00  0.00    +0.530 C 
ATOM     21  N   LIG    1       -0.739   1.443   3.709  0.00  0.00    -0.720 N 
ATOM     22  H   LIG    1       -1.571   1.936   3.629  0.00  0.00    +0.410 HD
ATOM     23  O   LIG    1        0.765   0.483   5.026  0.00  0.00    -0.510 OA
BRANCH  20  24
ATOM     24  C   LIG    1       -1.046   1.481   6.163  0.00  0.00    +0.090 C 
BRANCH  24  25
ATOM     25  S   LIG    1       -0.169   0.880   7.633  0.00  0.00    -0.180 S 
BRANCH  25  27
ATOM     26  C   LIG    1       -0.689   0.883  10.318  0.00  0.00    +0.080 C 
ATOM     27  C   LIG    1       -1.234   1.426   8.995  0.00  0.00    +0.010 C 
ATOM     28  C   LIG    1       -1.257   2.955   9.043  0.00  0.00    +0.040 C 
ENDBRANCH  25  27
ENDBRANCH  24  25
ENDBRANCH  20  24
ENDBRANCH  19  21
ENDBRANCH  16  19
ENDBRANCH   1  16
TORSDOF 11
