REMARK  Name = ZINCrD000000CRTT.0
REMARK                            x       y       z     vdW  Elec       q    Type
REMARK                         _______ _______ _______ _____ _____    ______ ____
ROOT
ATOM      1  N   LIG    1       -4.164  -1.263   0.908  0.00  0.00    -0.730 N 
ATOM      2  H   LIG    1       -3.839  -1.789   0.160  0.00  0.00    +0.400 HD
ENDROOT
BRANCH   1   7
ATOM      3  C   LIG    1       -4.565  -3.868   3.469  0.00  0.00    -0.030 A 
ATOM      4  C   LIG    1       -5.028  -3.118   4.534  0.00  0.00    -0.050 A 
ATOM      5  C   LIG    1       -5.204  -1.753   4.398  0.00  0.00    +0.050 A 
ATOM      6  C   LIG    1       -4.914  -1.134   3.198  0.00  0.00    -0.060 A 
ATOM      7  C   LIG    1       -4.454  -1.885   2.124  0.00  0.00    +0.210 A 
ATOM      8  C   LIG    1       -4.278  -3.256   2.264  0.00  0.00    -0.060 A 
BRANCH   3  12
ATOM      9  O   LIG    1       -3.452  -7.662   6.194  0.00  0.00    -0.530 OA
ATOM     10  C   LIG    1       -4.030  -6.928   5.420  0.00  0.00    +0.520 C 
ATOM     11  C   LIG    1       -3.441  -5.673   4.812  0.00  0.00    +0.070 C 
ATOM     12  C   LIG    1       -4.375  -5.355   3.622  0.00  0.00    +0.040 C 
ATOM     13  C   LIG    1       -5.689  -6.038   4.060  0.00  0.00    +0.270 C 
ATOM     14  N   LIG    1       -5.286  -7.111   4.978  0.00  0.00    -0.730 N 
ATOM     15  H   LIG    1       -5.853  -7.856   5.232  0.00  0.00    +0.410 HD
ENDBRANCH   3  12
ENDBRANCH   1   7
BRANCH   1  16
ATOM     16  C   LIG    1       -4.350   0.182   0.762  0.00  0.00    +0.250 C 
ATOM     17  C   LIG    1       -4.584   0.551  -0.722  0.00  0.00    +0.070 C 
ATOM     18  C   LIG    1       -3.153   0.896  -1.190  0.00  0.00    +0.270 C 
ATOM     19  N   LIG    1       -2.434   1.312   0.021  0.00  0.00    -0.580 N 
ATOM     20  C   LIG    1       -3.079   0.915   1.131  0.00  0.00    +0.510 C 
ATOM     21  O   LIG    1       -2.698   1.116   2.265  0.00  0.00    -0.500 OA
BRANCH  19  22
ATOM     22  C   LIG    1       -1.230   2.027   0.019  0.00  0.00    +0.110 A 
ATOM     23  C   LIG    1       -1.244   3.414   0.031  0.00  0.00    +0.080 A 
ATOM     24  C   LIG    1       -0.054   4.117   0.024  0.00  0.00    +0.040 A 
ATOM     25  C   LIG    1        1.152   3.439   0.009  0.00  0.00    -0.000 A 
ATOM     26  C   LIG    1        1.171   2.055   0.002  0.00  0.00    +0.010 A 
ATOM     27 CL   LIG    1        2.644   4.326   0.000  0.00  0.00    -0.050 Cl
ATOM     28  C   LIG    1       -0.016   1.347   0.009  0.00  0.00    +0.120 A 
ATOM     29  F   LIG    1        0.002  -0.004   0.002  0.00  0.00    -0.120 F 
ENDBRANCH  19  22
ENDBRANCH   1  16
TORSDOF 4
