REMARK  Name = ZINCrD000000CaaJ.0
REMARK                            x       y       z     vdW  Elec       q    Type
REMARK                         _______ _______ _______ _____ _____    ______ ____
ROOT
ATOM      1  O   LIG    1       -1.181   3.356   0.083  0.00  0.00    -0.570 OA
ATOM      2  C   LIG    1       -1.183   2.143   0.010  0.00  0.00    +0.710 C 
ATOM      3  N   LIG    1       -0.018   1.465   0.021  0.00  0.00    -0.620 N 
ATOM      4  C   LIG    1        1.269   2.175  -0.003  0.00  0.00    +0.310 C 
ATOM      5  C   LIG    1        2.144   1.637   1.134  0.00  0.00    +0.170 C 
ATOM      6  N   LIG    1        2.239   0.175   1.024  0.00  0.00    -0.530 NA
ATOM      7  C   LIG    1        0.924  -0.459   1.186  0.00  0.00    +0.170 C 
ATOM      8  C   LIG    1       -0.001  -0.006   0.051  0.00  0.00    +0.280 C 
ATOM      9  N   LIG    1       -2.350   1.475  -0.080  0.00  0.00    -0.680 N 
ATOM     10  H   LIG    1       -2.356   0.505  -0.079  0.00  0.00    +0.410 HD
ENDROOT
BRANCH   9  11
ATOM     11  C   LIG    1       -3.557   2.183  -0.176  0.00  0.00    +0.170 A 
ATOM     12  C   LIG    1       -3.650   3.470   0.331  0.00  0.00    +0.070 A 
ATOM     13  C   LIG    1       -4.839   4.168   0.230  0.00  0.00    +0.030 A 
ATOM     14  C   LIG    1       -5.940   3.582  -0.366  0.00  0.00    +0.030 A 
ATOM     15  C   LIG    1       -5.856   2.296  -0.869  0.00  0.00    -0.030 A 
ATOM     16  C   LIG    1       -4.667   1.593  -0.777  0.00  0.00    +0.070 A 
BRANCH  16  17
ATOM     17  O   LIG    1       -4.583   0.329  -1.271  0.00  0.00    -0.320 OA
BRANCH  17  18
ATOM     18  C   LIG    1       -5.761  -0.212  -1.873  0.00  0.00    +0.610 C 
ATOM     19  F   LIG    1       -6.793  -0.245  -0.930  0.00  0.00    -0.160 F 
ATOM     20  F   LIG    1       -5.500  -1.510  -2.325  0.00  0.00    -0.130 F 
ATOM     21  F   LIG    1       -6.142   0.590  -2.955  0.00  0.00    -0.160 F 
ENDBRANCH  17  18
ENDBRANCH  16  17
ENDBRANCH   9  11
BRANCH   6  22
ATOM     22  C   LIG    1        3.206  -0.364   1.990  0.00  0.00    +0.240 C 
BRANCH  22  23
ATOM     23  C   LIG    1        4.589   0.120   1.640  0.00  0.00    -0.130 A 
ATOM     24  C   LIG    1        5.074   1.305   2.172  0.00  0.00    +0.060 A 
ATOM     25  C   LIG    1        6.353   1.712   1.822  0.00  0.00    -0.030 A 
ATOM     26  C   LIG    1        7.096   0.927   0.961  0.00  0.00    +0.260 A 
ATOM     27  N   LIG    1        6.603  -0.194   0.473  0.00  0.00    -0.480 NA
ATOM     28  C   LIG    1        5.393  -0.614   0.788  0.00  0.00    +0.280 A 
ENDBRANCH  22  23
ENDBRANCH   6  22
TORSDOF 5
