REMARK  Name = ZINCrD00000F5LqQ.0
REMARK                            x       y       z     vdW  Elec       q    Type
REMARK                         _______ _______ _______ _____ _____    ______ ____
ROOT
ATOM      1  C   LIG    1       -6.511  -4.126  -3.073  0.00  0.00    +0.000 C 
ATOM      2  S   LIG    1       -4.958  -4.401  -2.155  0.00  0.00    +0.100 S 
ATOM      3  C   LIG    1       -3.925  -3.727  -3.428  0.00  0.00    +0.240 C 
ATOM      4  N   LIG    1       -4.736  -3.342  -4.453  0.00  0.00    -0.490 N 
ATOM      5  C   LIG    1       -2.535  -3.616  -3.389  0.00  0.00    -0.160 C 
ATOM      6  C   LIG    1       -6.046  -3.501  -4.368  0.00  0.00    +0.530 C 
ATOM      7  O   LIG    1       -6.808  -3.175  -5.253  0.00  0.00    -0.450 OA
ENDROOT
BRANCH   4   8
ATOM      8  C   LIG    1       -4.178  -2.773  -5.606  0.00  0.00    +0.070 A 
ATOM      9  C   LIG    1       -4.028  -1.395  -5.698  0.00  0.00    +0.080 A 
ATOM     10  C   LIG    1       -3.473  -0.837  -6.833  0.00  0.00    +0.010 A 
ATOM     11  C   LIG    1       -3.076  -1.648  -7.882  0.00  0.00    +0.140 A 
ATOM     12  C   LIG    1       -3.229  -3.022  -7.794  0.00  0.00    +0.010 A 
ATOM     13  F   LIG    1       -2.537  -1.100  -8.993  0.00  0.00    -0.130 F 
ATOM     14  C   LIG    1       -3.779  -3.585  -6.659  0.00  0.00    +0.080 A 
ENDBRANCH   4   8
BRANCH   5  15
ATOM     15  C   LIG    1       -1.788  -4.174  -2.263  0.00  0.00    +0.590 C 
ATOM     16  N   LIG    1       -0.445  -4.067  -2.225  0.00  0.00    -0.720 N 
ATOM     17  H   LIG    1        0.026  -3.619  -2.946  0.00  0.00    +0.400 HD
ATOM     18  O   LIG    1       -2.379  -4.737  -1.359  0.00  0.00    -0.520 OA
BRANCH  16  19
ATOM     19  C   LIG    1        0.304  -4.627  -1.097  0.00  0.00    +0.410 C 
BRANCH  19  20
ATOM     20  C   LIG    1        1.776  -4.375  -1.297  0.00  0.00    -0.050 A 
ATOM     21  C   LIG    1        2.454  -3.294  -0.870  0.00  0.00    -0.030 A 
ATOM     22  C   LIG    1        3.799  -3.470  -1.270  0.00  0.00    -0.070 A 
ATOM     23  C   LIG    1        3.862  -4.647  -1.917  0.00  0.00    +0.190 A 
ATOM     24  O   LIG    1        2.634  -5.191  -1.930  0.00  0.00    -0.170 OA
ENDBRANCH  19  20
ENDBRANCH  16  19
ENDBRANCH   5  15
BRANCH   1  26
ATOM     25  C   LIG    1       -7.986  -3.872  -1.072  0.00  0.00    +0.030 C 
ATOM     26  C   LIG    1       -7.433  -3.169  -2.314  0.00  0.00    +0.070 C 
ENDBRANCH   1  26
BRANCH   5  27
ATOM     27  C   LIG    1       -1.839  -2.954  -4.452  0.00  0.00    +0.250 C 
ATOM     28  N   LIG    1       -1.288  -2.430  -5.295  0.00  0.00    -0.400 NA
ENDBRANCH   5  27
TORSDOF 6
