REMARK  Name = ZINC65000000000b.0
REMARK                            x       y       z     vdW  Elec       q    Type
REMARK                         _______ _______ _______ _____ _____    ______ ____
ROOT
ATOM      1  C   LIG    1       -1.187   1.624   0.017  0.00  0.00    +0.510 C 
ATOM      2  N   LIG    1       -0.011   0.966   0.007  0.00  0.00    -0.580 N 
ATOM      3  H   LIG    1        0.002  -0.004   0.002  0.00  0.00    +0.400 HD
ATOM      4  O   LIG    1       -1.204   2.837   0.023  0.00  0.00    -0.530 OA
ENDROOT
BRANCH   2   5
ATOM      5  N   LIG    1        1.163   1.665  -0.000  0.00  0.00    -0.610 NA
ATOM      6  H   LIG    1        1.955   1.041  -0.011  0.00  0.00    +0.360 HD
ATOM      7  H   LIG    1        1.211   2.298   0.784  0.00  0.00    +0.350 HD
ENDBRANCH   2   5
BRANCH   1   9
ATOM      8  C   LIG    1       -3.658   1.831   0.029  0.00  0.00    +0.040 C 
ATOM      9  C   LIG    1       -2.482   0.853   0.018  0.00  0.00    +0.050 C 
ENDBRANCH   1   9
TORSDOF 2
