REMARK  Name = ZINCkj00000y7CRK.1
REMARK                            x       y       z     vdW  Elec       q    Type
REMARK                         _______ _______ _______ _____ _____    ______ ____
ROOT
ATOM      1  N   LIG    1       -0.831   5.266  -1.199  0.00  0.00    -0.580 N 
ATOM      2  C   LIG    1       -1.284   5.094   0.061  0.00  0.00    +0.530 C 
ATOM      3  C   LIG    1       -1.536   3.610   0.203  0.00  0.00    +0.240 C 
ATOM      4  C   LIG    1       -0.739   3.002   1.361  0.00  0.00    +0.250 C 
ATOM      5  N   LIG    1       -0.697   1.558   1.217  0.00  0.00    -0.480 NA
ATOM      6  C   LIG    1        0.021   1.124   0.013  0.00  0.00    +0.230 C 
ATOM      7  C   LIG    1       -0.716   1.627  -1.240  0.00  0.00    +0.380 C 
ATOM      8  N   LIG    1       -0.961   3.059  -1.046  0.00  0.00    -0.630 N 
ATOM      9  O   LIG    1       -1.454   5.949   0.903  0.00  0.00    -0.450 OA
ATOM     10  C   LIG    1       -0.709   4.096  -1.845  0.00  0.00    +0.710 C 
ATOM     11  O   LIG    1       -0.406   3.994  -3.018  0.00  0.00    -0.520 OA
ENDROOT
BRANCH   5  12
ATOM     12  C   LIG    1       -0.170   0.956   2.356  0.00  0.00    +0.260 C 
ATOM     13  C   LIG    1        0.495   1.710   3.322  0.00  0.00    +0.010 C 
ATOM     14  C   LIG    1        1.002   1.075   4.436  0.00  0.00    +0.390 C 
ATOM     15  N   LIG    1        0.865  -0.228   4.595  0.00  0.00    -0.460 NA
ATOM     16  C   LIG    1        0.242  -0.977   3.704  0.00  0.00    +0.400 C 
ATOM     17  H   LIG    1        1.232  -0.647   5.388  0.00  0.00    +0.460 HD
ATOM     18  C   LIG    1       -0.298  -0.419   2.564  0.00  0.00    -0.150 C 
ATOM     19 BR   LIG    1       -1.194  -1.500   1.298  0.00  0.00    +0.070 Br
ENDBRANCH   5  12
BRANCH   1  21
ATOM     20  C   LIG    1        0.957   6.903  -1.521  0.00  0.00    +0.030 C 
ATOM     21  C   LIG    1       -0.512   6.569  -1.788  0.00  0.00    +0.310 C 
ENDBRANCH   1  21
TORSDOF 2
