REMARK  Name = ZINCc700000054uR.2
REMARK                            x       y       z     vdW  Elec       q    Type
REMARK                         _______ _______ _______ _____ _____    ______ ____
ROOT
ATOM      1  C   LIG    1       -0.732   1.581   1.266  0.00  0.00    +0.120 C 
ATOM      2  C   LIG    1       -0.013   1.086   0.008  0.00  0.00    +0.040 C 
ATOM      3  C   LIG    1       -0.756   1.594  -1.230  0.00  0.00    +0.040 C 
ATOM      4  C   LIG    1       -0.826   3.122  -1.185  0.00  0.00    +0.170 C 
ATOM      5  N   LIG    1       -1.525   3.546   0.035  0.00  0.00    -0.540 NA
ATOM      6  C   LIG    1       -1.734   5.000   0.044  0.00  0.00    +0.200 C 
ATOM      7  F   LIG    1       -2.027   1.054   1.301  0.00  0.00    -0.180 F 
ATOM      8  C   LIG    1       -0.804   3.109   1.238  0.00  0.00    +0.190 C 
ENDROOT
BRANCH   1  12
ATOM      9  C   LIG    1        0.219   0.845   4.900  0.00  0.00    +0.280 C 
ATOM     10  N   LIG    1       -0.519   1.279   3.712  0.00  0.00    -0.720 N 
ATOM     11  H   LIG    1       -1.402   1.670   3.805  0.00  0.00    +0.410 HD
ATOM     12  C   LIG    1        0.028   1.134   2.488  0.00  0.00    +0.500 C 
ATOM     13  O   LIG    1        1.131   0.645   2.372  0.00  0.00    -0.520 OA
ENDBRANCH   1  12
TORSDOF 1
