REMARK  Name = ZINCqH00000502IZ.0
REMARK                            x       y       z     vdW  Elec       q    Type
REMARK                         _______ _______ _______ _____ _____    ______ ____
ROOT
ATOM      1  C   LIG    1       -0.026   1.513   0.010  0.00  0.00    +0.190 C 
ATOM      2  C   LIG    1       -0.015  -0.017  -0.006  0.00  0.00    +0.080 C 
ENDROOT
BRANCH   1   3
ATOM      3  C   LIG    1       -0.749   2.022  -1.210  0.00  0.00    +0.520 C 
ATOM      4  N   LIG    1       -0.240   1.798  -2.438  0.00  0.00    -0.670 N 
ATOM      5  H   LIG    1        0.630   1.380  -2.534  0.00  0.00    +0.410 HD
ATOM      6  O   LIG    1       -1.789   2.634  -1.088  0.00  0.00    -0.480 OA
BRANCH   4   7
ATOM      7  C   LIG    1       -0.964   2.167  -3.571  0.00  0.00    +0.200 A 
ATOM      8  C   LIG    1       -2.346   2.273  -3.511  0.00  0.00    +0.030 A 
ATOM      9  C   LIG    1       -3.061   2.639  -4.634  0.00  0.00    +0.080 A 
ATOM     10  C   LIG    1       -2.408   2.903  -5.827  0.00  0.00    +0.000 A 
ATOM     11  C   LIG    1       -1.035   2.802  -5.905  0.00  0.00    +0.090 A 
ATOM     12  C   LIG    1       -0.298   2.439  -4.776  0.00  0.00    -0.060 A 
BRANCH  12  13
ATOM     13  C   LIG    1        1.129   2.338  -4.849  0.00  0.00    +0.250 C 
ATOM     14  N   LIG    1        2.261   2.259  -4.907  0.00  0.00    -0.410 NA
ENDBRANCH  12  13
ENDBRANCH   4   7
ENDBRANCH   1   3
BRANCH   1  15
ATOM     15  O   LIG    1       -0.705   1.979   1.205  0.00  0.00    -0.310 OA
BRANCH  15  16
ATOM     16  C   LIG    1        0.053   2.178   2.302  0.00  0.00    +0.550 C 
ATOM     17  O   LIG    1        1.250   1.966   2.260  0.00  0.00    -0.480 OA
BRANCH  16  20
ATOM     18  C   LIG    1        1.570   2.700   4.966  0.00  0.00    +0.150 C 
ATOM     19  C   LIG    1        0.096   2.878   4.712  0.00  0.00    -0.050 A 
ATOM     20  C   LIG    1       -0.566   2.649   3.547  0.00  0.00    -0.030 A 
ATOM     21  O   LIG    1       -1.879   2.915   3.709  0.00  0.00    -0.170 OA
ATOM     22  C   LIG    1       -2.133   3.329   4.966  0.00  0.00    +0.080 A 
ATOM     23  C   LIG    1       -3.294   3.717   5.624  0.00  0.00    +0.030 A 
ATOM     24  C   LIG    1       -3.238   4.100   6.947  0.00  0.00    +0.070 A 
ATOM     25  C   LIG    1       -2.031   4.104   7.634  0.00  0.00    +0.000 A 
ATOM     26  C   LIG    1       -0.877   3.726   7.008  0.00  0.00    +0.080 A 
ATOM     27  C   LIG    1       -0.913   3.334   5.667  0.00  0.00    -0.150 A 
ENDBRANCH  16  20
ENDBRANCH  15  16
ENDBRANCH   1  15
TORSDOF 6
