REMARK  Name = ZINCpe000000XpJO.0
REMARK                            x       y       z     vdW  Elec       q    Type
REMARK                         _______ _______ _______ _____ _____    ______ ____
ROOT
ATOM      1  N   LIG    1       -0.721   1.571  -1.179  0.00  0.00    -0.560 N 
ATOM      2  C   LIG    1       -0.458   2.732  -1.789  0.00  0.00    +0.710 C 
ATOM      3  N   LIG    1       -1.249   2.943  -2.856  0.00  0.00    -0.710 N 
ATOM      4  H   LIG    1       -1.235   3.714  -3.445  0.00  0.00    +0.440 HD
ATOM      5  C   LIG    1       -2.141   1.775  -2.957  0.00  0.00    +0.180 C 
ATOM      6  C   LIG    1       -3.604   2.200  -2.813  0.00  0.00    +0.100 C 
ATOM      7  O   LIG    1        0.401   3.510  -1.421  0.00  0.00    -0.530 OA
ATOM      8  C   LIG    1       -1.715   0.900  -1.794  0.00  0.00    +0.540 C 
ATOM      9  O   LIG    1       -2.174  -0.177  -1.482  0.00  0.00    -0.440 OA
ENDROOT
BRANCH   5  10
ATOM     10  C   LIG    1       -1.926   1.055  -4.263  0.00  0.00    -0.140 A 
ATOM     11  C   LIG    1       -1.011   1.540  -5.178  0.00  0.00    +0.070 A 
ATOM     12  C   LIG    1       -0.815   0.880  -6.377  0.00  0.00    +0.010 A 
ATOM     13  C   LIG    1       -1.533  -0.266  -6.661  0.00  0.00    +0.060 A 
ATOM     14  C   LIG    1       -2.448  -0.754  -5.748  0.00  0.00    -0.010 A 
ATOM     15  C   LIG    1       -2.642  -0.097  -4.545  0.00  0.00    +0.130 A 
ATOM     16  F   LIG    1       -3.532  -0.576  -3.649  0.00  0.00    -0.120 F 
ENDBRANCH   5  10
BRANCH   1  17
ATOM     17  C   LIG    1       -0.013   1.086   0.008  0.00  0.00    +0.360 C 
BRANCH  17  24
ATOM     18  C   LIG    1       -1.653   0.977   5.965  0.00  0.00    +0.070 C 
ATOM     19  C   LIG    1       -1.135   0.500   4.607  0.00  0.00    +0.140 C 
ATOM     20  C   LIG    1       -0.910   1.714   3.691  0.00  0.00    +0.260 C 
ATOM     21  N   LIG    1       -0.242   1.246   2.466  0.00  0.00    -0.610 N 
ATOM     22  C   LIG    1        0.966   0.417   2.610  0.00  0.00    +0.250 C 
ATOM     23  C   LIG    1        0.652  -0.729   3.579  0.00  0.00    +0.220 C 
ATOM     24  C   LIG    1       -0.718   1.572   1.248  0.00  0.00    +0.510 C 
ATOM     25  O   LIG    1       -1.714   2.256   1.150  0.00  0.00    -0.520 OA
ATOM     26  O   LIG    1        0.105  -0.189   4.785  0.00  0.00    -0.370 OA
ENDBRANCH  17  24
ENDBRANCH   1  17
TORSDOF 3
