REMARK  Name = ZINCrD0000075Qj8.0
REMARK                            x       y       z     vdW  Elec       q    Type
REMARK                         _______ _______ _______ _____ _____    ______ ____
ROOT
ATOM      1  C   LIG    1        1.255   1.967   0.001  0.00  0.00    +0.020 A 
ATOM      2  N   LIG    1        1.235   3.281   0.003  0.00  0.00    -0.130 NA
ATOM      3  N   LIG    1        2.310   3.983   0.001  0.00  0.00    -0.330 N 
ATOM      4  C   LIG    1        3.529   3.413  -0.013  0.00  0.00    +0.480 A 
ATOM      5  C   LIG    1        3.640   2.004  -0.022  0.00  0.00    -0.010 A 
ATOM      6  O   LIG    1        4.532   4.108  -0.019  0.00  0.00    -0.510 OA
ATOM      7  C   LIG    1        2.490   1.273  -0.015  0.00  0.00    +0.140 A 
ENDROOT
BRANCH   1   9
ATOM      8  O   LIG    1        0.002  -0.004   0.002  0.00  0.00    -0.490 OA
ATOM      9  C   LIG    1       -0.014   1.210   0.009  0.00  0.00    +0.550 C 
BRANCH   9  10
ATOM     10  O   LIG    1       -1.190   1.868   0.018  0.00  0.00    -0.330 OA
BRANCH  10  11
ATOM     11  C   LIG    1       -2.397   1.061   0.019  0.00  0.00    +0.290 C 
BRANCH  11  12
ATOM     12  C   LIG    1       -3.604   1.963   0.030  0.00  0.00    -0.100 A 
ATOM     13  C   LIG    1       -4.156   2.365   1.232  0.00  0.00    +0.060 A 
ATOM     14  C   LIG    1       -5.260   3.196   1.242  0.00  0.00    +0.030 A 
ATOM     15  C   LIG    1       -5.821   3.616   0.049  0.00  0.00    -0.020 A 
ATOM     16  C   LIG    1       -5.272   3.209  -1.153  0.00  0.00    +0.030 A 
ATOM     17 CL   LIG    1       -7.213   4.653   0.061  0.00  0.00    -0.060 Cl
ATOM     18  C   LIG    1       -4.164   2.382  -1.163  0.00  0.00    +0.060 A 
ENDBRANCH  11  12
ENDBRANCH  10  11
ENDBRANCH   9  10
ENDBRANCH   1   9
BRANCH   3  19
ATOM     19  C   LIG    1        2.207   5.444   0.011  0.00  0.00    +0.360 C 
BRANCH  19  20
ATOM     20  C   LIG    1        2.157   5.961  -1.428  0.00  0.00    +0.200 C 
BRANCH  20  21
ATOM     21  O   LIG    1        0.960   5.502  -2.059  0.00  0.00    -0.310 OA
BRANCH  21  22
ATOM     22  C   LIG    1        0.760   5.875  -3.350  0.00  0.00    +0.130 A 
ATOM     23  C   LIG    1        1.695   6.672  -3.996  0.00  0.00    -0.080 A 
ATOM     24  C   LIG    1        1.492   7.045  -5.310  0.00  0.00    +0.050 A 
ATOM     25  C   LIG    1        0.354   6.635  -5.979  0.00  0.00    -0.040 A 
ATOM     26  C   LIG    1       -0.582   5.845  -5.336  0.00  0.00    +0.050 A 
ATOM     27  C   LIG    1       -0.381   5.464  -4.024  0.00  0.00    -0.020 A 
ENDBRANCH  21  22
ENDBRANCH  20  21
ENDBRANCH  19  20
ENDBRANCH   3  19
TORSDOF 8
