REMARK  Name = ZINCrg00000xuZpb.0
REMARK                            x       y       z     vdW  Elec       q    Type
REMARK                         _______ _______ _______ _____ _____    ______ ____
ROOT
ATOM      1  C   LIG    1       -3.459   4.705   6.116  0.00  0.00    +0.180 C 
ATOM      2  C   LIG    1       -2.731   4.201   7.364  0.00  0.00    +0.040 C 
ATOM      3  C   LIG    1       -4.894   4.174   6.113  0.00  0.00    +0.040 C 
ENDROOT
BRANCH   1   5
ATOM      4  C   LIG    1       -2.618   2.909   4.700  0.00  0.00    +0.580 C 
ATOM      5  N   LIG    1       -2.761   4.231   4.918  0.00  0.00    -0.720 N 
ATOM      6  H   LIG    1       -2.401   4.870   4.282  0.00  0.00    +0.400 HD
ATOM      7  O   LIG    1       -3.068   2.110   5.497  0.00  0.00    -0.520 OA
BRANCH   4  11
ATOM      8  C   LIG    1       -0.635   1.566   1.302  0.00  0.00    +0.350 A 
ATOM      9  N   LIG    1       -0.759   2.864   1.498  0.00  0.00    -0.510 NA
ATOM     10  C   LIG    1       -1.386   3.335   2.562  0.00  0.00    +0.360 A 
ATOM     11  C   LIG    1       -1.913   2.431   3.492  0.00  0.00    -0.250 A 
ATOM     12  C   LIG    1       -1.754   1.063   3.246  0.00  0.00    +0.390 A 
ATOM     13  N   LIG    1       -1.117   0.680   2.153  0.00  0.00    -0.520 NA
BRANCH   8  15
ATOM     14  C   LIG    1        1.518   1.610   0.074  0.00  0.00    +0.050 C 
ATOM     15  C   LIG    1        0.083   1.079   0.071  0.00  0.00    +0.070 C 
ATOM     16  C   LIG    1       -0.644   1.583  -1.177  0.00  0.00    +0.050 C 
ENDBRANCH   8  15
ENDBRANCH   4  11
ENDBRANCH   1   5
BRANCH   1  17
ATOM     17  C   LIG    1       -3.482   6.235   6.122  0.00  0.00    +0.020 C 
BRANCH  17  18
ATOM     18  C   LIG    1       -4.211   6.729   7.372  0.00  0.00    +0.280 C 
BRANCH  18  19
ATOM     19  N   LIG    1       -4.233   8.194   7.378  0.00  0.00    -0.720 N 
ATOM     20  H   LIG    1       -3.820   8.688   6.652  0.00  0.00    +0.420 HD
ATOM     21  C   LIG    1       -4.827   8.855   8.391  0.00  0.00    +0.580 C 
ATOM     22  O   LIG    1       -5.425   8.239   9.252  0.00  0.00    -0.530 OA
BRANCH  21  23
ATOM     23  C   LIG    1       -4.751  10.326   8.456  0.00  0.00    -0.220 A 
ATOM     24  C   LIG    1       -5.253  11.029   9.549  0.00  0.00    +0.180 A 
ATOM     25  C   LIG    1       -5.145  12.425   9.539  0.00  0.00    +0.230 A 
ATOM     26  N   LIG    1       -4.589  13.042   8.531  0.00  0.00    -0.200 NA
ATOM     27  N   LIG    1       -4.117  12.425   7.510  0.00  0.00    -0.430 N 
ATOM     28  H   LIG    1       -3.716  12.941   6.793  0.00  0.00    +0.450 HD
ATOM     29  C   LIG    1       -4.157  11.083   7.407  0.00  0.00    +0.500 A 
ATOM     30  O   LIG    1       -3.695  10.524   6.427  0.00  0.00    -0.530 OA
ENDBRANCH  21  23
ENDBRANCH  18  19
ENDBRANCH  17  18
ENDBRANCH   1  17
TORSDOF 7
