REMARK  Name = ZINCpk000000bjsd.1
REMARK                            x       y       z     vdW  Elec       q    Type
REMARK                         _______ _______ _______ _____ _____    ______ ____
ROOT
ATOM      1  C   LIG    1       -0.090   5.864  -1.410  0.00  0.00    +0.270 C 
ENDROOT
BRANCH   1   7
ATOM      2  N   LIG    1       -0.971   9.427  -4.780  0.00  0.00    -0.520 NA
ATOM      3  C   LIG    1       -1.016  10.069  -3.459  0.00  0.00    +0.170 C 
ATOM      4  C   LIG    1        0.115   9.514  -2.587  0.00  0.00    +0.300 C 
ATOM      5  N   LIG    1        0.015   8.047  -2.569  0.00  0.00    -0.600 N 
ATOM      6  C   LIG    1       -0.077   7.340  -3.855  0.00  0.00    +0.270 C 
ATOM      7  C   LIG    1        0.013   7.368  -1.405  0.00  0.00    +0.510 C 
ATOM      8  O   LIG    1        0.095   7.967  -0.353  0.00  0.00    -0.510 OA
ATOM      9  C   LIG    1       -1.207   7.981  -4.678  0.00  0.00    +0.180 C 
BRANCH   2  11
ATOM     10  C   LIG    1       -1.586  11.534  -5.865  0.00  0.00    +0.050 C 
ATOM     11  C   LIG    1       -1.929  10.052  -5.702  0.00  0.00    +0.100 C 
ATOM     12  C   LIG    1       -3.344   9.915  -5.138  0.00  0.00    +0.010 C 
ATOM     13  C   LIG    1       -1.853   9.359  -7.063  0.00  0.00    +0.050 C 
ENDBRANCH   2  11
ENDBRANCH   1   7
BRANCH   1  14
ATOM     14  N   LIG    1       -1.343   5.463  -2.055  0.00  0.00    -0.300 N 
ATOM     15  C   LIG    1       -2.520   6.112  -1.989  0.00  0.00    +0.380 A 
ATOM     16  N   LIG    1       -3.372   5.420  -2.707  0.00  0.00    -0.300 NA
ATOM     17  N   LIG    1       -2.752   4.396  -3.181  0.00  0.00    -0.070 NA
ATOM     18  N   LIG    1       -1.526   4.418  -2.790  0.00  0.00    -0.070 NA
ENDBRANCH   1  14
BRANCH   1  19
ATOM     19  C   LIG    1       -0.070   5.347   0.030  0.00  0.00    +0.130 C 
BRANCH  19  20
ATOM     20  C   LIG    1       -0.050   3.840   0.022  0.00  0.00    -0.100 A 
ATOM     21  C   LIG    1        1.156   3.165   0.008  0.00  0.00    +0.010 A 
ATOM     22  C   LIG    1        1.175   1.783   0.000  0.00  0.00    +0.010 A 
ATOM     23  C   LIG    1       -0.013   1.076   0.008  0.00  0.00    +0.010 A 
ATOM     24  C   LIG    1       -1.219   1.751   0.017  0.00  0.00    +0.010 A 
ATOM     25  C   LIG    1       -1.238   3.133   0.029  0.00  0.00    +0.010 A 
ENDBRANCH  19  20
ENDBRANCH   1  19
TORSDOF 5
