REMARK  Name = ZINCtV000002D0Hs.0
REMARK                            x       y       z     vdW  Elec       q    Type
REMARK                         _______ _______ _______ _____ _____    ______ ____
ROOT
ATOM      1  C   LIG    1       -3.450   5.559  -0.097  0.00  0.00    +0.160 A 
ATOM      2  N   LIG    1       -2.405   6.282   0.236  0.00  0.00    -0.280 NA
ATOM      3  N   LIG    1       -1.361   5.539   0.323  0.00  0.00    -0.250 NA
ATOM      4  C   LIG    1       -1.673   4.293   0.040  0.00  0.00    +0.270 A 
ATOM      5  N   LIG    1       -3.023   4.268  -0.234  0.00  0.00    -0.450 N 
ENDROOT
BRANCH   5   6
ATOM      6  C   LIG    1       -3.831   3.101  -0.595  0.00  0.00    +0.250 C 
ATOM      7  C   LIG    1       -4.457   3.321  -1.974  0.00  0.00    +0.020 C 
ATOM      8  C   LIG    1       -5.301   2.102  -2.351  0.00  0.00    +0.040 C 
ATOM      9  C   LIG    1       -6.409   1.908  -1.314  0.00  0.00    +0.010 C 
ATOM     10  C   LIG    1       -5.784   1.688   0.065  0.00  0.00    +0.040 C 
ATOM     11  C   LIG    1       -4.939   2.907   0.442  0.00  0.00    +0.020 C 
ENDBRANCH   5   6
BRANCH   4  12
ATOM     12  C   LIG    1       -0.755   3.143   0.026  0.00  0.00    +0.030 A 
ATOM     13  C   LIG    1        0.606   3.205   0.013  0.00  0.00    +0.030 A 
ATOM     14  C   LIG    1        1.072   1.876   0.002  0.00  0.00    -0.050 A 
ATOM     15  C   LIG    1       -0.013   1.076   0.008  0.00  0.00    +0.200 A 
ATOM     16  O   LIG    1       -1.115   1.844   0.017  0.00  0.00    -0.180 OA
ENDBRANCH   4  12
BRANCH   1  17
ATOM     17  S   LIG    1       -5.096   6.144  -0.326  0.00  0.00    +0.060 S 
BRANCH  17  19
ATOM     18  C   LIG    1       -4.448   8.081   1.488  0.00  0.00    +0.110 C 
ATOM     19  C   LIG    1       -4.856   7.903   0.024  0.00  0.00    +0.150 C 
BRANCH  19  20
ATOM     20  C   LIG    1       -6.141   8.647  -0.233  0.00  0.00    +0.200 A 
ATOM     21  N   LIG    1       -6.267   9.781  -0.875  0.00  0.00    -0.450 NA
ATOM     22  C   LIG    1       -7.591  10.062  -0.859  0.00  0.00    +0.250 A 
ATOM     23  N   LIG    1       -8.184   9.089  -0.213  0.00  0.00    -0.360 NA
ATOM     24  O   LIG    1       -7.366   8.269   0.146  0.00  0.00    +0.100 OA
BRANCH  22  25
ATOM     25  C   LIG    1       -8.245  11.245  -1.458  0.00  0.00    -0.140 A 
ATOM     26  C   LIG    1       -9.569  11.499  -1.433  0.00  0.00    +0.070 A 
ATOM     27  C   LIG    1       -9.943  12.669  -2.056  0.00  0.00    +0.010 A 
ATOM     28  C   LIG    1       -8.941  13.368  -2.599  0.00  0.00    -0.030 A 
ATOM     29  S   LIG    1       -7.417  12.534  -2.321  0.00  0.00    +0.190 S 
ENDBRANCH  22  25
ENDBRANCH  19  20
ENDBRANCH  17  19
ENDBRANCH   1  17
TORSDOF 6
