REMARK  Name = ZINCrH000004jzFQ.0
REMARK                            x       y       z     vdW  Elec       q    Type
REMARK                         _______ _______ _______ _____ _____    ______ ____
ROOT
ATOM      1  C   LIG    1        2.034   1.398   0.091  0.00  0.00    -0.030 A 
ATOM      2  C   LIG    1        0.803   1.946   0.453  0.00  0.00    +0.030 A 
ATOM      3  C   LIG    1       -0.294   1.123   0.613  0.00  0.00    +0.080 A 
ATOM      4  C   LIG    1       -0.174  -0.240   0.416  0.00  0.00    +0.030 A 
ATOM      5  C   LIG    1        1.044  -0.790   0.057  0.00  0.00    +0.130 A 
ATOM      6  C   LIG    1        2.148   0.021  -0.106  0.00  0.00    -0.640 A 
ENDROOT
BRANCH   1   9
ATOM      7  C   LIG    1        2.994   2.942   2.251  0.00  0.00    +0.300 C 
ATOM      8  N   LIG    1        3.627   3.055   0.935  0.00  0.00    -0.540 N 
ATOM      9  C   LIG    1        3.213   2.273  -0.082  0.00  0.00    +0.520 C 
ATOM     10  O   LIG    1        3.810   2.286  -1.141  0.00  0.00    -0.440 OA
BRANCH   8  11
ATOM     11  C   LIG    1        4.661   3.975   0.733  0.00  0.00    +0.140 A 
ATOM     12  C   LIG    1        5.152   4.201  -0.546  0.00  0.00    +0.020 A 
ATOM     13  C   LIG    1        6.170   5.113  -0.742  0.00  0.00    +0.030 A 
ATOM     14  C   LIG    1        6.706   5.795   0.334  0.00  0.00    -0.020 A 
ATOM     15  C   LIG    1        6.223   5.569   1.610  0.00  0.00    +0.030 A 
ATOM     16  C   LIG    1        5.202   4.662   1.813  0.00  0.00    -0.030 A 
ENDBRANCH   8  11
ENDBRANCH   1   9
BRANCH   6  17
ATOM     17  S   LIG    1        3.699  -0.681  -0.564  0.00  0.00    +2.670 S 
ATOM     18  O   LIG    1        4.178   0.087  -1.660  0.00  0.00    -0.900 OA
ATOM     19  O   LIG    1        3.500  -2.086  -0.627  0.00  0.00    -0.940 OA
BRANCH  17  20
ATOM     20  N   LIG    1        4.747  -0.412   0.689  0.00  0.00    -0.940 N 
ATOM     21  C   LIG    1        5.676   0.720   0.638  0.00  0.00    +0.320 C 
BRANCH  20  22
ATOM     22  C   LIG    1        4.746  -1.265   1.796  0.00  0.00    +0.170 A 
ATOM     23  C   LIG    1        3.600  -1.978   2.124  0.00  0.00    -0.040 A 
ATOM     24  C   LIG    1        3.604  -2.824   3.216  0.00  0.00    +0.050 A 
ATOM     25  C   LIG    1        4.744  -2.953   3.988  0.00  0.00    -0.010 A 
ATOM     26  C   LIG    1        5.885  -2.241   3.667  0.00  0.00    +0.040 A 
ATOM     27  C   LIG    1        5.889  -1.397   2.573  0.00  0.00    -0.020 A 
ENDBRANCH  20  22
ENDBRANCH  17  20
ENDBRANCH   6  17
TORSDOF 5
