REMARK  Name = ZINCkj00000kIZ0L.0
REMARK                            x       y       z     vdW  Elec       q    Type
REMARK                         _______ _______ _______ _____ _____    ______ ____
ROOT
ATOM      1  N   LIG    1        4.202   2.244  -1.389  0.00  0.00    -0.510 N 
ATOM      2  H   LIG    1        3.533   2.699  -1.993  0.00  0.00    +0.430 HD
ATOM      3  H   LIG    1        4.369   1.306  -1.721  0.00  0.00    +0.420 HD
ENDROOT
BRANCH   1   4
ATOM      4  C   LIG    1        5.462   2.999  -1.397  0.00  0.00    +0.160 C 
ATOM      5  C   LIG    1        5.187   4.454  -1.014  0.00  0.00    +0.110 C 
BRANCH   4   6
ATOM      6  C   LIG    1        6.079   2.948  -2.796  0.00  0.00    +0.410 C 
BRANCH   6   7
ATOM      7  N   LIG    1        6.232   1.551  -3.212  0.00  0.00    -0.480 N 
ATOM      8  N   LIG    1        7.348   0.731  -2.994  0.00  0.00    -0.270 NA
ATOM      9  C   LIG    1        7.096  -0.427  -3.509  0.00  0.00    +0.270 A 
ATOM     10  O   LIG    1        5.865  -0.412  -4.057  0.00  0.00    -0.260 OA
ATOM     11  C   LIG    1        8.031  -1.609  -3.498  0.00  0.00    +0.260 C 
ATOM     12  C   LIG    1        5.323   0.803  -3.873  0.00  0.00    +0.590 A 
ATOM     13  O   LIG    1        4.218   1.163  -4.237  0.00  0.00    -0.480 OA
ENDBRANCH   6   7
ENDBRANCH   4   6
ENDBRANCH   1   4
BRANCH   1  14
ATOM     14  C   LIG    1        3.670   2.192  -0.021  0.00  0.00    +0.330 C 
BRANCH  14  20
ATOM     15  C   LIG    1        2.399   0.030  -0.020  0.00  0.00    +0.150 A 
ATOM     16  C   LIG    1        1.207  -0.680  -0.013  0.00  0.00    -0.060 A 
ATOM     17  C   LIG    1        0.002  -0.004   0.002  0.00  0.00    +0.100 A 
ATOM     18  C   LIG    1       -0.017   1.378   0.010  0.00  0.00    -0.010 A 
ATOM     19  C   LIG    1        1.170   2.088   0.002  0.00  0.00    +0.090 A 
ATOM     20  C   LIG    1        2.377   1.417  -0.013  0.00  0.00    -0.200 A 
BRANCH  15  22
ATOM     21  C   LIG    1        3.531  -2.060  -0.042  0.00  0.00    +0.270 C 
ATOM     22  O   LIG    1        3.586  -0.632  -0.035  0.00  0.00    -0.330 OA
ENDBRANCH  15  22
ENDBRANCH  14  20
ENDBRANCH   1  14
TORSDOF 6
