REMARK  Name = ZINCkj000005lhym.1
REMARK                            x       y       z     vdW  Elec       q    Type
REMARK                         _______ _______ _______ _____ _____    ______ ____
ROOT
ATOM      1  C   LIG    1       -2.249  -2.870   0.008  0.00  0.00    -0.160 A 
ATOM      2  C   LIG    1       -1.137  -2.080   0.002  0.00  0.00    -0.000 A 
ATOM      3  S   LIG    1        0.276  -3.027  -0.024  0.00  0.00    +0.320 S 
ATOM      4  C   LIG    1       -0.635  -4.537  -0.017  0.00  0.00    -0.240 A 
ATOM      5  C   LIG    1       -0.368  -6.037  -0.029  0.00  0.00    +0.130 C 
ATOM      6  C   LIG    1       -1.703  -6.674  -0.466  0.00  0.00    +0.050 C 
ATOM      7  C   LIG    1       -2.720  -5.612  -0.003  0.00  0.00    +0.110 C 
ATOM      8  C   LIG    1       -1.944  -4.298  -0.003  0.00  0.00    -0.080 A 
ENDROOT
BRANCH   1  12
ATOM      9  N   LIG    1       -4.231  -2.101   1.200  0.00  0.00    -0.840 N 
ATOM     10  H   LIG    1       -5.135  -1.749   1.212  0.00  0.00    +0.410 HD
ATOM     11  H   LIG    1       -3.771  -2.281   2.034  0.00  0.00    +0.400 HD
ATOM     12  C   LIG    1       -3.615  -2.338   0.025  0.00  0.00    +0.580 C 
ATOM     13  O   LIG    1       -4.193  -2.112  -1.022  0.00  0.00    -0.520 OA
ENDBRANCH   1  12
BRANCH   2  14
ATOM     14  N   LIG    1       -1.156  -0.694   0.009  0.00  0.00    -0.600 N 
ATOM     15  H   LIG    1       -2.002  -0.220   0.020  0.00  0.00    +0.430 HD
ATOM     16  C   LIG    1        0.002  -0.004   0.002  0.00  0.00    +0.490 C 
ATOM     17  O   LIG    1        1.060  -0.596  -0.011  0.00  0.00    -0.500 OA
BRANCH  16  18
ATOM     18  C   LIG    1       -0.018   1.503   0.010  0.00  0.00    +0.320 C 
BRANCH  18  19
ATOM     19  N   LIG    1        1.360   2.011  -0.000  0.00  0.00    -0.380 N 
ATOM     20  C   LIG    1        1.358   3.494  -0.090  0.00  0.00    +0.270 C 
ATOM     21  C   LIG    1        2.751   3.884   0.468  0.00  0.00    +0.080 C 
ATOM     22  C   LIG    1        2.965   2.864   1.610  0.00  0.00    +0.070 C 
ATOM     23  C   LIG    1        2.034   1.684   1.275  0.00  0.00    +0.260 C 
ATOM     24  H   LIG    1        1.871   1.616  -0.775  0.00  0.00    +0.440 HD
ENDBRANCH  18  19
ENDBRANCH  16  18
ENDBRANCH   2  14
TORSDOF 4
