REMARK  Name = ZINCrD0000074hge.0
REMARK                            x       y       z     vdW  Elec       q    Type
REMARK                         _______ _______ _______ _____ _____    ______ ____
ROOT
ATOM      1  C   LIG    1       -2.104  -0.426   1.349  0.00  0.00    +0.280 C 
ENDROOT
BRANCH   1   2
ATOM      2  C   LIG    1       -2.156   1.097   1.220  0.00  0.00    -0.030 C 
ATOM      3  C   LIG    1       -0.758   1.632   0.895  0.00  0.00    +0.010 C 
ATOM      4  C   LIG    1       -0.310   1.078  -0.460  0.00  0.00    +0.210 C 
ATOM      5  O   LIG    1       -1.260   1.446  -1.462  0.00  0.00    -0.380 OA
ATOM      6  C   LIG    1       -2.575   0.934  -1.236  0.00  0.00    +0.220 C 
ATOM      7  C   LIG    1       -3.114   1.483   0.088  0.00  0.00    +0.020 C 
BRANCH   2   8
ATOM      8  C   LIG    1       -2.639   1.697   2.515  0.00  0.00    -0.060 A 
ATOM      9  C   LIG    1       -1.833   2.577   3.212  0.00  0.00    +0.050 A 
ATOM     10  C   LIG    1       -2.278   3.132   4.398  0.00  0.00    +0.040 A 
ATOM     11  C   LIG    1       -3.526   2.798   4.893  0.00  0.00    -0.030 A 
ATOM     12  C   LIG    1       -4.331   1.913   4.198  0.00  0.00    +0.050 A 
ATOM     13 CL   LIG    1       -4.081   3.490   6.385  0.00  0.00    -0.050 Cl
ATOM     14  C   LIG    1       -3.888   1.363   3.009  0.00  0.00    -0.020 A 
ATOM     15 CL   LIG    1       -4.897   0.252   2.137  0.00  0.00    -0.040 Cl
ENDBRANCH   2   8
ENDBRANCH   1   2
BRANCH   1  17
ATOM     16  C   LIG    1       -0.998  -2.083   2.752  0.00  0.00    +0.520 C 
ATOM     17  N   LIG    1       -1.292  -0.790   2.513  0.00  0.00    -0.730 N 
ATOM     18  H   LIG    1       -0.966  -0.100   3.111  0.00  0.00    +0.400 HD
ATOM     19  O   LIG    1       -1.406  -2.946   2.004  0.00  0.00    -0.530 OA
BRANCH  16  20
ATOM     20  C   LIG    1       -0.163  -2.457   3.949  0.00  0.00    +0.050 C 
BRANCH  20  21
ATOM     21  C   LIG    1        0.021  -3.976   3.988  0.00  0.00    +0.290 C 
BRANCH  21  23
ATOM     22  C   LIG    1        1.126  -5.633   5.391  0.00  0.00    +0.540 C 
ATOM     23  N   LIG    1        0.833  -4.340   5.152  0.00  0.00    -0.730 N 
ATOM     24  H   LIG    1        1.159  -3.649   5.751  0.00  0.00    +0.400 HD
ATOM     25  O   LIG    1        0.719  -6.496   4.643  0.00  0.00    -0.530 OA
BRANCH  22  29
ATOM     26  C   LIG    1        3.623  -7.861   7.392  0.00  0.00    +0.060 C 
ATOM     27  C   LIG    1        2.259  -7.492   6.807  0.00  0.00    +0.000 C 
ATOM     28  C   LIG    1        1.270  -6.766   7.723  0.00  0.00    +0.060 C 
ATOM     29  C   LIG    1        1.962  -6.007   6.589  0.00  0.00    -0.070 C 
ENDBRANCH  22  29
ENDBRANCH  21  23
ENDBRANCH  20  21
ENDBRANCH  16  20
ENDBRANCH   1  17
TORSDOF 7
