REMARK  Name = ZINCpe00000ygMa3.0
REMARK                            x       y       z     vdW  Elec       q    Type
REMARK                         _______ _______ _______ _____ _____    ______ ____
ROOT
ATOM      1  C   LIG    1       -2.750   3.738   2.610  0.00  0.00    +0.170 C 
ATOM      2  O   LIG    1       -2.880   2.408   3.122  0.00  0.00    -0.350 OA
ATOM      3  C   LIG    1       -3.335   2.354   4.476  0.00  0.00    +0.220 C 
ATOM      4  C   LIG    1       -4.696   3.048   4.580  0.00  0.00    +0.150 C 
ATOM      5  N   LIG    1       -4.575   4.428   4.087  0.00  0.00    -0.530 NA
ATOM      6  C   LIG    1       -4.105   4.446   2.695  0.00  0.00    +0.200 C 
ENDROOT
BRANCH   6   7
ATOM      7  C   LIG    1       -3.957   5.872   2.231  0.00  0.00    +0.090 A 
ATOM      8  C   LIG    1       -4.622   6.449   1.203  0.00  0.00    -0.120 A 
ATOM      9  C   LIG    1       -4.196   7.778   1.109  0.00  0.00    +0.230 A 
ATOM     10  N   LIG    1       -3.302   7.989   2.041  0.00  0.00    -0.290 NA
ATOM     11  N   LIG    1       -3.134   6.800   2.762  0.00  0.00    -0.350 N 
ATOM     12  C   LIG    1       -2.225   6.600   3.894  0.00  0.00    +0.350 C 
ENDBRANCH   6   7
BRANCH   5  13
ATOM     13  C   LIG    1       -5.848   5.149   4.222  0.00  0.00    +0.170 C 
ATOM     14  C   LIG    1       -6.183   5.319   5.705  0.00  0.00    +0.030 C 
ENDBRANCH   5  13
BRANCH   1  15
ATOM     15  C   LIG    1       -2.293   3.682   1.151  0.00  0.00    +0.210 C 
BRANCH  15  16
ATOM     16  N   LIG    1       -0.995   2.998   1.071  0.00  0.00    -0.670 NA
ATOM     17  H   LIG    1       -0.312   3.448   1.661  0.00  0.00    +0.340 HD
BRANCH  16  18
ATOM     18  C   LIG    1       -0.524   2.925  -0.319  0.00  0.00    +0.300 C 
BRANCH  18  22
ATOM     19  N   LIG    1        2.885   1.840  -0.355  0.00  0.00    -0.160 N 
ATOM     20  N   LIG    1        2.331   0.689  -0.499  0.00  0.00    -0.290 NA
ATOM     21  C   LIG    1        1.027   0.847  -0.512  0.00  0.00    +0.020 A 
ATOM     22  C   LIG    1        0.807   2.218  -0.362  0.00  0.00    +0.000 A 
ATOM     23  C   LIG    1       -0.017  -0.230  -0.658  0.00  0.00    +0.160 C 
ATOM     24  N   LIG    1        1.997   2.767  -0.271  0.00  0.00    -0.280 NA
BRANCH  19  26
ATOM     25  C   LIG    1        4.868   2.307  -1.708  0.00  0.00    +0.060 C 
ATOM     26  C   LIG    1        4.332   2.066  -0.296  0.00  0.00    +0.360 C 
ENDBRANCH  19  26
ENDBRANCH  18  22
ENDBRANCH  16  18
ENDBRANCH  15  16
ENDBRANCH   1  15
TORSDOF 7
