REMARK  Name = ZINCpk00000xIlLJ.0
REMARK                            x       y       z     vdW  Elec       q    Type
REMARK                         _______ _______ _______ _____ _____    ______ ____
ROOT
ATOM      1  C   LIG    1        1.486  -7.401   0.247  0.00  0.00    +0.400 C 
ENDROOT
BRANCH   1   2
ATOM      2  C   LIG    1        1.788  -6.016   0.759  0.00  0.00    +0.160 A 
ATOM      3  N   LIG    1        1.078  -4.935   0.548  0.00  0.00    -0.280 NA
ATOM      4  N   LIG    1        1.663  -3.954   1.146  0.00  0.00    -0.140 N 
ATOM      5  N   LIG    1        2.721  -4.391   1.736  0.00  0.00    -0.050 NA
ATOM      6  N   LIG    1        2.825  -5.658   1.516  0.00  0.00    -0.270 NA
BRANCH   4   7
ATOM      7  C   LIG    1        1.196  -2.566   1.158  0.00  0.00    +0.380 C 
BRANCH   7   8
ATOM      8  C   LIG    1        1.806  -1.812  -0.025  0.00  0.00    +0.340 C 
BRANCH   8   9
ATOM      9  N   LIG    1        1.339  -0.424  -0.013  0.00  0.00    -0.380 N 
ATOM     10  C   LIG    1        2.119   0.677  -0.015  0.00  0.00    +0.240 A 
ATOM     11  C   LIG    1        1.307   1.759  -0.001  0.00  0.00    -0.120 A 
ATOM     12  C   LIG    1       -0.016   1.304   0.009  0.00  0.00    +0.250 A 
ATOM     13  N   LIG    1        0.002  -0.004   0.002  0.00  0.00    -0.300 NA
ENDBRANCH   8   9
ENDBRANCH   7   8
ENDBRANCH   4   7
ENDBRANCH   1   2
BRANCH   1  16
ATOM     14  O   LIG    1        0.259  -9.799   0.373  0.00  0.00    -0.530 OA
ATOM     15  C   LIG    1        1.003  -9.545   1.299  0.00  0.00    +0.570 C 
ATOM     16  N   LIG    1        1.665  -8.371   1.330  0.00  0.00    -0.720 N 
ATOM     17  H   LIG    1        2.259  -8.169   2.070  0.00  0.00    +0.410 HD
BRANCH  15  18
ATOM     18  C   LIG    1        1.184 -10.525   2.392  0.00  0.00    -0.140 A 
ATOM     19  C   LIG    1        2.042 -10.239   3.455  0.00  0.00    +0.040 A 
ATOM     20  C   LIG    1        2.203 -11.155   4.474  0.00  0.00    +0.000 A 
ATOM     21  C   LIG    1        1.522 -12.359   4.439  0.00  0.00    +0.040 A 
ATOM     22  C   LIG    1        0.673 -12.651   3.386  0.00  0.00    +0.000 A 
ATOM     23  C   LIG    1        0.500 -11.741   2.363  0.00  0.00    +0.080 A 
ENDBRANCH  15  18
ENDBRANCH   1  16
BRANCH   1  24
ATOM     24  C   LIG    1        2.437  -7.739  -0.902  0.00  0.00    -0.070 C 
ATOM     25  C   LIG    1        1.838  -7.854  -2.305  0.00  0.00    +0.040 C 
ATOM     26  C   LIG    1        2.290  -9.112  -1.561  0.00  0.00    +0.040 C 
ENDBRANCH   1  24
TORSDOF 7
