REMARK  Name = ZINCrD0000070Yoj.0
REMARK                            x       y       z     vdW  Elec       q    Type
REMARK                         _______ _______ _______ _____ _____    ______ ____
ROOT
ATOM      1  O   LIG    1       -4.076   2.465   0.546  0.00  0.00    -0.330 OA
ENDROOT
BRANCH   1   2
ATOM      2  C   LIG    1       -2.906   2.212  -0.075  0.00  0.00    +0.540 C 
ATOM      3  O   LIG    1       -2.873   1.449  -1.021  0.00  0.00    -0.490 OA
BRANCH   2   8
ATOM      4  C   LIG    1        0.456   3.495   0.602  0.00  0.00    -0.260 A 
ATOM      5  C   LIG    1       -0.298   4.126   1.580  0.00  0.00    +0.120 A 
ATOM      6  N   LIG    1       -1.574   3.735   1.449  0.00  0.00    -0.510 N 
ATOM      7  H   LIG    1       -2.311   4.028   2.007  0.00  0.00    +0.430 HD
ATOM      8  C   LIG    1       -1.674   2.857   0.391  0.00  0.00    -0.050 A 
ATOM      9  C   LIG    1        0.228   5.087   2.615  0.00  0.00    +0.160 C 
ATOM     10  C   LIG    1       -0.433   2.687  -0.146  0.00  0.00    -0.010 A 
ATOM     11  C   LIG    1       -0.075   1.810  -1.319  0.00  0.00    +0.140 C 
BRANCH   4  13
ATOM     12  C   LIG    1        2.427   4.785  -0.438  0.00  0.00    +0.060 C 
ATOM     13  C   LIG    1        1.899   3.638   0.385  0.00  0.00    +0.440 C 
ATOM     14  O   LIG    1        2.667   2.833   0.868  0.00  0.00    -0.450 OA
ENDBRANCH   4  13
ENDBRANCH   2   8
ENDBRANCH   1   2
BRANCH   1  15
ATOM     15  C   LIG    1       -5.255   1.792   0.031  0.00  0.00    +0.200 C 
ATOM     16  C   LIG    1       -5.432   0.452   0.749  0.00  0.00    +0.070 C 
BRANCH  15  17
ATOM     17  C   LIG    1       -6.469   2.653   0.269  0.00  0.00    +0.530 C 
ATOM     18  N   LIG    1       -7.668   2.277  -0.220  0.00  0.00    -0.550 N 
ATOM     19  C   LIG    1       -8.840   3.035  -0.138  0.00  0.00    +0.140 A 
ATOM     20  C   LIG    1       -9.043   4.292   0.435  0.00  0.00    +0.010 A 
ATOM     21  C   LIG    1      -10.293   4.874   0.408  0.00  0.00    +0.040 A 
ATOM     22  C   LIG    1      -11.354   4.217  -0.186  0.00  0.00    -0.010 A 
ATOM     23  C   LIG    1      -11.161   2.972  -0.755  0.00  0.00    +0.050 A 
ATOM     24  C   LIG    1       -9.911   2.385  -0.731  0.00  0.00    -0.130 A 
ATOM     25  C   LIG    1       -9.429   1.057  -1.270  0.00  0.00    +0.120 C 
ATOM     26  C   LIG    1       -7.932   1.017  -0.919  0.00  0.00    +0.220 C 
ATOM     27  C   LIG    1       -7.088   0.930  -2.193  0.00  0.00    +0.050 C 
ATOM     28  O   LIG    1       -6.368   3.683   0.900  0.00  0.00    -0.490 OA
ENDBRANCH  15  17
ENDBRANCH   1  15
TORSDOF 5
