REMARK  Name = ZINCpk00000xI5lc.0
REMARK                            x       y       z     vdW  Elec       q    Type
REMARK                         _______ _______ _______ _____ _____    ______ ____
ROOT
ATOM      1  N   LIG    1       -5.116   1.747   2.376  0.00  0.00    -0.390 N 
ATOM      2  C   LIG    1       -4.927   2.105   1.091  0.00  0.00    +0.300 A 
ATOM      3  N   LIG    1       -5.490   3.265   0.869  0.00  0.00    -0.490 NA
ATOM      4  C   LIG    1       -6.061   3.713   1.990  0.00  0.00    +0.320 A 
ATOM      5  N   LIG    1       -6.775   4.855   2.314  0.00  0.00    -0.510 N 
ATOM      6  C   LIG    1       -7.027   5.875   1.293  0.00  0.00    +0.340 C 
ATOM      7  C   LIG    1       -7.237   5.030   3.567  0.00  0.00    +0.710 A 
ATOM      8  O   LIG    1       -7.862   6.038   3.833  0.00  0.00    -0.530 OA
ATOM      9  N   LIG    1       -7.025   4.117   4.531  0.00  0.00    -0.550 N 
ATOM     10  C   LIG    1       -7.549   4.356   5.878  0.00  0.00    +0.350 C 
ATOM     11  C   LIG    1       -6.336   2.985   4.277  0.00  0.00    +0.590 A 
ATOM     12  O   LIG    1       -6.150   2.166   5.158  0.00  0.00    -0.510 OA
ATOM     13  C   LIG    1       -5.834   2.762   2.976  0.00  0.00    -0.150 A 
ENDROOT
BRANCH   1  14
ATOM     14  C   LIG    1       -4.645   0.516   3.016  0.00  0.00    +0.310 C 
BRANCH  14  15
ATOM     15  C   LIG    1       -3.280   0.766   3.662  0.00  0.00    +0.010 C 
BRANCH  15  17
ATOM     16  C   LIG    1       -1.473  -0.237   5.065  0.00  0.00    +0.020 C 
ATOM     17  C   LIG    1       -2.837  -0.487   4.420  0.00  0.00    +0.020 C 
ENDBRANCH  15  17
ENDBRANCH  14  15
ENDBRANCH   1  14
BRANCH   2  18
ATOM     18  C   LIG    1       -4.184   1.290   0.064  0.00  0.00    +0.310 C 
BRANCH  18  19
ATOM     19  N   LIG    1       -5.096   0.302  -0.529  0.00  0.00    -0.540 NA
ATOM     20  C   LIG    1       -4.350  -0.725  -1.268  0.00  0.00    +0.180 C 
ATOM     21  C   LIG    1       -5.315  -1.812  -1.746  0.00  0.00    +0.030 C 
ATOM     22  C   LIG    1       -6.381  -1.182  -2.646  0.00  0.00    -0.030 C 
ATOM     23  C   LIG    1       -7.112  -0.084  -1.869  0.00  0.00    +0.030 C 
ATOM     24  C   LIG    1       -7.383  -2.254  -3.080  0.00  0.00    +0.010 C 
ATOM     25  C   LIG    1       -6.094   0.954  -1.386  0.00  0.00    +0.170 C 
ENDBRANCH  18  19
ENDBRANCH   2  18
TORSDOF 5
