REMARK  Name = ZINCnE000001TQp0.0
REMARK                            x       y       z     vdW  Elec       q    Type
REMARK                         _______ _______ _______ _____ _____    ______ ____
ROOT
ATOM      1  C   LIG    1        0.002  -0.003  -0.006  0.00  0.00    -0.130 A 
ATOM      2  C   LIG    1        0.146   1.136   0.789  0.00  0.00    +0.080 A 
ATOM      3  C   LIG    1        1.328   1.841   0.774  0.00  0.00    +0.040 A 
ATOM      4  C   LIG    1        2.383   1.417  -0.038  0.00  0.00    +0.030 A 
ATOM      5  C   LIG    1        2.239   0.278  -0.834  0.00  0.00    +0.050 A 
ATOM      6  C   LIG    1        1.057  -0.427  -0.818  0.00  0.00    +0.050 A 
ENDROOT
BRANCH   1   8
ATOM      7  O   LIG    1       -2.324  -0.171   0.123  0.00  0.00    -0.530 OA
ATOM      8  C   LIG    1       -1.267  -0.760   0.011  0.00  0.00    +0.580 C 
ATOM      9  N   LIG    1       -1.252  -2.103  -0.099  0.00  0.00    -0.610 N 
ATOM     10  C   LIG    1       -0.050  -2.970  -0.129  0.00  0.00    +0.250 C 
ATOM     11  C   LIG    1       -0.551  -4.441  -0.134  0.00  0.00    +0.030 C 
ATOM     12  C   LIG    1       -1.957  -4.296   0.468  0.00  0.00    -0.020 C 
ATOM     13  C   LIG    1       -2.953  -5.365   0.052  0.00  0.00    +0.030 C 
ATOM     14  C   LIG    1       -4.316  -4.976   0.646  0.00  0.00    +0.000 C 
ATOM     15  C   LIG    1       -4.760  -3.596   0.169  0.00  0.00    +0.010 C 
ATOM     16  C   LIG    1       -3.692  -2.530   0.466  0.00  0.00    +0.030 C 
ATOM     17  C   LIG    1       -2.411  -2.974  -0.202  0.00  0.00    +0.210 C 
ENDBRANCH   1   8
BRANCH   4  18
ATOM     18  C   LIG    1        3.652   2.174  -0.056  0.00  0.00    +0.160 A 
ATOM     19  N   LIG    1        4.702   1.873  -0.765  0.00  0.00    -0.300 NA
ATOM     20  N   LIG    1        5.687   2.837  -0.501  0.00  0.00    -0.380 NA
ATOM     21  C   LIG    1        5.162   3.698   0.395  0.00  0.00    +0.350 A 
ATOM     22  S   LIG    1        5.945   5.066   1.065  0.00  0.00    -0.690 S 
ATOM     23  O   LIG    1        3.911   3.287   0.666  0.00  0.00    -0.260 OA
ENDBRANCH   4  18
TORSDOF 2
