REMARK  Name = ZINCrH00000No4Td.0
REMARK                            x       y       z     vdW  Elec       q    Type
REMARK                         _______ _______ _______ _____ _____    ______ ____
ROOT
ATOM      1  N   LIG    1        0.005  -4.176  -0.022  0.00  0.00    -0.510 N 
ATOM      2  C   LIG    1        0.168  -4.968   1.060  0.00  0.00    +0.530 C 
ATOM      3  C   LIG    1        0.110  -6.350   0.548  0.00  0.00    -0.050 C 
ATOM      4  N   LIG    1       -0.084  -6.243  -0.800  0.00  0.00    -0.490 NA
ATOM      5  C   LIG    1        0.227  -7.510   1.279  0.00  0.00    +0.220 C 
ATOM      6  O   LIG    1        0.330  -4.615   2.214  0.00  0.00    -0.470 OA
ATOM      7  C   LIG    1       -0.150  -4.978  -1.127  0.00  0.00    +0.310 C 
ENDROOT
BRANCH   5   8
ATOM      8  C   LIG    1        0.290  -8.804   0.594  0.00  0.00    -0.090 A 
ATOM      9  C   LIG    1        0.278  -9.993   1.336  0.00  0.00    +0.080 A 
ATOM     10  C   LIG    1        0.330 -11.207   0.688  0.00  0.00    +0.030 A 
ATOM     11  C   LIG    1        0.407 -11.259  -0.697  0.00  0.00    +0.060 A 
ATOM     12  O   LIG    1        0.475 -12.317  -1.556  0.00  0.00    -0.310 OA
ATOM     13  C   LIG    1        0.947 -11.772  -2.802  0.00  0.00    +0.430 C 
ATOM     14  O   LIG    1        0.505 -10.402  -2.768  0.00  0.00    -0.310 OA
ATOM     15  C   LIG    1        0.426 -10.079  -1.443  0.00  0.00    +0.020 A 
ATOM     16  C   LIG    1        0.367  -8.857  -0.804  0.00  0.00    +0.110 A 
ENDBRANCH   5   8
BRANCH   1  21
ATOM     17  C   LIG    1       -0.054   1.499  -0.004  0.00  0.00    +0.100 C 
ATOM     18  C   LIG    1       -0.039  -0.007  -0.009  0.00  0.00    -0.070 A 
ATOM     19  C   LIG    1       -1.038  -0.710   0.639  0.00  0.00    +0.020 A 
ATOM     20  C   LIG    1       -1.029  -2.091   0.632  0.00  0.00    +0.040 A 
ATOM     21  C   LIG    1       -0.010  -2.774  -0.018  0.00  0.00    +0.110 A 
ATOM     22  C   LIG    1        0.995  -2.066  -0.663  0.00  0.00    +0.030 A 
ATOM     23  C   LIG    1        0.978  -0.685  -0.657  0.00  0.00    +0.020 A 
ENDBRANCH   1  21
BRANCH   7  24
ATOM     24  S   LIG    1       -0.400  -4.383  -2.766  0.00  0.00    +0.080 S 
BRANCH  24  25
ATOM     25  C   LIG    1       -0.515  -5.954  -3.657  0.00  0.00    +0.270 C 
BRANCH  25  26
ATOM     26  C   LIG    1       -0.731  -5.691  -5.089  0.00  0.00    +0.210 C 
ATOM     27  N   LIG    1       -0.897  -5.488  -6.195  0.00  0.00    -0.390 NA
ENDBRANCH  25  26
ENDBRANCH  24  25
ENDBRANCH   7  24
TORSDOF 5
