REMARK  Name = ZINCrg000000sukz.0
REMARK                            x       y       z     vdW  Elec       q    Type
REMARK                         _______ _______ _______ _____ _____    ______ ____
ROOT
ATOM      1  C   LIG    1       -3.812   4.960   1.865  0.00  0.00    +0.500 C 
ATOM      2  N   LIG    1       -4.628   5.696   2.646  0.00  0.00    -0.610 N 
ATOM      3  C   LIG    1       -5.854   5.112   3.207  0.00  0.00    +0.280 C 
ATOM      4  C   LIG    1       -5.823   5.291   4.734  0.00  0.00    +0.300 C 
ATOM      5  N   LIG    1       -5.505   6.694   5.035  0.00  0.00    -1.000 NA
ATOM      6  C   LIG    1       -4.282   7.280   4.469  0.00  0.00    +0.310 C 
ATOM      7  C   LIG    1       -4.310   7.099   2.947  0.00  0.00    +0.290 C 
ATOM      8  O   LIG    1       -2.806   5.455   1.404  0.00  0.00    -0.510 OA
ENDROOT
BRANCH   5   9
ATOM      9  S   LIG    1       -6.508   7.598   5.994  0.00  0.00    +2.720 S 
ATOM     10  O   LIG    1       -5.710   8.642   6.536  0.00  0.00    -0.940 OA
ATOM     11  O   LIG    1       -7.233   6.677   6.797  0.00  0.00    -0.940 OA
BRANCH   9  12
ATOM     12  C   LIG    1       -7.686   8.370   4.935  0.00  0.00    -0.800 A 
ATOM     13  C   LIG    1       -8.861   7.848   4.583  0.00  0.00    +0.160 A 
ATOM     14  C   LIG    1       -9.623   8.641   3.742  0.00  0.00    -0.010 A 
ATOM     15  C   LIG    1       -9.062   9.803   3.405  0.00  0.00    +0.010 A 
ATOM     16  S   LIG    1       -7.488   9.944   4.176  0.00  0.00    +0.220 S 
ENDBRANCH   9  12
ENDBRANCH   5   9
BRANCH   1  17
ATOM     17  C   LIG    1       -4.151   3.523   1.566  0.00  0.00    +0.380 C 
BRANCH  17  21
ATOM     18  C   LIG    1       -1.622   2.136  -2.542  0.00  0.00    +0.170 C 
ATOM     19  C   LIG    1       -2.027   2.350  -1.107  0.00  0.00    +0.140 A 
ATOM     20  N   LIG    1       -3.115   2.950  -0.697  0.00  0.00    -0.260 NA
ATOM     21  N   LIG    1       -3.116   2.947   0.703  0.00  0.00    -0.340 N 
ATOM     22  C   LIG    1       -1.996   2.319   1.118  0.00  0.00    +0.170 A 
ATOM     23  C   LIG    1       -1.587   2.086   2.550  0.00  0.00    +0.170 C 
ATOM     24  C   LIG    1       -1.306   1.936   0.019  0.00  0.00    -0.180 A 
BRANCH  24  25
ATOM     25  N   LIG    1       -0.014   1.214   0.009  0.00  0.00    +0.050 N 
ATOM     26  O   LIG    1        1.032   1.837   0.002  0.00  0.00    -0.130 OA
ATOM     27  O   LIG    1        0.002  -0.004   0.002  0.00  0.00    -0.140 OA
ENDBRANCH  24  25
ENDBRANCH  17  21
ENDBRANCH   1  17
TORSDOF 5
