REMARK  Name = ZINCrH000004joFy.0
REMARK                            x       y       z     vdW  Elec       q    Type
REMARK                         _______ _______ _______ _____ _____    ______ ____
ROOT
ATOM      1  N   LIG    1       -0.698   1.558   1.213  0.00  0.00    -0.470 N 
ATOM      2  C   LIG    1       -0.448   2.740   1.892  0.00  0.00    +0.100 A 
ATOM      3  C   LIG    1        0.432   3.793   1.694  0.00  0.00    +0.010 A 
ATOM      4  C   LIG    1        0.431   4.861   2.568  0.00  0.00    +0.140 A 
ATOM      5  C   LIG    1       -0.447   4.891   3.641  0.00  0.00    -0.680 A 
ATOM      6  C   LIG    1       -1.331   3.855   3.850  0.00  0.00    +0.200 A 
ATOM      7  C   LIG    1       -1.343   2.767   2.974  0.00  0.00    +0.030 A 
ATOM      8  N   LIG    1       -2.077   1.625   2.915  0.00  0.00    -0.480 NA
ATOM      9  C   LIG    1       -1.700   0.913   1.881  0.00  0.00    +0.260 A 
ENDROOT
BRANCH   5  10
ATOM     10  S   LIG    1       -0.431   6.263   4.746  0.00  0.00    +2.710 S 
ATOM     11  O   LIG    1       -1.715   6.303   5.354  0.00  0.00    -0.960 OA
ATOM     12  O   LIG    1        0.120   7.355   4.023  0.00  0.00    -0.960 OA
BRANCH  10  13
ATOM     13  N   LIG    1        0.646   5.909   5.953  0.00  0.00    -1.250 NA
ATOM     14  H   LIG    1        0.794   4.988   6.216  0.00  0.00    +0.420 HD
ATOM     15  H   LIG    1        1.130   6.624   6.396  0.00  0.00    +0.420 HD
ENDBRANCH  10  13
ENDBRANCH   5  10
BRANCH   1  17
ATOM     16  C   LIG    1       -0.753   1.593  -1.232  0.00  0.00    +0.050 C 
ATOM     17  C   LIG    1       -0.013   1.086   0.008  0.00  0.00    +0.300 C 
ENDBRANCH   1  17
BRANCH   9  18
ATOM     18  S   LIG    1       -2.383  -0.645   1.423  0.00  0.00    +0.050 S 
BRANCH  18  19
ATOM     19  C   LIG    1       -3.617  -0.846   2.732  0.00  0.00    +0.000 C 
ATOM     20  C   LIG    1       -2.911  -0.975   4.083  0.00  0.00    +0.100 C 
BRANCH  19  21
ATOM     21  C   LIG    1       -4.431  -2.087   2.470  0.00  0.00    +0.420 C 
ATOM     22  O   LIG    1       -3.962  -2.991   1.812  0.00  0.00    -0.430 OA
BRANCH  21  23
ATOM     23  C   LIG    1       -5.793  -2.201   3.012  0.00  0.00    -0.160 A 
ATOM     24  C   LIG    1       -6.335  -1.162   3.777  0.00  0.00    +0.080 A 
ATOM     25  C   LIG    1       -7.614  -1.274   4.277  0.00  0.00    +0.020 A 
ATOM     26  C   LIG    1       -8.359  -2.417   4.034  0.00  0.00    -0.000 A 
ATOM     27  C   LIG    1       -7.827  -3.452   3.283  0.00  0.00    +0.020 A 
ATOM     28 CL   LIG    1       -9.967  -2.552   4.675  0.00  0.00    -0.050 Cl
ATOM     29  C   LIG    1       -6.551  -3.352   2.771  0.00  0.00    +0.110 A 
ENDBRANCH  21  23
ENDBRANCH  19  21
ENDBRANCH  18  19
ENDBRANCH   9  18
TORSDOF 7
