REMARK  Name = ZINCtV000002qaa7.0
REMARK                            x       y       z     vdW  Elec       q    Type
REMARK                         _______ _______ _______ _____ _____    ______ ____
ROOT
ATOM      1  C   LIG    1       -0.778   5.920   0.041  0.00  0.00    +0.140 A 
ATOM      2  C   LIG    1       -1.312   4.786   0.646  0.00  0.00    +0.040 A 
ATOM      3  C   LIG    1       -0.616   3.596   0.638  0.00  0.00    +0.070 A 
ATOM      4  C   LIG    1        0.625   3.523   0.025  0.00  0.00    -0.000 A 
ATOM      5  O   LIG    1        1.526   2.530  -0.145  0.00  0.00    -0.210 OA
ATOM      6  C   LIG    1        2.575   3.028  -0.827  0.00  0.00    +0.290 A 
ATOM      7  N   LIG    1        2.378   4.295  -1.091  0.00  0.00    -0.450 NA
ATOM      8  C   LIG    1        1.171   4.663  -0.588  0.00  0.00    +0.050 A 
ATOM      9  C   LIG    1        0.459   5.864  -0.576  0.00  0.00    +0.090 A 
ENDROOT
BRANCH   6  10
ATOM     10  C   LIG    1        3.776   2.259  -1.215  0.00  0.00    -0.070 A 
ATOM     11  C   LIG    1        3.884   0.910  -0.875  0.00  0.00    +0.090 A 
ATOM     12  C   LIG    1        5.008   0.198  -1.240  0.00  0.00    +0.010 A 
ATOM     13  C   LIG    1        6.027   0.817  -1.942  0.00  0.00    +0.080 A 
ATOM     14  C   LIG    1        5.929   2.153  -2.282  0.00  0.00    -0.010 A 
ATOM     15  C   LIG    1        4.806   2.878  -1.929  0.00  0.00    +0.160 A 
ATOM     16  F   LIG    1        4.707   4.182  -2.268  0.00  0.00    -0.110 F 
ENDBRANCH   6  10
BRANCH   1  18
ATOM     17  C   LIG    1       -0.841   8.297   0.159  0.00  0.00    +0.520 C 
ATOM     18  N   LIG    1       -1.495   7.124   0.056  0.00  0.00    -0.670 N 
ATOM     19  H   LIG    1       -2.463   7.112  -0.007  0.00  0.00    +0.410 HD
ATOM     20  O   LIG    1        0.372   8.318   0.156  0.00  0.00    -0.500 OA
BRANCH  17  22
ATOM     21  C   LIG    1       -2.594   9.699  -0.894  0.00  0.00    +0.080 C 
ATOM     22  C   LIG    1       -1.615   9.584   0.276  0.00  0.00    -0.040 C 
ATOM     23  C   LIG    1       -2.393   9.593   1.594  0.00  0.00    +0.070 C 
BRANCH  22  24
ATOM     24  C   LIG    1       -0.660  10.750   0.248  0.00  0.00    -0.070 A 
ATOM     25  C   LIG    1       -0.671  11.676   1.274  0.00  0.00    +0.040 A 
ATOM     26  C   LIG    1        0.208  12.743   1.252  0.00  0.00    +0.020 A 
ATOM     27  C   LIG    1        1.091  12.889   0.197  0.00  0.00    -0.030 A 
ATOM     28  C   LIG    1        1.097  11.965  -0.832  0.00  0.00    +0.020 A 
ATOM     29 CL   LIG    1        2.189  14.233   0.164  0.00  0.00    -0.070 Cl
ATOM     30  C   LIG    1        0.222  10.895  -0.806  0.00  0.00    +0.060 A 
ENDBRANCH  22  24
ENDBRANCH  17  22
ENDBRANCH   1  18
TORSDOF 4
