REMARK  Name = ZINCqH00000671US.0
REMARK                            x       y       z     vdW  Elec       q    Type
REMARK                         _______ _______ _______ _____ _____    ______ ____
ROOT
ATOM      1  N   LIG    1        1.742   0.592  -0.155  0.00  0.00    -0.470 N 
ATOM      2  C   LIG    1        0.957  -0.510   0.047  0.00  0.00    +0.190 A 
ATOM      3  N   LIG    1       -0.250  -0.086   0.295  0.00  0.00    -0.270 NA
ATOM      4  N   LIG    1       -0.281   1.199   0.264  0.00  0.00    -0.310 NA
ATOM      5  C   LIG    1        0.914   1.667  -0.008  0.00  0.00    +0.350 A 
ENDROOT
BRANCH   5   6
ATOM      6  N   LIG    1        1.269   3.002  -0.123  0.00  0.00    -0.420 N 
ATOM      7  C   LIG    1        2.222   3.391   0.941  0.00  0.00    +0.250 C 
ATOM      8  C   LIG    1        1.912   4.837   1.258  0.00  0.00    -0.120 A 
ATOM      9  C   LIG    1        2.641   5.812   1.912  0.00  0.00    +0.050 A 
ATOM     10  C   LIG    1        2.116   7.080   2.071  0.00  0.00    +0.000 A 
ATOM     11  C   LIG    1        0.855   7.375   1.574  0.00  0.00    +0.120 A 
ATOM     12  C   LIG    1        0.124   6.395   0.918  0.00  0.00    +0.010 A 
ATOM     13  C   LIG    1        0.652   5.129   0.761  0.00  0.00    -0.080 A 
ATOM     14  C   LIG    1        0.102   3.883   0.104  0.00  0.00    +0.300 C 
BRANCH  11  15
ATOM     15  O   LIG    1        0.336   8.621   1.730  0.00  0.00    -0.500 OA
ATOM     16  H   LIG    1        0.546   9.227   1.006  0.00  0.00    +0.390 HD
ENDBRANCH  11  15
ENDBRANCH   5   6
BRANCH   1  18
ATOM     17  C   LIG    1        3.366   0.696  -1.980  0.00  0.00    +0.040 C 
ATOM     18  C   LIG    1        3.173   0.614  -0.465  0.00  0.00    +0.290 C 
ENDBRANCH   1  18
BRANCH   2  19
ATOM     19  C   LIG    1        1.405  -1.948  -0.009  0.00  0.00    +0.210 C 
BRANCH  19  20
ATOM     20  C   LIG    1        1.732  -2.426   1.383  0.00  0.00    -0.080 A 
ATOM     21  C   LIG    1        3.025  -2.329   1.861  0.00  0.00    +0.000 A 
ATOM     22  C   LIG    1        3.324  -2.764   3.138  0.00  0.00    -0.080 A 
ATOM     23  C   LIG    1        2.332  -3.304   3.935  0.00  0.00    +0.000 A 
ATOM     24  C   LIG    1        1.039  -3.405   3.455  0.00  0.00    -0.080 A 
ATOM     25  C   LIG    1       -0.043  -3.994   4.323  0.00  0.00    +0.090 C 
ATOM     26  C   LIG    1        4.733  -2.654   3.661  0.00  0.00    +0.080 C 
ATOM     27  C   LIG    1        0.739  -2.966   2.179  0.00  0.00    +0.030 A 
ENDBRANCH  19  20
ENDBRANCH   2  19
TORSDOF 5
