REMARK  Name = ZINC650000002DBd.0
REMARK                            x       y       z     vdW  Elec       q    Type
REMARK                         _______ _______ _______ _____ _____    ______ ____
ROOT
ATOM      1  C   LIG    1       -0.699   1.479   1.216  0.00  0.00    +0.270 C 
ENDROOT
BRANCH   1   2
ATOM      2  N   LIG    1       -0.012   1.005   0.008  0.00  0.00    -0.640 N 
ATOM      3  H   LIG    1       -0.500   1.339  -0.810  0.00  0.00    +0.430 HD
ATOM      4  H   LIG    1        0.935   1.354   0.000  0.00  0.00    +0.430 HD
ATOM      5  H   LIG    1        0.002  -0.004   0.002  0.00  0.00    +0.430 HD
ENDBRANCH   1   2
BRANCH   1   6
ATOM      6  C   LIG    1        0.041   0.972   2.456  0.00  0.00    -0.060 C 
BRANCH   6   7
ATOM      7  C   LIG    1       -0.665   1.458   3.696  0.00  0.00    +0.490 C 
ATOM      8  O   LIG    1       -0.234   1.163   4.797  0.00  0.00    -0.670 OA
ATOM      9  O   LIG    1       -1.666   2.146   3.597  0.00  0.00    -0.690 OA
ENDBRANCH   6   7
ENDBRANCH   1   6
TORSDOF 3
