REMARK  Name = ZINCpe000000Yqmg.1
REMARK                            x       y       z     vdW  Elec       q    Type
REMARK                         _______ _______ _______ _____ _____    ______ ____
ROOT
ATOM      1  N   LIG    1       -1.367   5.673   1.879  0.00  0.00    -0.650 NA
ATOM      2  H   LIG    1       -2.002   5.685   1.095  0.00  0.00    +0.360 HD
ENDROOT
BRANCH   1   3
ATOM      3  C   LIG    1       -1.765   6.656   2.895  0.00  0.00    +0.280 C 
BRANCH   3  13
ATOM      4  C   LIG    1       -5.724   3.113   1.697  0.00  0.00    +0.370 C 
ATOM      5  N   LIG    1       -5.976   4.154   2.696  0.00  0.00    -0.350 N 
ATOM      6  N   LIG    1       -7.172   4.340   3.402  0.00  0.00    -0.270 NA
ATOM      7  C   LIG    1       -7.048   5.358   4.208  0.00  0.00    +0.330 A 
ATOM      8  C   LIG    1       -5.750   5.884   4.061  0.00  0.00    -0.350 A 
ATOM      9  C   LIG    1       -5.016   6.994   4.667  0.00  0.00    +0.580 A 
ATOM     10  O   LIG    1       -5.532   7.708   5.509  0.00  0.00    -0.520 OA
ATOM     11  N   LIG    1       -3.742   7.199   4.259  0.00  0.00    -0.650 N 
ATOM     12  H   LIG    1       -3.224   7.925   4.639  0.00  0.00    +0.420 HD
ATOM     13  C   LIG    1       -3.187   6.391   3.320  0.00  0.00    +0.430 A 
ATOM     14  N   LIG    1       -3.826   5.403   2.766  0.00  0.00    -0.500 NA
ATOM     15  C   LIG    1       -5.092   5.103   3.097  0.00  0.00    +0.340 A 
ENDBRANCH   3  13
ENDBRANCH   1   3
BRANCH   1  16
ATOM     16  CA  LIG    1        0.016   5.900   1.440  0.00  0.00    +0.160 C 
BRANCH  16  17
ATOM     17  C   LIG    1        0.203   5.336   0.030  0.00  0.00    +0.030 C 
ATOM     18  C   LIG    1        1.669   5.503  -0.423  0.00  0.00    +0.030 C 
ATOM     19  C   LIG    1        2.302   4.161   0.003  0.00  0.00    +0.070 C 
ATOM     20  C   LIG    1        1.159   3.168   0.009  0.00  0.00    -0.060 A 
ATOM     21  C   LIG    1        1.174   1.783   0.000  0.00  0.00    -0.010 A 
ATOM     22  C   LIG    1       -0.013   1.076   0.008  0.00  0.00    -0.010 A 
ATOM     23  C   LIG    1       -1.218   1.751   0.017  0.00  0.00    -0.020 A 
ATOM     24  C   LIG    1       -1.235   3.132   0.030  0.00  0.00    +0.030 A 
ATOM     25  C   LIG    1       -0.047   3.843   0.024  0.00  0.00    -0.050 A 
ENDBRANCH  16  17
BRANCH  16  26
ATOM     26  C   LIG    1        0.978   5.199   2.401  0.00  0.00    +0.170 C 
BRANCH  26  27
ATOM     27  O   LIG    1        0.784   3.785   2.322  0.00  0.00    -0.530 OA
ATOM     28  H   LIG    1        1.362   3.275   2.906  0.00  0.00    +0.360 HD
ENDBRANCH  26  27
ENDBRANCH  16  26
ENDBRANCH   1  16
TORSDOF 6
