REMARK  Name = ZINCpk00000y6xng.0
REMARK                            x       y       z     vdW  Elec       q    Type
REMARK                         _______ _______ _______ _____ _____    ______ ____
ROOT
ATOM      1  N   LIG    1       -2.997   4.541  -1.330  0.00  0.00    -0.360 N 
ATOM      2  N   LIG    1       -2.699   5.668  -2.108  0.00  0.00    -0.480 N 
ATOM      3  H   LIG    1       -2.164   6.426  -1.828  0.00  0.00    +0.450 HD
ATOM      4  C   LIG    1       -3.289   5.513  -3.328  0.00  0.00    +0.360 A 
ATOM      5  C   LIG    1       -3.954   4.337  -3.346  0.00  0.00    -0.110 A 
ATOM      6  C   LIG    1       -3.780   3.712  -2.095  0.00  0.00    +0.490 A 
ATOM      7  N   LIG    1       -4.282   2.534  -1.723  0.00  0.00    -0.680 NA
ENDROOT
BRANCH   7   8
ATOM      8  C   LIG    1       -5.029   1.833  -2.570  0.00  0.00    +0.480 C 
ATOM      9  O   LIG    1       -5.253   2.266  -3.684  0.00  0.00    -0.560 OA
BRANCH   8  10
ATOM     10  C   LIG    1       -5.596   0.502  -2.150  0.00  0.00    +0.370 C 
BRANCH  10  11
ATOM     11  N   LIG    1       -6.376  -0.067  -3.252  0.00  0.00    -0.430 N 
ATOM     12  C   LIG    1       -7.694   0.116  -3.479  0.00  0.00    +0.470 A 
ATOM     13  N   LIG    1       -8.029  -0.544  -4.554  0.00  0.00    -0.450 NA
ATOM     14  C   LIG    1       -6.949  -1.173  -5.042  0.00  0.00    +0.040 A 
ATOM     15  C   LIG    1       -5.904  -0.886  -4.242  0.00  0.00    +0.270 A 
BRANCH  14  16
ATOM     16  N   LIG    1       -6.912  -2.030  -6.247  0.00  0.00    +0.070 N 
ATOM     17  O   LIG    1       -7.928  -2.216  -6.894  0.00  0.00    -0.130 OA
ATOM     18  O   LIG    1       -5.867  -2.550  -6.593  0.00  0.00    -0.160 OA
ENDBRANCH  14  16
ENDBRANCH  10  11
ENDBRANCH   8  10
ENDBRANCH   7   8
BRANCH   1  19
ATOM     19  C   LIG    1       -2.559   4.295   0.046  0.00  0.00    +0.410 C 
BRANCH  19  25
ATOM     20  C   LIG    1        0.002  -0.004   0.002  0.00  0.00    +0.090 C 
ATOM     21  C   LIG    1       -0.018   1.503   0.010  0.00  0.00    -0.090 A 
ATOM     22  C   LIG    1        1.169   2.210   0.003  0.00  0.00    +0.020 A 
ATOM     23  C   LIG    1        1.150   3.592   0.010  0.00  0.00    +0.010 A 
ATOM     24  C   LIG    1       -0.056   4.267   0.025  0.00  0.00    +0.010 A 
ATOM     25  C   LIG    1       -1.244   3.560   0.031  0.00  0.00    -0.130 A 
ATOM     26  C   LIG    1       -1.225   2.178   0.020  0.00  0.00    +0.050 A 
ENDBRANCH  19  25
ENDBRANCH   1  19
TORSDOF 6
