REMARK  Name = ZINCrD00000ce8Dp.0
REMARK                            x       y       z     vdW  Elec       q    Type
REMARK                         _______ _______ _______ _____ _____    ______ ____
ROOT
ATOM      1  C   LIG    1        1.120   3.657   0.011  0.00  0.00    +0.250 C 
ENDROOT
BRANCH   1   4
ATOM      2  C   LIG    1        4.866   4.375  -0.313  0.00  0.00    +0.090 C 
ATOM      3  C   LIG    1        3.542   3.852   0.183  0.00  0.00    +0.520 C 
ATOM      4  N   LIG    1        2.406   4.166  -0.471  0.00  0.00    -0.720 N 
ATOM      5  H   LIG    1        2.440   4.728  -1.260  0.00  0.00    +0.400 HD
ATOM      6  O   LIG    1        3.500   3.149   1.170  0.00  0.00    -0.520 OA
ENDBRANCH   1   4
BRANCH   1   7
ATOM      7  C   LIG    1        1.140   2.151   0.003  0.00  0.00    +0.500 C 
ATOM      8  N   LIG    1       -0.018   1.461   0.010  0.00  0.00    -0.710 N 
ATOM      9  H   LIG    1       -0.864   1.934   0.017  0.00  0.00    +0.400 HD
ATOM     10  O   LIG    1        2.199   1.558  -0.011  0.00  0.00    -0.500 OA
BRANCH   8  11
ATOM     11  C   LIG    1        0.002  -0.004   0.002  0.00  0.00    +0.220 C 
ATOM     12  C   LIG    1       -0.426  -0.619  -1.341  0.00  0.00    +0.010 C 
ATOM     13  C   LIG    1       -1.867  -0.588  -0.806  0.00  0.00    -0.010 C 
ATOM     14  C   LIG    1       -1.261  -0.641   0.606  0.00  0.00    +0.020 C 
BRANCH  13  15
ATOM     15  C   LIG    1       -2.684  -1.830  -1.169  0.00  0.00    -0.010 C 
ATOM     16  C   LIG    1       -3.296  -1.668  -2.576  0.00  0.00    +0.010 C 
ATOM     17  C   LIG    1       -4.692  -2.329  -2.461  0.00  0.00    +0.000 C 
ATOM     18  C   LIG    1       -5.150  -1.918  -1.039  0.00  0.00    -0.010 C 
ATOM     19  C   LIG    1       -3.863  -1.989  -0.192  0.00  0.00    +0.010 C 
ENDBRANCH  13  15
ENDBRANCH   8  11
ENDBRANCH   1   7
BRANCH   1  20
ATOM     20  C   LIG    1        0.876   4.156   1.437  0.00  0.00    +0.130 C 
BRANCH  20  21
ATOM     21  C   LIG    1        0.733   5.656   1.426  0.00  0.00    -0.170 A 
ATOM     22  C   LIG    1        1.705   6.553   1.659  0.00  0.00    +0.220 A 
ATOM     23  N   LIG    1        1.202   7.822   1.564  0.00  0.00    -0.590 N 
ATOM     24  H   LIG    1        1.715   8.635   1.691  0.00  0.00    +0.420 HD
ATOM     25  C   LIG    1       -0.140   7.772   1.259  0.00  0.00    +0.100 A 
ATOM     26  C   LIG    1       -1.112   8.745   1.052  0.00  0.00    -0.010 A 
ATOM     27  C   LIG    1       -2.403   8.370   0.754  0.00  0.00    +0.020 A 
ATOM     28  C   LIG    1       -2.746   7.028   0.657  0.00  0.00    -0.020 A 
ATOM     29  C   LIG    1       -1.807   6.056   0.857  0.00  0.00    +0.050 A 
ATOM     30  C   LIG    1       -0.491   6.413   1.154  0.00  0.00    -0.100 A 
ENDBRANCH  20  21
ENDBRANCH   1  20
TORSDOF 6
