REMARK  Name = ZINCqH0000003Jup.1
REMARK                            x       y       z     vdW  Elec       q    Type
REMARK                         _______ _______ _______ _____ _____    ______ ____
ROOT
ATOM      1  C   LIG    1        0.080   1.158   2.483  0.00  0.00    +0.520 C 
ATOM      2  N   LIG    1       -0.342   1.521   3.711  0.00  0.00    -0.650 N 
ATOM      3  H   LIG    1       -1.074   2.150   3.805  0.00  0.00    +0.430 HD
ATOM      4  O   LIG    1        0.995   0.371   2.364  0.00  0.00    -0.530 OA
ENDROOT
BRANCH   2   5
ATOM      5  C   LIG    1        0.273   0.991   4.845  0.00  0.00    +0.320 A 
ATOM      6  C   LIG    1       -0.046   1.272   6.135  0.00  0.00    -0.250 A 
ATOM      7  C   LIG    1        0.814   0.526   6.963  0.00  0.00    +0.120 A 
ATOM      8  N   LIG    1        1.623  -0.170   6.193  0.00  0.00    -0.260 NA
ATOM      9  C   LIG    1       -1.129   2.212   6.597  0.00  0.00    +0.130 C 
ATOM     10  N   LIG    1        1.304   0.105   4.857  0.00  0.00    -0.460 N 
ATOM     11  H   LIG    1        1.741  -0.271   4.077  0.00  0.00    +0.450 HD
BRANCH   7  12
ATOM     12  C   LIG    1        0.811   0.527   8.447  0.00  0.00    +0.030 A 
ATOM     13  C   LIG    1        2.009   0.527   9.166  0.00  0.00    -0.010 A 
ATOM     14  C   LIG    1        1.962   0.535  10.545  0.00  0.00    +0.260 A 
ATOM     15  N   LIG    1        0.807   0.530  11.183  0.00  0.00    -0.480 NA
ATOM     16  C   LIG    1       -0.346   0.525  10.542  0.00  0.00    +0.260 A 
ATOM     17  C   LIG    1       -0.389   0.523   9.163  0.00  0.00    -0.010 A 
ENDBRANCH   7  12
ENDBRANCH   2   5
BRANCH   1  18
ATOM     18  C   LIG    1       -0.585   1.730   1.258  0.00  0.00    +0.090 C 
BRANCH  18  19
ATOM     19  C   LIG    1        0.079   1.160   0.003  0.00  0.00    +0.100 C 
BRANCH  19  23
ATOM     20  C   LIG    1       -1.807   2.783  -3.471  0.00  0.00    +0.130 A 
ATOM     21  C   LIG    1       -0.717   3.429  -2.906  0.00  0.00    -0.020 A 
ATOM     22  C   LIG    1       -0.110   2.903  -1.782  0.00  0.00    +0.060 A 
ATOM     23  C   LIG    1       -0.586   1.732  -1.222  0.00  0.00    -0.130 A 
ATOM     24  C   LIG    1       -1.669   1.083  -1.786  0.00  0.00    +0.060 A 
ATOM     25  C   LIG    1       -2.284   1.609  -2.906  0.00  0.00    -0.080 A 
BRANCH  20  26
ATOM     26  O   LIG    1       -2.406   3.299  -4.576  0.00  0.00    -0.320 OA
BRANCH  26  28
ATOM     27  C   LIG    1       -4.061   3.308  -6.338  0.00  0.00    +0.070 C 
ATOM     28  C   LIG    1       -3.523   2.580  -5.104  0.00  0.00    +0.170 C 
ENDBRANCH  26  28
ENDBRANCH  20  26
ENDBRANCH  19  23
ENDBRANCH  18  19
ENDBRANCH   1  18
TORSDOF 7
