REMARK  Name = ZINCqH0000003Jup.0
REMARK                            x       y       z     vdW  Elec       q    Type
REMARK                         _______ _______ _______ _____ _____    ______ ____
ROOT
ATOM      1  C   LIG    1        6.764   4.982   1.407  0.00  0.00    +0.510 C 
ATOM      2  N   LIG    1        7.372   5.290   2.570  0.00  0.00    -0.640 N 
ATOM      3  H   LIG    1        6.950   5.059   3.413  0.00  0.00    +0.420 HD
ATOM      4  O   LIG    1        7.291   5.271   0.353  0.00  0.00    -0.490 OA
ENDROOT
BRANCH   2   5
ATOM      5  C   LIG    1        8.612   5.943   2.561  0.00  0.00    +0.300 A 
ATOM      6  N   LIG    1        9.283   6.302   1.492  0.00  0.00    -0.260 NA
ATOM      7  N   LIG    1       10.468   6.928   1.900  0.00  0.00    -0.460 N 
ATOM      8  H   LIG    1       11.151   7.293   1.317  0.00  0.00    +0.440 HD
ATOM      9  C   LIG    1       10.492   6.926   3.263  0.00  0.00    +0.130 A 
ATOM     10  C   LIG    1        9.347   6.319   3.692  0.00  0.00    -0.220 A 
ATOM     11  C   LIG    1        8.945   6.093   5.127  0.00  0.00    +0.120 C 
BRANCH   9  12
ATOM     12  C   LIG    1       11.562   7.482   4.120  0.00  0.00    +0.010 A 
ATOM     13  C   LIG    1       11.255   8.273   5.233  0.00  0.00    -0.010 A 
ATOM     14  C   LIG    1       12.284   8.767   6.007  0.00  0.00    +0.270 A 
ATOM     15  N   LIG    1       13.543   8.510   5.705  0.00  0.00    -0.480 NA
ATOM     16  C   LIG    1       13.876   7.773   4.662  0.00  0.00    +0.270 A 
ATOM     17  C   LIG    1       12.911   7.236   3.837  0.00  0.00    -0.020 A 
ENDBRANCH   9  12
ENDBRANCH   2   5
BRANCH   1  18
ATOM     18  C   LIG    1        5.431   4.280   1.416  0.00  0.00    +0.070 C 
BRANCH  18  19
ATOM     19  C   LIG    1        4.966   4.050  -0.024  0.00  0.00    +0.100 C 
BRANCH  19  23
ATOM     20  C   LIG    1        1.185   2.058   0.002  0.00  0.00    +0.130 A 
ATOM     21  C   LIG    1        2.359   1.320  -0.008  0.00  0.00    -0.080 A 
ATOM     22  C   LIG    1        3.580   1.966  -0.021  0.00  0.00    +0.060 A 
ATOM     23  C   LIG    1        3.633   3.348  -0.015  0.00  0.00    -0.120 A 
ATOM     24  C   LIG    1        2.464   4.086   0.000  0.00  0.00    +0.060 A 
ATOM     25  C   LIG    1        1.240   3.444   0.009  0.00  0.00    -0.020 A 
BRANCH  20  26
ATOM     26  O   LIG    1       -0.017   1.425   0.010  0.00  0.00    -0.320 OA
BRANCH  26  28
ATOM     27  C   LIG    1       -1.433  -0.534   0.013  0.00  0.00    +0.070 C 
ATOM     28  C   LIG    1        0.002  -0.004   0.002  0.00  0.00    +0.170 C 
ENDBRANCH  26  28
ENDBRANCH  20  26
ENDBRANCH  19  23
ENDBRANCH  18  19
ENDBRANCH   1  18
TORSDOF 7
