REMARK  Name = ZINCvU00000008DU.0
REMARK                            x       y       z     vdW  Elec       q    Type
REMARK                         _______ _______ _______ _____ _____    ______ ____
ROOT
ATOM      1  C   LIG    1       -2.347  -0.230   0.025  0.00  0.00    +0.150 C 
ATOM      2  C   LIG    1       -2.562   1.099   0.034  0.00  0.00    -0.040 C 
ATOM      3  C   LIG    1       -1.357   2.012   0.032  0.00  0.00    +0.330 C 
ATOM      4  N   LIG    1       -0.017   1.370   0.010  0.00  0.00    -0.570 N 
ATOM      5  C   LIG    1        1.171   1.981   0.002  0.00  0.00    +0.560 A 
ATOM      6  C   LIG    1        2.311   1.192  -0.015  0.00  0.00    -0.230 A 
ATOM      7  S   LIG    1        1.712  -0.476  -0.018  0.00  0.00    +0.150 S 
ATOM      8  C   LIG    1        3.638   1.618  -0.026  0.00  0.00    -0.060 C 
ATOM      9  S   LIG    1        4.208   3.284  -0.031  0.00  0.00    +0.180 S 
ATOM     10  C   LIG    1        5.939   3.036  -0.043  0.00  0.00    -0.180 C 
ATOM     11  C   LIG    1        6.334   1.803  -0.053  0.00  0.00    -0.170 C 
ATOM     12  C   LIG    1        7.795   1.433  -0.071  0.00  0.00    +0.180 C 
ATOM     13  C   LIG    1        6.911   4.188  -0.047  0.00  0.00    +0.180 C 
ATOM     14  S   LIG    1        5.071   0.595  -0.046  0.00  0.00    +0.120 S 
ATOM     15  O   LIG    1        1.250   3.201   0.007  0.00  0.00    -0.480 OA
ATOM     16  C   LIG    1        0.002  -0.004   0.002  0.00  0.00    +0.360 A 
ATOM     17  N   LIG    1       -1.087  -0.731   0.009  0.00  0.00    -0.490 NA
ENDROOT
BRANCH   1  22
ATOM     18  C   LIG    1       -6.839  -3.835   0.053  0.00  0.00    +0.090 C 
ATOM     19  C   LIG    1       -5.663  -2.892   0.046  0.00  0.00    -0.080 A 
ATOM     20  C   LIG    1       -4.375  -3.396   0.030  0.00  0.00    +0.000 A 
ATOM     21  C   LIG    1       -3.295  -2.536   0.023  0.00  0.00    +0.050 A 
ATOM     22  C   LIG    1       -3.504  -1.159   0.032  0.00  0.00    -0.050 A 
ATOM     23  C   LIG    1       -4.804  -0.656   0.054  0.00  0.00    +0.030 A 
ATOM     24  C   LIG    1       -5.877  -1.525   0.055  0.00  0.00    +0.010 A 
ENDBRANCH   1  22
BRANCH   3  25
ATOM     25  C   LIG    1       -1.464   2.903  -1.179  0.00  0.00    -0.090 A 
ATOM     26  C   LIG    1       -0.947   2.486  -2.391  0.00  0.00    +0.030 A 
ATOM     27  C   LIG    1       -1.050   3.300  -3.503  0.00  0.00    +0.030 A 
ATOM     28  C   LIG    1       -1.660   4.538  -3.400  0.00  0.00    -0.030 A 
ATOM     29  C   LIG    1       -2.171   4.957  -2.185  0.00  0.00    +0.040 A 
ATOM     30 CL   LIG    1       -1.783   5.564  -4.795  0.00  0.00    -0.070 Cl
ATOM     31  C   LIG    1       -2.073   4.140  -1.075  0.00  0.00    +0.050 A 
ENDBRANCH   3  25
TORSDOF 2
