REMARK  Name = ZINCqH0000036SdY.0
REMARK                            x       y       z     vdW  Elec       q    Type
REMARK                         _______ _______ _______ _____ _____    ______ ____
ROOT
ATOM      1  N   LIG    1       -2.902   3.048   0.195  0.00  0.00    -0.730 N 
ATOM      2  H   LIG    1       -2.315   3.547   0.784  0.00  0.00    +0.400 HD
ENDROOT
BRANCH   1   7
ATOM      3  C   LIG    1        1.391   1.671   0.932  0.00  0.00    +0.020 C 
ATOM      4  C   LIG    1       -0.021   1.132   0.691  0.00  0.00    -0.010 C 
ATOM      5  C   LIG    1       -0.531   1.625  -0.664  0.00  0.00    +0.020 C 
ATOM      6  C   LIG    1       -1.942   1.086  -0.905  0.00  0.00    +0.010 C 
ATOM      7  C   LIG    1       -2.874   1.583   0.202  0.00  0.00    +0.240 C 
ATOM      8  C   LIG    1       -2.364   1.090   1.558  0.00  0.00    +0.250 C 
ATOM      9  C   LIG    1       -0.952   1.629   1.799  0.00  0.00    +0.050 C 
BRANCH   8  10
ATOM     10  N   LIG    1       -2.335  -0.375   1.565  0.00  0.00    -0.370 N 
ATOM     11  C   LIG    1       -3.208  -1.201   0.963  0.00  0.00    +0.460 A 
ATOM     12  N   LIG    1       -2.835  -2.432   1.204  0.00  0.00    -0.540 NA
ATOM     13  C   LIG    1       -1.738  -2.431   1.960  0.00  0.00    +0.420 A 
ATOM     14  N   LIG    1       -1.393  -1.195   2.207  0.00  0.00    -0.310 NA
ENDBRANCH   8  10
ENDBRANCH   1   7
BRANCH   1  15
ATOM     15  C   LIG    1       -3.776   3.725  -0.659  0.00  0.00    +0.230 A 
ATOM     16  C   LIG    1       -4.613   3.011  -1.507  0.00  0.00    -0.060 A 
ATOM     17  C   LIG    1       -5.480   3.681  -2.349  0.00  0.00    +0.070 A 
ATOM     18  C   LIG    1       -5.509   5.062  -2.357  0.00  0.00    -0.040 A 
ATOM     19  C   LIG    1       -4.671   5.781  -1.516  0.00  0.00    +0.140 A 
ATOM     20  C   LIG    1       -3.804   5.113  -0.667  0.00  0.00    -0.070 A 
BRANCH  19  21
ATOM     21  O   LIG    1       -4.701   7.140  -1.527  0.00  0.00    -0.230 OA
BRANCH  21  22
ATOM     22  C   LIG    1       -3.628   7.796  -2.031  0.00  0.00    +0.500 A 
ATOM     23  N   LIG    1       -2.651   7.101  -2.590  0.00  0.00    -0.550 NA
ATOM     24  C   LIG    1       -1.591   7.710  -3.097  0.00  0.00    +0.360 A 
ATOM     25  C   LIG    1       -1.508   9.091  -3.027  0.00  0.00    -0.110 A 
ATOM     26  C   LIG    1       -2.548   9.787  -2.430  0.00  0.00    +0.370 A 
ATOM     27  N   LIG    1       -3.581   9.116  -1.948  0.00  0.00    -0.520 NA
ENDBRANCH  21  22
ENDBRANCH  19  21
ENDBRANCH   1  15
TORSDOF 5
