REMARK  Name = ZINCrD0000074pbX.0
REMARK                            x       y       z     vdW  Elec       q    Type
REMARK                         _______ _______ _______ _____ _____    ______ ____
ROOT
ATOM      1  C   LIG    1       -2.240  -4.845  -0.303  0.00  0.00    +0.420 C 
ATOM      2  O   LIG    1       -3.131  -4.427   0.407  0.00  0.00    -0.460 OA
ENDROOT
BRANCH   1   6
ATOM      3  C   LIG    1        2.623  -3.701  -1.302  0.00  0.00    +0.120 C 
ATOM      4  C   LIG    1        1.224  -3.705  -0.742  0.00  0.00    +0.010 A 
ATOM      5  C   LIG    1        0.254  -4.571  -1.079  0.00  0.00    +0.000 A 
ATOM      6  C   LIG    1       -0.927  -4.197  -0.289  0.00  0.00    -0.280 A 
ATOM      7  C   LIG    1       -0.541  -3.112   0.476  0.00  0.00    +0.140 A 
ATOM      8  C   LIG    1       -1.410  -2.370   1.459  0.00  0.00    +0.150 C 
ATOM      9  N   LIG    1        0.742  -2.831   0.188  0.00  0.00    -0.430 N 
BRANCH   9  10
ATOM     10  C   LIG    1        1.514  -1.742   0.791  0.00  0.00    +0.310 C 
BRANCH  10  11
ATOM     11  C   LIG    1        1.358  -0.476  -0.054  0.00  0.00    +0.140 C 
ATOM     12  C   LIG    1        2.211   0.674   0.537  0.00  0.00    +0.020 C 
ATOM     13  C   LIG    1        1.448   1.915  -0.002  0.00  0.00    +0.020 C 
ATOM     14  C   LIG    1       -0.017   1.428   0.010  0.00  0.00    +0.190 C 
ATOM     15  O   LIG    1        0.002  -0.004   0.002  0.00  0.00    -0.370 OA
ENDBRANCH  10  11
ENDBRANCH   9  10
ENDBRANCH   1   6
BRANCH   1  16
ATOM     16  C   LIG    1       -2.486  -6.030  -1.201  0.00  0.00    +0.320 C 
BRANCH  16  17
ATOM     17  N   LIG    1       -3.866  -6.492  -1.033  0.00  0.00    -0.480 N 
ATOM     18  C   LIG    1       -4.149  -7.434  -0.097  0.00  0.00    +0.350 A 
ATOM     19  C   LIG    1       -5.417  -7.872   0.081  0.00  0.00    -0.080 A 
ATOM     20  C   LIG    1       -6.452  -7.361  -0.715  0.00  0.00    +0.210 A 
ATOM     21  C   LIG    1       -6.165  -6.419  -1.659  0.00  0.00    -0.320 A 
ATOM     22  C   LIG    1       -4.838  -5.982  -1.813  0.00  0.00    +0.540 A 
ATOM     23  O   LIG    1       -4.567  -5.140  -2.654  0.00  0.00    -0.520 OA
BRANCH  21  24
ATOM     24  C   LIG    1       -7.259  -5.852  -2.526  0.00  0.00    +0.530 C 
ATOM     25  F   LIG    1       -6.974  -6.120  -3.870  0.00  0.00    -0.170 F 
ATOM     26  F   LIG    1       -7.338  -4.469  -2.333  0.00  0.00    -0.170 F 
ATOM     27  F   LIG    1       -8.480  -6.442  -2.183  0.00  0.00    -0.180 F 
ENDBRANCH  21  24
ENDBRANCH  16  17
ENDBRANCH   1  16
TORSDOF 6
