REMARK  Name = ZINCrD000001YLR2.0
REMARK                            x       y       z     vdW  Elec       q    Type
REMARK                         _______ _______ _______ _____ _____    ______ ____
ROOT
ATOM      1  C   LIG    1        1.799   1.457  -1.025  0.00  0.00    +0.570 C 
ATOM      2  N   LIG    1        1.155   2.248  -0.144  0.00  0.00    -0.720 N 
ATOM      3  H   LIG    1        0.588   1.854   0.537  0.00  0.00    +0.400 HD
ATOM      4  O   LIG    1        2.440   1.953  -1.931  0.00  0.00    -0.520 OA
ENDROOT
BRANCH   1   9
ATOM      5  C   LIG    1        2.330  -2.212  -1.658  0.00  0.00    +0.140 A 
ATOM      6  C   LIG    1        1.600  -2.771  -0.616  0.00  0.00    +0.010 A 
ATOM      7  C   LIG    1        0.940  -1.958   0.287  0.00  0.00    +0.030 A 
ATOM      8  C   LIG    1        1.002  -0.585   0.159  0.00  0.00    +0.020 A 
ATOM      9  C   LIG    1        1.732  -0.013  -0.885  0.00  0.00    -0.120 A 
ATOM     10  C   LIG    1        2.393  -0.834  -1.798  0.00  0.00    +0.090 A 
BRANCH   5  12
ATOM     11  C   LIG    1        4.161  -2.640  -3.114  0.00  0.00    +0.540 C 
ATOM     12  N   LIG    1        2.995  -3.039  -2.568  0.00  0.00    -0.670 N 
ATOM     13  H   LIG    1        2.618  -3.901  -2.806  0.00  0.00    +0.410 HD
ATOM     14  O   LIG    1        4.682  -1.605  -2.745  0.00  0.00    -0.520 OA
BRANCH  11  16
ATOM     15  C   LIG    1        5.954  -3.062  -4.693  0.00  0.00    +0.160 C 
ATOM     16  C   LIG    1        4.804  -3.456  -4.155  0.00  0.00    -0.090 C 
ENDBRANCH  11  16
ENDBRANCH   5  12
ENDBRANCH   1   9
BRANCH   2  17
ATOM     17  C   LIG    1        1.310   3.703  -0.216  0.00  0.00    +0.190 C 
ATOM     18  C   LIG    1        0.482   4.362   0.891  0.00  0.00    +0.020 C 
ATOM     19  C   LIG    1       -1.001   4.052   0.659  0.00  0.00    +0.210 C 
ATOM     20  O   LIG    1       -1.387   4.517  -0.635  0.00  0.00    -0.380 OA
ATOM     21  C   LIG    1       -0.678   3.901  -1.712  0.00  0.00    +0.200 C 
ATOM     22  C   LIG    1        0.816   4.204  -1.577  0.00  0.00    +0.010 C 
BRANCH  17  23
ATOM     23  C   LIG    1        2.785   4.070  -0.040  0.00  0.00    +0.080 C 
BRANCH  23  24
ATOM     24  C   LIG    1        3.301   3.474   1.245  0.00  0.00    -0.070 A 
ATOM     25  C   LIG    1        3.225   4.197   2.421  0.00  0.00    +0.000 A 
ATOM     26  C   LIG    1        3.694   3.649   3.600  0.00  0.00    +0.000 A 
ATOM     27  C   LIG    1        4.247   2.382   3.602  0.00  0.00    +0.000 A 
ATOM     28  C   LIG    1        4.327   1.662   2.425  0.00  0.00    +0.000 A 
ATOM     29  C   LIG    1        3.854   2.208   1.246  0.00  0.00    +0.010 A 
ENDBRANCH  23  24
ENDBRANCH  17  23
ENDBRANCH   2  17
TORSDOF 6
