REMARK  Name = ZINCrD000000gHt4.0
REMARK                            x       y       z     vdW  Elec       q    Type
REMARK                         _______ _______ _______ _____ _____    ______ ____
ROOT
ATOM      1  C   LIG    1       -4.287   6.189   7.191  0.00  0.00    +0.160 A 
ATOM      2  C   LIG    1       -3.600   6.074   8.392  0.00  0.00    +0.050 A 
ATOM      3  C   LIG    1       -2.650   5.083   8.550  0.00  0.00    +0.030 A 
ATOM      4  C   LIG    1       -2.387   4.204   7.516  0.00  0.00    +0.020 A 
ATOM      5  C   LIG    1       -3.066   4.319   6.317  0.00  0.00    -0.070 A 
ATOM      6  C   LIG    1       -4.017   5.307   6.152  0.00  0.00    +0.010 A 
ENDROOT
BRANCH   1   8
ATOM      7  C   LIG    1       -6.021   7.562   8.069  0.00  0.00    +0.650 C 
ATOM      8  N   LIG    1       -5.250   7.191   7.027  0.00  0.00    -0.650 N 
ATOM      9  H   LIG    1       -5.362   7.619   6.164  0.00  0.00    +0.420 HD
ATOM     10  O   LIG    1       -5.824   7.087   9.169  0.00  0.00    -0.550 OA
BRANCH   7  11
ATOM     11  O   LIG    1       -7.008   8.459   7.889  0.00  0.00    -0.360 OA
BRANCH  11  13
ATOM     12  C   LIG    1       -6.887   9.413  10.127  0.00  0.00    +0.040 C 
ATOM     13  C   LIG    1       -7.799   8.811   9.055  0.00  0.00    +0.140 C 
ATOM     14  C   LIG    1       -8.478   7.557   9.609  0.00  0.00    +0.030 C 
ATOM     15  C   LIG    1       -8.864   9.835   8.659  0.00  0.00    +0.080 C 
ENDBRANCH  11  13
ENDBRANCH   7  11
ENDBRANCH   1   8
BRANCH   5  16
ATOM     16  C   LIG    1       -2.772   3.362   5.190  0.00  0.00    +0.160 C 
BRANCH  16  17
ATOM     17  S   LIG    1       -1.452   4.039   4.153  0.00  0.00    +0.080 S 
BRANCH  17  18
ATOM     18  C   LIG    1       -1.317   2.755   2.954  0.00  0.00    +0.140 A 
ATOM     19  N   LIG    1       -2.025   1.652   2.912  0.00  0.00    -0.290 NA
ATOM     20  N   LIG    1       -1.660   0.950   1.897  0.00  0.00    -0.230 NA
ATOM     21  C   LIG    1       -0.707   1.566   1.262  0.00  0.00    +0.130 A 
ATOM     22  O   LIG    1       -0.468   2.724   1.909  0.00  0.00    -0.200 OA
BRANCH  21  23
ATOM     23  C   LIG    1       -0.003   1.078   0.022  0.00  0.00    +0.520 C 
BRANCH  23  24
ATOM     24  N   LIG    1       -0.717   1.554  -1.165  0.00  0.00    -0.390 N 
ATOM     25  C   LIG    1       -0.202   2.262  -2.185  0.00  0.00    +0.500 A 
ATOM     26  N   LIG    1       -1.161   2.490  -3.046  0.00  0.00    -0.540 NA
ATOM     27  C   LIG    1       -2.297   1.945  -2.612  0.00  0.00    +0.430 A 
ATOM     28  N   LIG    1       -2.075   1.357  -1.466  0.00  0.00    -0.300 NA
ENDBRANCH  23  24
ENDBRANCH  21  23
ENDBRANCH  17  18
ENDBRANCH  16  17
ENDBRANCH   5  16
TORSDOF 8
