REMARK  Name = ZINCrH00000tj0G6.0
REMARK                            x       y       z     vdW  Elec       q    Type
REMARK                         _______ _______ _______ _____ _____    ______ ____
ROOT
ATOM      1  S   LIG    1        5.464  -3.537  -4.682  0.00  0.00    +2.690 S 
ATOM      2  O   LIG    1        6.822  -3.284  -5.016  0.00  0.00    -0.940 OA
ATOM      3  O   LIG    1        4.443  -3.711  -5.654  0.00  0.00    -0.950 OA
ENDROOT
BRANCH   1   6
ATOM      4  C   LIG    1        4.316  -6.915  -2.827  0.00  0.00    +0.140 A 
ATOM      5  C   LIG    1        4.319  -5.769  -3.607  0.00  0.00    +0.040 A 
ATOM      6  C   LIG    1        5.460  -4.994  -3.690  0.00  0.00    -0.630 A 
ATOM      7  C   LIG    1        6.599  -5.363  -3.001  0.00  0.00    +0.100 A 
ATOM      8  C   LIG    1        6.598  -6.503  -2.217  0.00  0.00    +0.080 A 
ATOM      9  C   LIG    1        5.460  -7.281  -2.131  0.00  0.00    -0.080 A 
ATOM     10 BR   LIG    1        5.460  -8.844  -1.066  0.00  0.00    -0.020 Br
BRANCH   4  11
ATOM     11  O   LIG    1        3.194  -7.679  -2.744  0.00  0.00    -0.300 OA
BRANCH  11  12
ATOM     12  C   LIG    1        2.054  -7.241  -3.486  0.00  0.00    +0.190 C 
BRANCH  12  14
ATOM     13  C   LIG    1       -0.322  -7.751  -4.065  0.00  0.00    +0.040 C 
ATOM     14  C   LIG    1        0.898  -8.220  -3.270  0.00  0.00    +0.040 C 
ENDBRANCH  12  14
ENDBRANCH  11  12
ENDBRANCH   4  11
ENDBRANCH   1   6
BRANCH   1  15
ATOM     15  N   LIG    1        4.980  -2.284  -3.714  0.00  0.00    -1.000 NA
ATOM     16  C   LIG    1        5.960  -1.497  -2.950  0.00  0.00    +0.320 C 
ATOM     17  C   LIG    1        5.506  -1.439  -1.488  0.00  0.00    +0.170 C 
ATOM     18  N   LIG    1        4.125  -0.940  -1.427  0.00  0.00    -0.530 NA
ATOM     19  C   LIG    1        3.198  -1.854  -2.107  0.00  0.00    +0.170 C 
ATOM     20  C   LIG    1        3.558  -1.928  -3.594  0.00  0.00    +0.310 C 
BRANCH  18  21
ATOM     21  C   LIG    1        3.711  -0.707  -0.037  0.00  0.00    +0.220 C 
BRANCH  21  22
ATOM     22  C   LIG    1        2.396   0.029  -0.021  0.00  0.00    -0.080 A 
ATOM     23  C   LIG    1        1.208  -0.679  -0.013  0.00  0.00    +0.000 A 
ATOM     24  C   LIG    1        0.002  -0.004   0.002  0.00  0.00    +0.000 A 
ATOM     25  C   LIG    1       -0.017   1.378   0.010  0.00  0.00    +0.000 A 
ATOM     26  C   LIG    1        1.171   2.086   0.002  0.00  0.00    +0.000 A 
ATOM     27  C   LIG    1        2.377   1.411  -0.015  0.00  0.00    +0.020 A 
ENDBRANCH  21  22
ENDBRANCH  18  21
ENDBRANCH   1  15
TORSDOF 7
