REMARK  Name = ZINCrD000000CJD7.0
REMARK                            x       y       z     vdW  Elec       q    Type
REMARK                         _______ _______ _______ _____ _____    ______ ____
ROOT
ATOM      1  O   LIG    1       -0.889  -0.467  -2.033  0.00  0.00    -0.510 OA
ATOM      2  C   LIG    1       -1.132   0.720  -2.138  0.00  0.00    +0.590 C 
ATOM      3  N   LIG    1       -0.659   1.588  -1.222  0.00  0.00    -0.600 N 
ATOM      4  C   LIG    1        0.058   1.106  -0.034  0.00  0.00    +0.310 C 
ATOM      5  C   LIG    1       -0.605   1.691   1.217  0.00  0.00    +0.040 C 
ATOM      6  C   LIG    1       -0.666   3.216   1.091  0.00  0.00    +0.270 C 
ATOM      7  C   LIG    1       -1.507   3.598  -0.129  0.00  0.00    +0.020 C 
ATOM      8  C   LIG    1       -0.851   3.035  -1.394  0.00  0.00    +0.290 C 
ENDROOT
BRANCH   2   9
ATOM      9  C   LIG    1       -1.948   1.210  -3.271  0.00  0.00    +0.070 A 
ATOM     10  C   LIG    1       -3.351   1.028  -3.281  0.00  0.00    -0.050 A 
ATOM     11  C   LIG    1       -4.038   0.388  -2.246  0.00  0.00    +0.050 A 
ATOM     12  C   LIG    1       -5.393   0.250  -2.325  0.00  0.00    +0.050 A 
ATOM     13  C   LIG    1       -6.102   0.736  -3.422  0.00  0.00    +0.040 A 
ATOM     14  C   LIG    1       -5.465   1.365  -4.449  0.00  0.00    +0.070 A 
ATOM     15  C   LIG    1       -4.073   1.524  -4.400  0.00  0.00    -0.080 A 
ATOM     16  C   LIG    1       -3.345   2.161  -5.418  0.00  0.00    +0.290 A 
ATOM     17  N   LIG    1       -2.037   2.273  -5.298  0.00  0.00    -0.260 NA
ATOM     18  N   LIG    1       -1.379   1.833  -4.291  0.00  0.00    -0.230 NA
ENDBRANCH   2   9
BRANCH   6  19
ATOM     19  N   LIG    1       -1.273   3.781   2.299  0.00  0.00    -0.350 N 
ATOM     20  C   LIG    1       -2.267   3.225   3.022  0.00  0.00    +0.250 A 
ATOM     21  C   LIG    1       -2.538   4.054   4.056  0.00  0.00    -0.070 A 
ATOM     22  C   LIG    1       -1.687   5.160   3.956  0.00  0.00    -0.020 A 
ATOM     23  N   LIG    1       -0.928   4.997   2.903  0.00  0.00    -0.230 NA
BRANCH  22  24
ATOM     24  C   LIG    1       -1.650   6.335   4.898  0.00  0.00    +0.560 C 
ATOM     25  F   LIG    1       -1.236   5.906   6.164  0.00  0.00    -0.170 F 
ATOM     26  F   LIG    1       -2.928   6.898   4.991  0.00  0.00    -0.170 F 
ATOM     27  F   LIG    1       -0.753   7.293   4.414  0.00  0.00    -0.170 F 
ENDBRANCH  22  24
ENDBRANCH   6  19
TORSDOF 3
