REMARK  Name = ZINCqH0000008a0z.0
REMARK                            x       y       z     vdW  Elec       q    Type
REMARK                         _______ _______ _______ _____ _____    ______ ____
ROOT
ATOM      1  C   LIG    1       -5.866  -1.195   4.563  0.00  0.00    +0.030 C 
ATOM      2  C   LIG    1       -4.477  -0.704   4.974  0.00  0.00    +0.170 C 
ENDROOT
BRANCH   2   3
ATOM      3  N   LIG    1       -3.761  -0.211   3.790  0.00  0.00    -0.520 NA
ATOM      4  C   LIG    1       -3.858  -1.168   2.679  0.00  0.00    +0.190 C 
ATOM      5  C   LIG    1       -3.036  -0.656   1.495  0.00  0.00    +0.190 C 
ATOM      6  N   LIG    1       -3.533   0.667   1.092  0.00  0.00    -0.540 NA
ATOM      7  C   LIG    1       -3.435   1.624   2.202  0.00  0.00    +0.170 C 
ATOM      8  C   LIG    1       -4.258   1.112   3.387  0.00  0.00    +0.190 C 
BRANCH   6   9
ATOM      9  C   LIG    1       -2.817   1.160  -0.093  0.00  0.00    +0.270 C 
BRANCH   9  10
ATOM     10  C   LIG    1       -3.509   2.390  -0.622  0.00  0.00    -0.160 A 
ATOM     11  C   LIG    1       -3.237   3.643  -0.254  0.00  0.00    +0.020 A 
ATOM     12  C   LIG    1       -3.999   4.614  -0.881  0.00  0.00    +0.030 A 
ATOM     13  C   LIG    1       -4.895   4.147  -1.754  0.00  0.00    -0.150 A 
ATOM     14 CL   LIG    1       -5.985   5.124  -2.688  0.00  0.00    -0.010 Cl
ATOM     15  S   LIG    1       -4.800   2.392  -1.816  0.00  0.00    +0.170 S 
ENDBRANCH   9  10
ENDBRANCH   6   9
ENDBRANCH   2   3
BRANCH   2  16
ATOM     16  C   LIG    1       -3.704  -1.841   5.591  0.00  0.00    +0.520 C 
ATOM     17  N   LIG    1       -4.013  -2.273   6.830  0.00  0.00    -0.730 N 
ATOM     18  H   LIG    1       -4.733  -1.851   7.325  0.00  0.00    +0.400 HD
ATOM     19  O   LIG    1       -2.804  -2.369   4.972  0.00  0.00    -0.520 OA
BRANCH  17  20
ATOM     20  C   LIG    1       -3.262  -3.379   7.429  0.00  0.00    +0.290 C 
ATOM     21  C   LIG    1       -3.864  -4.710   6.974  0.00  0.00    +0.040 C 
BRANCH  20  22
ATOM     22  C   LIG    1       -3.337  -3.281   8.931  0.00  0.00    -0.090 A 
ATOM     23  C   LIG    1       -4.520  -2.908   9.542  0.00  0.00    +0.000 A 
ATOM     24  C   LIG    1       -4.589  -2.822  10.920  0.00  0.00    +0.000 A 
ATOM     25  C   LIG    1       -3.473  -3.100  11.687  0.00  0.00    +0.000 A 
ATOM     26  C   LIG    1       -2.289  -3.468  11.076  0.00  0.00    +0.020 A 
ATOM     27  C   LIG    1       -2.220  -3.558   9.698  0.00  0.00    +0.010 A 
ENDBRANCH  20  22
ENDBRANCH  17  20
ENDBRANCH   2  16
TORSDOF 6
