REMARK  Name = ZINCrg00000fRhSy.0
REMARK                            x       y       z     vdW  Elec       q    Type
REMARK                         _______ _______ _______ _____ _____    ______ ____
ROOT
ATOM      1  O   LIG    1        1.145   1.903   0.001  0.00  0.00    -0.330 OA
ENDROOT
BRANCH   1   2
ATOM      2  C   LIG    1       -0.014   1.212   0.009  0.00  0.00    +0.510 C 
ATOM      3  O   LIG    1        0.002  -0.004   0.002  0.00  0.00    -0.510 OA
BRANCH   2   4
ATOM      4  C   LIG    1       -1.252   1.904   0.018  0.00  0.00    -0.060 C 
ATOM      5  C   LIG    1       -2.412   1.213   0.020  0.00  0.00    +0.160 C 
BRANCH   5   6
ATOM      6  C   LIG    1       -3.695   1.931   0.030  0.00  0.00    -0.080 A 
ATOM      7  C   LIG    1       -3.717   3.330   0.038  0.00  0.00    +0.070 A 
ATOM      8  C   LIG    1       -4.920   3.999   0.047  0.00  0.00    +0.040 A 
ATOM      9  C   LIG    1       -6.115   3.291   0.049  0.00  0.00    +0.050 A 
ATOM     10  O   LIG    1       -7.412   3.713   0.057  0.00  0.00    -0.300 OA
ATOM     11  C   LIG    1       -8.186   2.571   0.468  0.00  0.00    +0.440 C 
ATOM     12  O   LIG    1       -7.391   1.447   0.045  0.00  0.00    -0.310 OA
ATOM     13  C   LIG    1       -6.101   1.895   0.041  0.00  0.00    +0.030 A 
ATOM     14  C   LIG    1       -4.899   1.216   0.026  0.00  0.00    +0.070 A 
ENDBRANCH   5   6
ENDBRANCH   2   4
ENDBRANCH   1   2
BRANCH   1  15
ATOM     15  C   LIG    1        2.354   1.141  -0.014  0.00  0.00    +0.250 C 
BRANCH  15  17
ATOM     16  N   LIG    1        4.788   1.577  -0.035  0.00  0.00    -0.600 N 
ATOM     17  C   LIG    1        3.536   2.075  -0.021  0.00  0.00    +0.520 C 
ATOM     18  O   LIG    1        3.361   3.275  -0.012  0.00  0.00    -0.500 OA
BRANCH  16  19
ATOM     19  C   LIG    1        5.938   2.485  -0.041  0.00  0.00    +0.280 C 
ATOM     20  C   LIG    1        5.887   3.408   1.189  0.00  0.00    +0.060 C 
ATOM     21  C   LIG    1        6.892   4.559   0.985  0.00  0.00    -0.310 C 
ATOM     22  S   LIG    1        7.012   4.771  -0.828  0.00  0.00    +2.390 S 
ATOM     23  O   LIG    1        6.427   6.012  -1.200  0.00  0.00    -0.930 OA
ATOM     24  O   LIG    1        8.331   4.455  -1.252  0.00  0.00    -0.930 OA
ATOM     25  C   LIG    1        5.882   3.404  -1.289  0.00  0.00    -0.310 C 
ENDBRANCH  16  19
BRANCH  16  27
ATOM     26  C   LIG    1        5.060  -0.370  -1.491  0.00  0.00    +0.020 C 
ATOM     27  C   LIG    1        5.000   0.127  -0.045  0.00  0.00    +0.280 C 
ENDBRANCH  16  27
ENDBRANCH  15  17
ENDBRANCH   1  15
TORSDOF 7
