REMARK  Name = ZINCpk000004WvYP.2
REMARK                            x       y       z     vdW  Elec       q    Type
REMARK                         _______ _______ _______ _____ _____    ______ ____
ROOT
ATOM      1  C   LIG    1       -0.729   1.579   1.267  0.00  0.00    +0.230 C 
ATOM      2  C   LIG    1        0.079   1.179   2.503  0.00  0.00    +0.030 C 
ENDROOT
BRANCH   1   3
ATOM      3  N   LIG    1       -2.062   0.977   1.338  0.00  0.00    -0.720 N 
ATOM      4  H   LIG    1       -2.237   0.133   0.893  0.00  0.00    +0.390 HD
ATOM      5  C   LIG    1       -3.046   1.595   2.021  0.00  0.00    +0.520 C 
ATOM      6  O   LIG    1       -2.827   2.650   2.577  0.00  0.00    -0.520 OA
BRANCH   5   7
ATOM      7  C   LIG    1       -4.417   0.975   2.095  0.00  0.00    +0.160 C 
BRANCH   7   8
ATOM      8  C   LIG    1       -5.325   1.859   2.911  0.00  0.00    +0.030 A 
ATOM      9  N   LIG    1       -5.117   2.281   4.125  0.00  0.00    -0.330 NA
ATOM     10  O   LIG    1       -6.026   2.976   4.516  0.00  0.00    +0.110 OA
ATOM     11  C   LIG    1       -6.981   3.108   3.585  0.00  0.00    +0.000 A 
ATOM     12  C   LIG    1       -6.568   2.398   2.508  0.00  0.00    -0.050 A 
BRANCH  11  13
ATOM     13  C   LIG    1       -8.259   3.896   3.710  0.00  0.00    +0.050 C 
ATOM     14  C   LIG    1       -8.421   4.790   4.942  0.00  0.00    +0.040 C 
ATOM     15  C   LIG    1       -9.230   3.497   4.823  0.00  0.00    +0.050 C 
ENDBRANCH  11  13
ENDBRANCH   7   8
ENDBRANCH   5   7
ENDBRANCH   1   3
BRANCH   1  16
ATOM     16  C   LIG    1       -0.013   1.086   0.008  0.00  0.00    +0.040 C 
BRANCH  16  17
ATOM     17  C   LIG    1       -0.753   1.593  -1.232  0.00  0.00    +0.230 C 
ATOM     18  C   LIG    1        0.031   1.205  -2.487  0.00  0.00    +0.030 C 
BRANCH  17  20
ATOM     19  C   LIG    1       -3.083   1.616  -1.942  0.00  0.00    +0.510 C 
ATOM     20  N   LIG    1       -2.087   0.991  -1.284  0.00  0.00    -0.730 N 
ATOM     21  H   LIG    1       -2.254   0.142  -0.845  0.00  0.00    +0.390 HD
ATOM     22  O   LIG    1       -2.875   2.678  -2.490  0.00  0.00    -0.510 OA
BRANCH  19  23
ATOM     23  C   LIG    1       -4.456   0.997  -1.995  0.00  0.00    +0.190 C 
BRANCH  23  24
ATOM     24  N   LIG    1       -5.356   1.867  -2.765  0.00  0.00    -0.520 NA
ATOM     25  C   LIG    1       -4.947   1.932  -4.174  0.00  0.00    +0.200 C 
BRANCH  24  27
ATOM     26  C   LIG    1       -7.678   2.481  -3.241  0.00  0.00    +0.030 C 
ATOM     27  C   LIG    1       -6.751   1.422  -2.642  0.00  0.00    +0.150 C 
ENDBRANCH  24  27
ENDBRANCH  23  24
ENDBRANCH  19  23
ENDBRANCH  17  20
ENDBRANCH  16  17
ENDBRANCH   1  16
TORSDOF 10
