REMARK  Name = ZINCvU0000000E5Z.0
REMARK                            x       y       z     vdW  Elec       q    Type
REMARK                         _______ _______ _______ _____ _____    ______ ____
ROOT
ATOM      1  O   LIG    1       -2.748   1.609   0.590  0.00  0.00    -0.510 OA
ATOM      2  C   LIG    1       -2.565   0.410   0.679  0.00  0.00    +0.550 C 
ATOM      3  N   LIG    1       -3.577  -0.446   0.438  0.00  0.00    -0.600 N 
ATOM      4  C   LIG    1       -3.407  -1.893   0.645  0.00  0.00    +0.280 C 
ATOM      5  C   LIG    1       -4.565  -2.393   1.522  0.00  0.00    +0.180 C 
ATOM      6  N   LIG    1       -5.841  -2.000   0.910  0.00  0.00    -0.530 NA
ATOM      7  C   LIG    1       -5.977  -0.538   0.854  0.00  0.00    +0.170 C 
ATOM      8  C   LIG    1       -4.878   0.039  -0.044  0.00  0.00    +0.300 C 
ENDROOT
BRANCH   2   9
ATOM      9  C   LIG    1       -1.231  -0.107   1.052  0.00  0.00    -0.080 A 
ATOM     10  C   LIG    1       -0.592  -1.046   0.241  0.00  0.00    +0.050 A 
ATOM     11  C   LIG    1        0.653  -1.526   0.595  0.00  0.00    +0.050 A 
ATOM     12  C   LIG    1        1.267  -1.077   1.750  0.00  0.00    +0.040 A 
ATOM     13  C   LIG    1        0.642  -0.141   2.555  0.00  0.00    +0.080 A 
ATOM     14  C   LIG    1       -0.605   0.341   2.216  0.00  0.00    -0.140 A 
BRANCH  14  15
ATOM     15  C   LIG    1       -1.288   1.355   3.098  0.00  0.00    +0.500 C 
ATOM     16  F   LIG    1       -2.506   0.837   3.548  0.00  0.00    -0.180 F 
ATOM     17  F   LIG    1       -1.520   2.526   2.368  0.00  0.00    -0.150 F 
ATOM     18  F   LIG    1       -0.470   1.645   4.195  0.00  0.00    -0.180 F 
ENDBRANCH  14  15
ENDBRANCH   2   9
BRANCH   6  19
ATOM     19  C   LIG    1       -6.975  -2.607   1.621  0.00  0.00    +0.230 C 
BRANCH  19  20
ATOM     20  C   LIG    1       -6.784  -4.100   1.687  0.00  0.00    -0.080 A 
ATOM     21  C   LIG    1       -6.342  -4.791   0.575  0.00  0.00    +0.040 A 
ATOM     22  C   LIG    1       -6.163  -6.160   0.637  0.00  0.00    +0.000 A 
ATOM     23  C   LIG    1       -6.435  -6.840   1.810  0.00  0.00    +0.000 A 
ATOM     24  C   LIG    1       -6.883  -6.150   2.921  0.00  0.00    +0.000 A 
ATOM     25  C   LIG    1       -7.057  -4.780   2.859  0.00  0.00    +0.010 A 
ENDBRANCH  19  20
BRANCH  19  26
ATOM     26  C   LIG    1       -8.253  -2.296   0.885  0.00  0.00    -0.080 A 
ATOM     27  C   LIG    1       -8.259  -2.237  -0.496  0.00  0.00    +0.040 A 
ATOM     28  C   LIG    1       -9.432  -1.956  -1.171  0.00  0.00    +0.000 A 
ATOM     29  C   LIG    1      -10.598  -1.725  -0.464  0.00  0.00    +0.000 A 
ATOM     30  C   LIG    1      -10.591  -1.779   0.917  0.00  0.00    +0.000 A 
ATOM     31  C   LIG    1       -9.418  -2.064   1.592  0.00  0.00    +0.010 A 
ENDBRANCH  19  26
ENDBRANCH   6  19
TORSDOF 5
