REMARK  Name = ZINCc70000003Y5N.0
REMARK                            x       y       z     vdW  Elec       q    Type
REMARK                         _______ _______ _______ _____ _____    ______ ____
ROOT
ATOM      1  C   LIG    1       -3.649   3.001   0.036  0.00  0.00    +0.070 A 
ATOM      2  C   LIG    1       -3.631   1.614   0.028  0.00  0.00    +0.030 A 
ATOM      3  C   LIG    1       -2.426   0.939   0.019  0.00  0.00    -0.030 A 
ATOM      4  C   LIG    1       -1.232   1.649   0.017  0.00  0.00    +0.180 A 
ATOM      5  C   LIG    1       -1.252   3.037   0.030  0.00  0.00    -0.040 A 
ATOM      6  C   LIG    1       -2.457   3.711   0.034  0.00  0.00    -0.030 A 
ENDROOT
BRANCH   4   7
ATOM      7  N   LIG    1       -0.011   0.966   0.007  0.00  0.00    -0.880 N 
ATOM      8  H   LIG    1        0.822   1.462   0.002  0.00  0.00    +0.400 HD
ATOM      9  H   LIG    1        0.002  -0.004   0.002  0.00  0.00    +0.400 HD
ENDBRANCH   4   7
BRANCH   1  10
ATOM     10  O   LIG    1       -4.836   3.665   0.045  0.00  0.00    -0.290 OA
BRANCH  10  11
ATOM     11  C   LIG    1       -4.780   5.093   0.052  0.00  0.00    +0.220 C 
BRANCH  11  15
ATOM     12  N   LIG    1       -6.375   6.983   0.070  0.00  0.00    -0.850 N 
ATOM     13  H   LIG    1       -7.277   7.342   0.076  0.00  0.00    +0.410 HD
ATOM     14  H   LIG    1       -5.614   7.584   0.070  0.00  0.00    +0.400 HD
ATOM     15  C   LIG    1       -6.181   5.649   0.062  0.00  0.00    +0.520 C 
ATOM     16  O   LIG    1       -7.132   4.898   0.062  0.00  0.00    -0.520 OA
ENDBRANCH  11  15
ENDBRANCH  10  11
ENDBRANCH   1  10
TORSDOF 4
