REMARK  Name = ZINCpk000000o5Dn.0
REMARK                            x       y       z     vdW  Elec       q    Type
REMARK                         _______ _______ _______ _____ _____    ______ ____
ROOT
ATOM      1  C   LIG    1        4.885   1.439  -0.037  0.00  0.00    +0.220 A 
ATOM      2  C   LIG    1        5.160   0.077  -0.041  0.00  0.00    -0.080 A 
ATOM      3  C   LIG    1        6.469  -0.362  -0.061  0.00  0.00    +0.060 A 
ATOM      4  C   LIG    1        7.506   0.553  -0.066  0.00  0.00    -0.130 A 
ATOM      5  C   LIG    1        7.237   1.909  -0.056  0.00  0.00    +0.070 A 
ATOM      6  C   LIG    1        5.930   2.355  -0.042  0.00  0.00    -0.070 A 
ENDROOT
BRANCH   1   7
ATOM      7  N   LIG    1        3.562   1.887  -0.022  0.00  0.00    -0.740 N 
ATOM      8  H   LIG    1        3.372   2.838  -0.015  0.00  0.00    +0.410 HD
BRANCH   7   9
ATOM      9  C   LIG    1        2.462   0.920  -0.017  0.00  0.00    +0.290 C 
BRANCH   9  12
ATOM     10  N   LIG    1       -0.011   0.966   0.007  0.00  0.00    -0.720 N 
ATOM     11  H   LIG    1        0.002  -0.004   0.002  0.00  0.00    +0.400 HD
ATOM     12  C   LIG    1        1.147   1.655   0.000  0.00  0.00    +0.510 C 
ATOM     13  O   LIG    1        1.130   2.868   0.007  0.00  0.00    -0.530 OA
BRANCH  10  18
ATOM     14  C   LIG    1       -3.008  -1.426   2.491  0.00  0.00    +0.020 C 
ATOM     15  C   LIG    1       -2.881  -0.141   1.670  0.00  0.00    -0.020 C 
ATOM     16  C   LIG    1       -2.504  -0.492   0.229  0.00  0.00    +0.010 C 
ATOM     17  C   LIG    1       -2.376   0.792  -0.592  0.00  0.00    +0.020 C 
ATOM     18  C   LIG    1       -1.290   1.681   0.017  0.00  0.00    +0.240 C 
ATOM     19  C   LIG    1       -1.667   2.032   1.458  0.00  0.00    +0.010 C 
ATOM     20  C   LIG    1       -1.794   0.747   2.279  0.00  0.00    +0.010 C 
ENDBRANCH  10  18
ENDBRANCH   9  12
ENDBRANCH   7   9
ENDBRANCH   1   7
BRANCH   4  21
ATOM     21  C   LIG    1        8.934   0.070  -0.081  0.00  0.00    +0.110 C 
BRANCH  21  22
ATOM     22  C   LIG    1        9.422  -0.099   1.335  0.00  0.00    +0.510 C 
ATOM     23  N   LIG    1       10.680  -0.524   1.568  0.00  0.00    -0.730 N 
ATOM     24  H   LIG    1       11.270  -0.723   0.824  0.00  0.00    +0.400 HD
ATOM     25  O   LIG    1        8.684   0.149   2.264  0.00  0.00    -0.530 OA
BRANCH  23  26
ATOM     26  C   LIG    1       11.154  -0.688   2.944  0.00  0.00    +0.270 C 
BRANCH  26  27
ATOM     27  C   LIG    1       12.604  -1.179   2.929  0.00  0.00    +0.170 C 
BRANCH  27  28
ATOM     28  O   LIG    1       13.441  -0.172   2.357  0.00  0.00    -0.570 OA
ATOM     29  H   LIG    1       14.376  -0.415   2.315  0.00  0.00    +0.380 HD
ENDBRANCH  27  28
ENDBRANCH  26  27
ENDBRANCH  23  26
ENDBRANCH  21  22
ENDBRANCH   4  21
TORSDOF 9
