REMARK  Name = ZINCpe000000YZrO.0
REMARK                            x       y       z     vdW  Elec       q    Type
REMARK                         _______ _______ _______ _____ _____    ______ ____
ROOT
ATOM      1  C   LIG    1       -1.292   1.520   0.104  0.00  0.00    +0.200 A 
ATOM      2  C   LIG    1       -1.460   2.897   0.055  0.00  0.00    +0.000 A 
ATOM      3  C   LIG    1       -2.727   3.441   0.146  0.00  0.00    +0.140 A 
ATOM      4  C   LIG    1       -3.826   2.615   0.295  0.00  0.00    -0.690 A 
ATOM      5  C   LIG    1       -3.662   1.243   0.349  0.00  0.00    +0.150 A 
ATOM      6  C   LIG    1       -2.398   0.693   0.255  0.00  0.00    -0.020 A 
ENDROOT
BRANCH   1   9
ATOM      7  O   LIG    1        0.631   2.523  -1.436  0.00  0.00    -0.480 OA
ATOM      8  C   LIG    1        0.924   1.561  -0.759  0.00  0.00    +0.500 C 
ATOM      9  N   LIG    1       -0.011   0.966   0.007  0.00  0.00    -0.670 N 
ATOM     10  H   LIG    1        0.203   0.151   0.488  0.00  0.00    +0.420 HD
BRANCH   8  11
ATOM     11  C   LIG    1        2.335   1.031  -0.773  0.00  0.00    +0.390 C 
BRANCH  11  12
ATOM     12  N   LIG    1        3.153   1.844  -1.677  0.00  0.00    -0.310 N 
ATOM     13  C   LIG    1        4.302   2.473  -1.367  0.00  0.00    +0.400 A 
ATOM     14  N   LIG    1        4.703   3.082  -2.457  0.00  0.00    -0.300 NA
ATOM     15  N   LIG    1        3.845   2.840  -3.387  0.00  0.00    -0.070 NA
ATOM     16  N   LIG    1        2.909   2.088  -2.920  0.00  0.00    -0.070 NA
ENDBRANCH  11  12
ENDBRANCH   8  11
ENDBRANCH   1   9
BRANCH   4  17
ATOM     17  S   LIG    1       -5.439   3.313   0.418  0.00  0.00    +2.690 S 
ATOM     18  O   LIG    1       -6.347   2.298   0.012  0.00  0.00    -0.950 OA
ATOM     19  O   LIG    1       -5.372   4.590  -0.201  0.00  0.00    -0.950 OA
BRANCH  17  20
ATOM     20  N   LIG    1       -5.734   3.587   2.025  0.00  0.00    -0.990 NA
ATOM     21  C   LIG    1       -6.357   2.541   2.804  0.00  0.00    +0.280 C 
ATOM     22  C   LIG    1       -7.892   2.681   2.739  0.00  0.00    +0.010 C 
ATOM     23  C   LIG    1       -8.331   3.854   3.511  0.00  0.00    +0.000 C 
ATOM     24  C   LIG    1       -7.806   5.186   2.984  0.00  0.00    +0.010 C 
ATOM     25  C   LIG    1       -6.432   5.442   3.553  0.00  0.00    +0.020 C 
ATOM     26  C   LIG    1       -5.354   4.893   2.601  0.00  0.00    +0.270 C 
ENDBRANCH  17  20
ENDBRANCH   4  17
TORSDOF 5
