REMARK  Name = ZINCvU0000000FRl.0
REMARK                            x       y       z     vdW  Elec       q    Type
REMARK                         _______ _______ _______ _____ _____    ______ ____
ROOT
ATOM      1  N   LIG    1        4.365   9.732  -0.275  0.00  0.00    -0.670 N 
ATOM      2  H   LIG    1        3.496  10.141  -0.137  0.00  0.00    +0.410 HD
ATOM      3  C   LIG    1        5.452  10.506  -0.464  0.00  0.00    +0.560 C 
ATOM      4  O   LIG    1        6.552   9.997  -0.554  0.00  0.00    -0.490 OA
ENDROOT
BRANCH   1   9
ATOM      5  C   LIG    1        3.600   6.171  -0.803  0.00  0.00    +0.160 A 
ATOM      6  C   LIG    1        4.744   5.579  -0.282  0.00  0.00    -0.030 A 
ATOM      7  C   LIG    1        5.754   6.366   0.238  0.00  0.00    +0.050 A 
ATOM      8  C   LIG    1        5.630   7.741   0.242  0.00  0.00    +0.010 A 
ATOM      9  C   LIG    1        4.489   8.339  -0.278  0.00  0.00    +0.170 A 
ATOM     10  C   LIG    1        3.475   7.553  -0.806  0.00  0.00    +0.000 A 
BRANCH   5  13
ATOM     11  O   LIG    1        1.035   6.883  -0.806  0.00  0.00    -0.510 OA
ATOM     12  C   LIG    1        1.310   5.829  -1.346  0.00  0.00    +0.570 C 
ATOM     13  N   LIG    1        2.578   5.374  -1.330  0.00  0.00    -0.660 N 
ATOM     14  H   LIG    1        2.783   4.494  -1.683  0.00  0.00    +0.410 HD
BRANCH  12  15
ATOM     15  C   LIG    1        0.253   5.047  -2.021  0.00  0.00    -0.190 A 
ATOM     16  C   LIG    1       -1.069   5.508  -2.045  0.00  0.00    +0.140 A 
ATOM     17  C   LIG    1       -2.021   4.738  -2.690  0.00  0.00    -0.030 A 
ATOM     18  C   LIG    1       -1.641   3.546  -3.279  0.00  0.00    +0.300 A 
ATOM     19  N   LIG    1       -0.387   3.139  -3.246  0.00  0.00    -0.490 NA
ATOM     20  C   LIG    1        0.555   3.835  -2.645  0.00  0.00    +0.300 A 
ENDBRANCH  12  15
ENDBRANCH   5  13
ENDBRANCH   1   9
BRANCH   3  21
ATOM     21  C   LIG    1        5.306  11.971  -0.562  0.00  0.00    -0.150 A 
ATOM     22  C   LIG    1        4.044  12.560  -0.460  0.00  0.00    +0.060 A 
ATOM     23  C   LIG    1        3.915  13.929  -0.552  0.00  0.00    +0.020 A 
ATOM     24  C   LIG    1        5.032  14.725  -0.747  0.00  0.00    +0.070 A 
ATOM     25  C   LIG    1        6.286  14.155  -0.851  0.00  0.00    +0.000 A 
ATOM     26  C   LIG    1        6.435  12.780  -0.754  0.00  0.00    +0.150 A 
BRANCH  26  27
ATOM     27  O   LIG    1        7.667  12.220  -0.849  0.00  0.00    -0.250 OA
BRANCH  27  28
ATOM     28  C   LIG    1        8.100  11.838  -2.079  0.00  0.00    +0.150 A 
ATOM     29  C   LIG    1        7.334  12.114  -3.203  0.00  0.00    -0.080 A 
ATOM     30  C   LIG    1        7.779  11.729  -4.452  0.00  0.00    +0.040 A 
ATOM     31  C   LIG    1        8.982  11.061  -4.583  0.00  0.00    -0.040 A 
ATOM     32  C   LIG    1        9.745  10.779  -3.465  0.00  0.00    +0.050 A 
ATOM     33  C   LIG    1        9.307  11.166  -2.214  0.00  0.00    -0.010 A 
ENDBRANCH  27  28
ENDBRANCH  26  27
ENDBRANCH   3  21
TORSDOF 6
