REMARK  Name = ZINCb70000002Cvv.0
REMARK                            x       y       z     vdW  Elec       q    Type
REMARK                         _______ _______ _______ _____ _____    ______ ____
ROOT
ATOM      1  C   LIG    1       -0.673   5.511   0.035  0.00  0.00    -0.210 A 
ATOM      2  C   LIG    1       -1.348   4.339   0.036  0.00  0.00    +0.350 A 
ATOM      3  N   LIG    1       -0.678   3.156   0.024  0.00  0.00    -0.300 N 
ATOM      4  N   LIG    1       -1.095   1.817   0.017  0.00  0.00    -0.330 NA
ATOM      5  C   LIG    1       -0.013   1.076   0.008  0.00  0.00    +0.500 A 
ATOM      6  N   LIG    1        1.060   1.854   0.002  0.00  0.00    -0.520 NA
ATOM      7  C   LIG    1        0.688   3.129   0.011  0.00  0.00    +0.290 A 
ATOM      8  C   LIG    1        1.409   4.337   0.010  0.00  0.00    +0.090 A 
ATOM      9  C   LIG    1        0.730   5.517   0.021  0.00  0.00    +0.090 A 
ENDROOT
BRANCH   1  10
ATOM     10  C   LIG    1       -1.430   6.813   0.048  0.00  0.00    +0.370 C 
BRANCH  10  11
ATOM     11  N   LIG    1       -1.560   7.291   1.431  0.00  0.00    -0.640 N 
ATOM     12  H   LIG    1       -0.641   7.432   1.825  0.00  0.00    +0.440 HD
ATOM     13  H   LIG    1       -2.059   6.606   1.978  0.00  0.00    +0.440 HD
ATOM     14  H   LIG    1       -2.067   8.163   1.439  0.00  0.00    +0.440 HD
ENDBRANCH  10  11
ENDBRANCH   1  10
TORSDOF 2
