REMARK  Name = ZINCrD000000fzBj.0
REMARK                            x       y       z     vdW  Elec       q    Type
REMARK                         _______ _______ _______ _____ _____    ______ ____
ROOT
ATOM      1  C   LIG    1       -1.846   0.835   1.766  0.00  0.00    +0.200 C 
ATOM      2  C   LIG    1       -2.459   1.374   3.061  0.00  0.00    +0.070 C 
ATOM      3  C   LIG    1       -3.202   1.540   1.735  0.00  0.00    -0.130 C 
ATOM      4  C   LIG    1       -4.447   0.679   1.505  0.00  0.00    +0.060 C 
ATOM      5  C   LIG    1       -5.675   1.438   2.023  0.00  0.00    +0.270 C 
ATOM      6  N   LIG    1       -5.676   2.787   1.443  0.00  0.00    -0.600 N 
ATOM      7  C   LIG    1       -4.512   3.658   1.650  0.00  0.00    +0.280 C 
ATOM      8  C   LIG    1       -6.734   3.221   0.729  0.00  0.00    +0.600 C 
ATOM      9  O   LIG    1       -6.728   4.340   0.252  0.00  0.00    -0.520 OA
ATOM     10  C   LIG    1       -3.261   2.944   1.124  0.00  0.00    +0.060 C 
ENDROOT
BRANCH   8  11
ATOM     11  C   LIG    1       -7.898   2.340   0.527  0.00  0.00    -0.250 A 
ATOM     12  C   LIG    1       -9.019   2.209   1.310  0.00  0.00    +0.020 A 
ATOM     13  O   LIG    1       -9.788   1.294   0.716  0.00  0.00    +0.100 OA
ATOM     14  N   LIG    1       -9.301   0.849  -0.295  0.00  0.00    -0.350 NA
ATOM     15  C   LIG    1       -9.323   2.953   2.585  0.00  0.00    +0.200 C 
ATOM     16  C   LIG    1       -8.143   1.379  -0.559  0.00  0.00    +0.050 A 
ATOM     17  C   LIG    1       -7.244   1.074  -1.730  0.00  0.00    +0.160 C 
ENDBRANCH   8  11
BRANCH   1  20
ATOM     18  C   LIG    1        0.833   3.498   1.157  0.00  0.00    +0.090 C 
ATOM     19  C   LIG    1       -0.262   2.686   1.801  0.00  0.00    +0.520 C 
ATOM     20  N   LIG    1       -0.697   1.555   1.212  0.00  0.00    -0.580 N 
ATOM     21  O   LIG    1       -0.751   3.051   2.849  0.00  0.00    -0.530 OA
BRANCH  20  22
ATOM     22  C   LIG    1       -0.020   1.044   0.017  0.00  0.00    +0.360 C 
BRANCH  22  23
ATOM     23  C   LIG    1       -0.734   1.539  -1.215  0.00  0.00    -0.120 A 
ATOM     24  C   LIG    1       -0.414   2.685  -1.817  0.00  0.00    -0.040 A 
ATOM     25  S   LIG    1       -1.457   2.929  -3.212  0.00  0.00    +0.110 S 
ATOM     26  C   LIG    1       -2.293   1.416  -2.889  0.00  0.00    -0.050 A 
ATOM     27  C   LIG    1       -1.767   0.836  -1.810  0.00  0.00    +0.020 A 
ENDBRANCH  22  23
ENDBRANCH  20  22
ENDBRANCH   1  20
TORSDOF 4
