REMARK  Name = ZINCrH000004qe7k.0
REMARK                            x       y       z     vdW  Elec       q    Type
REMARK                         _______ _______ _______ _____ _____    ______ ____
ROOT
ATOM      1  C   LIG    1        2.563   0.396   2.570  0.00  0.00    +0.170 C 
ATOM      2  C   LIG    1        1.947   0.724   1.235  0.00  0.00    +0.180 A 
ATOM      3  C   LIG    1        1.667  -0.162   0.254  0.00  0.00    -0.070 A 
ATOM      4  C   LIG    1        1.097   0.551  -0.832  0.00  0.00    +0.540 A 
ATOM      5  N   LIG    1        1.045   1.853  -0.485  0.00  0.00    -0.370 N 
ATOM      6  O   LIG    1        0.722   0.073  -1.887  0.00  0.00    -0.510 OA
ATOM      7  N   LIG    1        1.575   1.973   0.807  0.00  0.00    -0.390 N 
ATOM      8  C   LIG    1        1.708   3.217   1.569  0.00  0.00    +0.370 C 
ENDROOT
BRANCH   5   9
ATOM      9  C   LIG    1        0.556   2.898  -1.276  0.00  0.00    +0.150 A 
ATOM     10  C   LIG    1       -0.221   3.897  -0.705  0.00  0.00    -0.010 A 
ATOM     11  C   LIG    1       -0.697   4.931  -1.487  0.00  0.00    +0.030 A 
ATOM     12  C   LIG    1       -0.411   4.965  -2.840  0.00  0.00    +0.010 A 
ATOM     13  C   LIG    1        0.358   3.968  -3.412  0.00  0.00    +0.030 A 
ATOM     14  C   LIG    1        0.843   2.935  -2.634  0.00  0.00    +0.020 A 
ENDBRANCH   5   9
BRANCH   3  15
ATOM     15  N   LIG    1        1.900  -1.552   0.302  0.00  0.00    -0.650 N 
ATOM     16  H   LIG    1        2.801  -1.889   0.429  0.00  0.00    +0.400 HD
ATOM     17  C   LIG    1        0.871  -2.413   0.172  0.00  0.00    +0.710 C 
ATOM     18  N   LIG    1        1.076  -3.736   0.324  0.00  0.00    -0.620 N 
ATOM     19  C   LIG    1        2.417  -4.239   0.631  0.00  0.00    +0.280 C 
ATOM     20  O   LIG    1       -0.242  -1.996  -0.084  0.00  0.00    -0.560 OA
BRANCH  18  21
ATOM     21  C   LIG    1       -0.042  -4.672   0.182  0.00  0.00    +0.300 C 
ATOM     22  C   LIG    1       -0.144  -5.539   1.438  0.00  0.00    +0.030 C 
BRANCH  21  23
ATOM     23  C   LIG    1        0.189  -5.553  -1.019  0.00  0.00    -0.100 A 
ATOM     24  C   LIG    1        0.883  -5.065  -2.111  0.00  0.00    +0.020 A 
ATOM     25  C   LIG    1        1.098  -5.875  -3.210  0.00  0.00    +0.000 A 
ATOM     26  C   LIG    1        0.613  -7.169  -3.222  0.00  0.00    +0.000 A 
ATOM     27  C   LIG    1       -0.085  -7.655  -2.132  0.00  0.00    +0.000 A 
ATOM     28  C   LIG    1       -0.297  -6.847  -1.031  0.00  0.00    +0.020 A 
ENDBRANCH  21  23
ENDBRANCH  18  21
ENDBRANCH   3  15
TORSDOF 4
