REMARK  Name = ZINCvU00000008iI.0
REMARK                            x       y       z     vdW  Elec       q    Type
REMARK                         _______ _______ _______ _____ _____    ______ ____
ROOT
ATOM      1  C   LIG    1       -6.817   4.128  -0.494  0.00  0.00    +0.150 C 
ATOM      2  C   LIG    1       -5.328   4.072  -0.266  0.00  0.00    +0.220 C 
ATOM      3  C   LIG    1       -4.625   5.214  -0.296  0.00  0.00    -0.300 C 
ATOM      4  C   LIG    1       -3.138   5.270  -0.070  0.00  0.00    +0.400 C 
ATOM      5  N   LIG    1       -2.588   3.917  -0.115  0.00  0.00    -0.380 N 
ATOM      6  N   LIG    1       -1.260   3.498  -0.181  0.00  0.00    -0.270 NA
ATOM      7  C   LIG    1       -1.280   2.178  -0.191  0.00  0.00    +0.320 A 
ATOM      8  N   LIG    1       -2.559   1.762  -0.141  0.00  0.00    -0.520 NA
ATOM      9  C   LIG    1       -3.352   2.795  -0.092  0.00  0.00    +0.500 A 
ATOM     10  N   LIG    1       -4.738   2.854  -0.035  0.00  0.00    -0.610 N 
ATOM     11  H   LIG    1       -5.268   2.066   0.161  0.00  0.00    +0.440 HD
ENDROOT
BRANCH   4  12
ATOM     12  C   LIG    1       -2.858   5.882   1.278  0.00  0.00    -0.100 A 
ATOM     13  C   LIG    1       -2.111   7.041   1.369  0.00  0.00    +0.060 A 
ATOM     14  C   LIG    1       -1.853   7.603   2.605  0.00  0.00    +0.030 A 
ATOM     15  C   LIG    1       -2.343   7.006   3.752  0.00  0.00    +0.060 A 
ATOM     16  C   LIG    1       -3.091   5.846   3.661  0.00  0.00    -0.090 A 
ATOM     17 BR   LIG    1       -3.761   5.029   5.229  0.00  0.00    -0.040 Br
ATOM     18  C   LIG    1       -3.353   5.287   2.424  0.00  0.00    +0.050 A 
ENDBRANCH   4  12
BRANCH   7  19
ATOM     19  C   LIG    1       -0.092   1.301  -0.253  0.00  0.00    +0.050 A 
ATOM     20  C   LIG    1       -0.104  -0.058  -0.264  0.00  0.00    +0.020 A 
ATOM     21  C   LIG    1        1.241  -0.475  -0.336  0.00  0.00    -0.060 A 
ATOM     22  C   LIG    1        1.998   0.638  -0.365  0.00  0.00    +0.200 A 
ATOM     23  O   LIG    1        1.190   1.710  -0.316  0.00  0.00    -0.160 OA
ENDBRANCH   7  19
BRANCH   3  24
ATOM     24  C   LIG    1       -5.314   6.423  -0.553  0.00  0.00    +0.590 C 
ATOM     25  N   LIG    1       -6.072   6.984   0.409  0.00  0.00    -0.670 N 
ATOM     26  H   LIG    1       -6.084   6.603   1.301  0.00  0.00    +0.410 HD
ATOM     27  O   LIG    1       -5.221   6.956  -1.644  0.00  0.00    -0.500 OA
BRANCH  25  28
ATOM     28  C   LIG    1       -6.841   8.116   0.122  0.00  0.00    +0.140 A 
ATOM     29  C   LIG    1       -7.032   9.092   1.091  0.00  0.00    -0.020 A 
ATOM     30  C   LIG    1       -7.788  10.212   0.802  0.00  0.00    +0.030 A 
ATOM     31  C   LIG    1       -8.364  10.355  -0.447  0.00  0.00    -0.010 A 
ATOM     32  C   LIG    1       -8.181   9.382  -1.412  0.00  0.00    +0.030 A 
ATOM     33  C   LIG    1       -7.421   8.264  -1.132  0.00  0.00    +0.010 A 
ENDBRANCH  25  28
ENDBRANCH   3  24
TORSDOF 4
