REMARK  Name = ZINCpe000000UIgz.0
REMARK                            x       y       z     vdW  Elec       q    Type
REMARK                         _______ _______ _______ _____ _____    ______ ____
ROOT
ATOM      1  C   LIG    1       -0.789   0.590   2.349  0.00  0.00    +0.530 C 
ATOM      2  N   LIG    1        0.374   0.191   2.900  0.00  0.00    -0.610 N 
ATOM      3  C   LIG    1        1.665   0.728   2.436  0.00  0.00    +0.280 C 
ATOM      4  C   LIG    1        2.315   1.466   3.615  0.00  0.00    +0.060 C 
ATOM      5  C   LIG    1        2.225   0.639   4.863  0.00  0.00    -0.010 C 
ATOM      6  C   LIG    1        1.384  -0.352   5.034  0.00  0.00    -0.100 C 
ATOM      7  C   LIG    1        0.407  -0.801   3.984  0.00  0.00    +0.340 C 
ATOM      8  O   LIG    1       -1.838   0.129   2.747  0.00  0.00    -0.530 OA
ENDROOT
BRANCH   1  11
ATOM      9  N   LIG    1       -2.016   2.009  -0.784  0.00  0.00    -0.610 N 
ATOM     10  C   LIG    1       -2.209   1.800   0.655  0.00  0.00    +0.300 C 
ATOM     11  C   LIG    1       -0.787   1.610   1.239  0.00  0.00    +0.000 C 
ATOM     12  C   LIG    1       -0.013   1.086   0.008  0.00  0.00    +0.070 C 
ATOM     13  C   LIG    1       -0.793   1.611  -1.176  0.00  0.00    +0.520 C 
ATOM     14  O   LIG    1       -0.377   1.665  -2.314  0.00  0.00    -0.520 OA
BRANCH   9  18
ATOM     15  C   LIG    1       -2.392   3.458  -4.809  0.00  0.00    +0.170 C 
ATOM     16  N   LIG    1       -3.222   3.276  -3.611  0.00  0.00    -0.480 NA
ATOM     17  C   LIG    1       -2.560   3.845  -2.416  0.00  0.00    +0.160 C 
ATOM     18  C   LIG    1       -3.027   2.577  -1.680  0.00  0.00    +0.250 C 
ATOM     19  C   LIG    1       -3.076   1.907  -3.064  0.00  0.00    +0.170 C 
ENDBRANCH   9  18
ENDBRANCH   1  11
BRANCH   6  20
ATOM     20  C   LIG    1        1.399  -1.067   6.328  0.00  0.00    -0.110 A 
ATOM     21  C   LIG    1        2.519  -1.808   6.719  0.00  0.00    +0.080 A 
ATOM     22  C   LIG    1        2.484  -2.454   7.943  0.00  0.00    -0.030 A 
ATOM     23  C   LIG    1        1.349  -2.357   8.727  0.00  0.00    +0.260 A 
ATOM     24  N   LIG    1        0.305  -1.655   8.330  0.00  0.00    -0.480 NA
ATOM     25  C   LIG    1        0.293  -1.019   7.178  0.00  0.00    +0.270 A 
ENDBRANCH   6  20
TORSDOF 3
