REMARK  Name = ZINCvU0000000IV6.0
REMARK                            x       y       z     vdW  Elec       q    Type
REMARK                         _______ _______ _______ _____ _____    ______ ____
ROOT
ATOM      1  N   LIG    1       -2.428   1.037   0.019  0.00  0.00    -0.560 N 
ATOM      2  C   LIG    1       -2.413  -0.306  -0.090  0.00  0.00    +0.540 C 
ATOM      3  O   LIG    1       -1.357  -0.902  -0.098  0.00  0.00    -0.500 OA
ENDROOT
BRANCH   1   7
ATOM      4  C   LIG    1        1.159   3.164   0.027  0.00  0.00    +0.130 A 
ATOM      5  C   LIG    1        0.377   3.119   1.172  0.00  0.00    +0.000 A 
ATOM      6  C   LIG    1       -0.813   2.418   1.169  0.00  0.00    +0.050 A 
ATOM      7  C   LIG    1       -1.224   1.754   0.021  0.00  0.00    +0.100 A 
ATOM      8  C   LIG    1       -0.443   1.802  -1.126  0.00  0.00    +0.060 A 
ATOM      9  C   LIG    1        0.746   2.504  -1.121  0.00  0.00    -0.070 A 
BRANCH   4  11
ATOM     10  C   LIG    1        3.085   3.858  -1.183  0.00  0.00    +0.250 C 
ATOM     11  O   LIG    1        2.330   3.854   0.030  0.00  0.00    -0.320 OA
ENDBRANCH   4  11
ENDBRANCH   1   7
BRANCH   2  12
ATOM     12  C   LIG    1       -3.709  -1.067  -0.201  0.00  0.00    +0.080 C 
BRANCH  12  13
ATOM     13  S   LIG    1       -3.358  -2.842  -0.333  0.00  0.00    +0.110 S 
BRANCH  13  14
ATOM     14  C   LIG    1       -4.964  -3.556  -0.452  0.00  0.00    +0.200 A 
ATOM     15  N   LIG    1       -6.097  -2.892  -0.435  0.00  0.00    -0.320 NA
ATOM     16  N   LIG    1       -7.128  -3.838  -0.557  0.00  0.00    -0.470 N 
ATOM     17  H   LIG    1       -8.081  -3.659  -0.578  0.00  0.00    +0.440 HD
ATOM     18  C   LIG    1       -6.529  -5.047  -0.633  0.00  0.00    +0.350 A 
ATOM     19  N   LIG    1       -5.226  -4.860  -0.568  0.00  0.00    -0.500 NA
BRANCH  18  20
ATOM     20  C   LIG    1       -7.215  -6.351  -0.766  0.00  0.00    -0.050 A 
ATOM     21  C   LIG    1       -8.608  -6.408  -0.817  0.00  0.00    +0.030 A 
ATOM     22  C   LIG    1       -9.242  -7.627  -0.946  0.00  0.00    +0.010 A 
ATOM     23  C   LIG    1       -8.499  -8.792  -1.013  0.00  0.00    -0.060 A 
ATOM     24  C   LIG    1       -7.118  -8.743  -0.957  0.00  0.00    +0.010 A 
ATOM     25  C   LIG    1       -9.198 -10.120  -1.147  0.00  0.00    +0.100 C 
ATOM     26  C   LIG    1       -6.472  -7.530  -0.834  0.00  0.00    +0.080 A 
ENDBRANCH  18  20
ENDBRANCH  13  14
ENDBRANCH  12  13
ENDBRANCH   2  12
BRANCH   1  27
ATOM     27  C   LIG    1       -3.704   1.748   0.136  0.00  0.00    +0.380 C 
BRANCH  27  28
ATOM     28  C   LIG    1       -4.207   2.107  -1.239  0.00  0.00    -0.210 A 
ATOM     29  C   LIG    1       -4.997   1.340  -1.992  0.00  0.00    +0.020 A 
ATOM     30  C   LIG    1       -5.331   1.879  -3.223  0.00  0.00    +0.000 A 
ATOM     31  C   LIG    1       -4.812   3.083  -3.469  0.00  0.00    -0.040 A 
ATOM     32  S   LIG    1       -3.847   3.602  -2.093  0.00  0.00    +0.120 S 
ENDBRANCH  27  28
ENDBRANCH   1  27
TORSDOF 8
