REMARK  Name = ZINCpk00000y6zfs.0
REMARK                            x       y       z     vdW  Elec       q    Type
REMARK                         _______ _______ _______ _____ _____    ______ ____
ROOT
ATOM      1  C   LIG    1        0.183  -4.095  -1.500  0.00  0.00    +0.100 C 
ATOM      2  C   LIG    1       -0.047  -2.615  -1.342  0.00  0.00    +0.510 C 
ATOM      3  N   LIG    1       -0.198  -1.837  -2.432  0.00  0.00    -0.610 N 
ATOM      4  C   LIG    1       -0.143  -2.404  -3.791  0.00  0.00    +0.250 C 
ATOM      5  C   LIG    1        0.834  -1.575  -4.632  0.00  0.00    +0.220 C 
ATOM      6  O   LIG    1        0.504  -0.186  -4.528  0.00  0.00    -0.370 OA
ATOM      7  C   LIG    1        0.601   0.326  -3.201  0.00  0.00    +0.140 C 
ATOM      8  C   LIG    1        0.325   1.828  -3.169  0.00  0.00    +0.050 C 
ATOM      9  C   LIG    1        0.504   2.334  -1.732  0.00  0.00    +0.270 C 
ATOM     10  N   LIG    1       -0.332   1.533  -0.829  0.00  0.00    -0.620 N 
ATOM     11  C   LIG    1       -0.225   0.066  -0.866  0.00  0.00    +0.330 C 
ATOM     12  C   LIG    1       -1.189   2.134   0.019  0.00  0.00    +0.600 C 
ATOM     13  O   LIG    1       -1.954   1.463   0.686  0.00  0.00    -0.530 OA
ATOM     14  C   LIG    1       -0.424  -0.390  -2.312  0.00  0.00    +0.190 C 
ATOM     15  O   LIG    1       -0.097  -2.123  -0.235  0.00  0.00    -0.530 OA
ENDROOT
BRANCH  12  16
ATOM     16  C   LIG    1       -1.201   3.603   0.139  0.00  0.00    -0.290 A 
ATOM     17  C   LIG    1       -0.097   4.433   0.151  0.00  0.00    +0.280 A 
ATOM     18  N   LIG    1       -0.544   5.693   0.274  0.00  0.00    -0.350 N 
ATOM     19  N   LIG    1       -1.941   5.664   0.341  0.00  0.00    -0.290 NA
ATOM     20  C   LIG    1       -2.343   4.426   0.256  0.00  0.00    +0.120 A 
ATOM     21  C   LIG    1       -3.775   3.956   0.281  0.00  0.00    +0.160 C 
BRANCH  18  22
ATOM     22  C   LIG    1        0.292   6.895   0.330  0.00  0.00    +0.180 C 
ATOM     23  C   LIG    1        1.468   6.655   1.278  0.00  0.00    +0.070 C 
ATOM     24  C   LIG    1       -0.542   8.072   0.841  0.00  0.00    +0.070 C 
ATOM     25  C   LIG    1        0.821   7.214  -1.070  0.00  0.00    +0.050 C 
ENDBRANCH  18  22
ENDBRANCH  12  16
TORSDOF 2
