REMARK  Name = ZINCqH0000050BGm.2
REMARK                            x       y       z     vdW  Elec       q    Type
REMARK                         _______ _______ _______ _____ _____    ______ ____
ROOT
ATOM      1  C   LIG    1       -4.020   0.431   1.565  0.00  0.00    +0.260 C 
ENDROOT
BRANCH   1   9
ATOM      2  C   LIG    1       -7.181   0.813   7.221  0.00  0.00    +0.150 C 
ATOM      3  C   LIG    1       -6.014  -0.025   6.768  0.00  0.00    +0.140 A 
ATOM      4  C   LIG    1       -5.442  -0.897   7.628  0.00  0.00    -0.020 A 
ATOM      5  C   LIG    1       -4.356  -1.682   7.218  0.00  0.00    +0.130 A 
ATOM      6  C   LIG    1       -3.881  -1.561   5.947  0.00  0.00    +0.020 A 
ATOM      7  C   LIG    1       -4.489  -0.648   5.065  0.00  0.00    +0.400 A 
ATOM      8  N   LIG    1       -4.025  -0.527   3.823  0.00  0.00    -0.540 NA
ATOM      9  C   LIG    1       -4.570   0.320   2.964  0.00  0.00    +0.220 A 
ATOM     10  C   LIG    1       -5.638   1.106   3.350  0.00  0.00    -0.160 A 
ATOM     11  C   LIG    1       -6.134   0.981   4.653  0.00  0.00    +0.510 A 
ATOM     12  O   LIG    1       -7.079   1.659   5.024  0.00  0.00    -0.530 OA
ATOM     13  N   LIG    1       -5.547   0.103   5.495  0.00  0.00    -0.430 N 
ENDBRANCH   1   9
BRANCH   1  14
ATOM     14  N   LIG    1       -2.649   0.956   1.618  0.00  0.00    -0.530 NA
ATOM     15  C   LIG    1       -1.745   0.002   2.273  0.00  0.00    +0.210 C 
BRANCH  14  16
ATOM     16  C   LIG    1       -2.166   1.302   0.275  0.00  0.00    +0.230 C 
BRANCH  16  17
ATOM     17  C   LIG    1       -0.867   2.058   0.387  0.00  0.00    -0.080 A 
ATOM     18  C   LIG    1       -0.888   3.415   0.490  0.00  0.00    +0.050 A 
ATOM     19  C   LIG    1        0.322   4.123   0.590  0.00  0.00    -0.050 A 
ATOM     20  C   LIG    1        0.340   5.524   0.692  0.00  0.00    +0.030 A 
ATOM     21  C   LIG    1        1.531   6.177   0.786  0.00  0.00    +0.000 A 
ATOM     22  C   LIG    1        2.735   5.476   0.783  0.00  0.00    +0.000 A 
ATOM     23  C   LIG    1        2.756   4.119   0.686  0.00  0.00    +0.020 A 
ATOM     24  C   LIG    1        1.547   3.410   0.587  0.00  0.00    -0.050 A 
ATOM     25  C   LIG    1        1.528   2.009   0.485  0.00  0.00    +0.020 A 
ATOM     26  C   LIG    1        0.338   1.356   0.390  0.00  0.00    +0.010 A 
ENDBRANCH  16  17
ENDBRANCH  14  16
ENDBRANCH   1  14
TORSDOF 4
