REMARK  Name = ZINCvU0000000BNP.0
REMARK                            x       y       z     vdW  Elec       q    Type
REMARK                         _______ _______ _______ _____ _____    ______ ____
ROOT
ATOM      1  C   LIG    1        0.357   3.060   6.119  0.00  0.00    +0.110 C 
ATOM      2  C   LIG    1       -1.023   3.707   5.982  0.00  0.00    +0.030 C 
ATOM      3  C   LIG    1       -1.858   2.912   4.974  0.00  0.00    +0.280 C 
ATOM      4  N   LIG    1       -1.109   2.815   3.713  0.00  0.00    -0.610 N 
ATOM      5  C   LIG    1        0.261   2.285   3.744  0.00  0.00    +0.280 C 
ATOM      6  C   LIG    1       -1.671   3.199   2.550  0.00  0.00    +0.530 C 
ATOM      7  O   LIG    1       -2.771   3.711   2.547  0.00  0.00    -0.530 OA
ATOM      8  F   LIG    1        0.210   1.733   6.537  0.00  0.00    -0.200 F 
ATOM      9  C   LIG    1        1.074   3.092   4.767  0.00  0.00    +0.020 C 
ENDROOT
BRANCH   1  10
ATOM     10  C   LIG    1        1.182   3.831   7.152  0.00  0.00    +0.280 C 
BRANCH  10  11
ATOM     11  N   LIG    1        2.503   3.211   7.282  0.00  0.00    -0.700 N 
ATOM     12  H   LIG    1        2.728   2.431   6.751  0.00  0.00    +0.410 HD
BRANCH  11  19
ATOM     13  C   LIG    1        4.691   3.154   8.303  0.00  0.00    -0.230 A 
ATOM     14  C   LIG    1        5.584   3.722   9.193  0.00  0.00    +0.250 A 
ATOM     15  N   LIG    1        5.213   4.788   9.889  0.00  0.00    -0.550 NA
ATOM     16  C   LIG    1        4.014   5.313   9.740  0.00  0.00    +0.570 A 
ATOM     17  N   LIG    1        3.134   4.808   8.899  0.00  0.00    -0.570 NA
ATOM     18 CL   LIG    1        7.168   3.042   9.402  0.00  0.00    -0.010 Cl
ATOM     19  C   LIG    1        3.432   3.739   8.165  0.00  0.00    +0.450 A 
BRANCH  13  21
ATOM     20  C   LIG    1        5.709   2.379   6.179  0.00  0.00    +0.030 C 
ATOM     21  C   LIG    1        5.071   1.938   7.497  0.00  0.00    +0.090 C 
ENDBRANCH  13  21
ENDBRANCH  11  19
ENDBRANCH  10  11
ENDBRANCH   1  10
BRANCH   6  22
ATOM     22  C   LIG    1       -0.933   2.993   1.252  0.00  0.00    -0.020 C 
BRANCH  22  23
ATOM     23  C   LIG    1       -1.320   1.639   0.654  0.00  0.00    +0.010 C 
ATOM     24  C   LIG    1       -2.833   1.596   0.429  0.00  0.00    +0.020 C 
ATOM     25  C   LIG    1       -0.916   0.522   1.618  0.00  0.00    +0.020 C 
ENDBRANCH  22  23
BRANCH  22  26
ATOM     26  C   LIG    1       -1.303   4.108   0.272  0.00  0.00    +0.040 C 
BRANCH  26  27
ATOM     27  C   LIG    1       -0.461   3.971  -0.998  0.00  0.00    -0.020 C 
ATOM     28  C   LIG    1        1.012   4.219  -0.663  0.00  0.00    +0.000 C 
ATOM     29  C   LIG    1        1.854   4.083  -1.933  0.00  0.00    +0.000 C 
ATOM     30  C   LIG    1        1.387   5.108  -2.967  0.00  0.00    +0.000 C 
ATOM     31  C   LIG    1       -0.085   4.860  -3.303  0.00  0.00    +0.000 C 
ATOM     32  C   LIG    1       -0.928   4.997  -2.033  0.00  0.00    +0.010 C 
ENDBRANCH  26  27
ENDBRANCH  22  26
ENDBRANCH   6  22
TORSDOF 8
