REMARK  Name = ZINCqH0000008md9.0
REMARK                            x       y       z     vdW  Elec       q    Type
REMARK                         _______ _______ _______ _____ _____    ______ ____
ROOT
ATOM      1  N   LIG    1       -3.716  -0.278   0.036  0.00  0.00    -0.730 N 
ATOM      2  H   LIG    1       -3.880  -1.234   0.033  0.00  0.00    +0.400 HD
ATOM      3  C   LIG    1       -2.451   0.189   0.026  0.00  0.00    +0.510 C 
ATOM      4  O   LIG    1       -2.246   1.384   0.031  0.00  0.00    -0.490 OA
ENDROOT
BRANCH   1   6
ATOM      5  C   LIG    1       -5.140   1.074   1.494  0.00  0.00    +0.040 C 
ATOM      6  C   LIG    1       -4.842   0.659   0.052  0.00  0.00    +0.290 C 
BRANCH   6   7
ATOM      7  C   LIG    1       -6.057  -0.006  -0.541  0.00  0.00    -0.050 A 
ATOM      8  C   LIG    1       -6.169  -1.383  -0.521  0.00  0.00    +0.020 A 
ATOM      9  C   LIG    1       -7.288  -1.995  -1.061  0.00  0.00    +0.130 A 
ATOM     10  C   LIG    1       -8.290  -1.226  -1.629  0.00  0.00    -0.070 A 
ATOM     11  C   LIG    1       -8.174   0.152  -1.653  0.00  0.00    +0.090 A 
ATOM     12 CL   LIG    1       -9.690  -1.992  -2.312  0.00  0.00    -0.030 Cl
ATOM     13  F   LIG    1       -7.400  -3.341  -1.037  0.00  0.00    -0.120 F 
ATOM     14  C   LIG    1       -7.058   0.762  -1.109  0.00  0.00    -0.030 A 
ATOM     15 CL   LIG    1       -6.914   2.492  -1.138  0.00  0.00    -0.030 Cl
ENDBRANCH   6   7
ENDBRANCH   1   6
BRANCH   3  16
ATOM     16  C   LIG    1       -1.293  -0.775   0.010  0.00  0.00    +0.160 C 
BRANCH  16  17
ATOM     17  C   LIG    1        0.002  -0.004   0.002  0.00  0.00    +0.120 A 
ATOM     18  N   LIG    1       -0.015   1.296   0.009  0.00  0.00    -0.160 NA
ATOM     19  N   LIG    1        1.148   2.065   0.002  0.00  0.00    -0.540 N 
ATOM     20  H   LIG    1        1.075   3.032   0.008  0.00  0.00    +0.440 HD
ATOM     21  C   LIG    1        2.373   1.500  -0.013  0.00  0.00    +0.530 A 
ATOM     22  C   LIG    1        2.475   0.035  -0.021  0.00  0.00    -0.130 A 
ATOM     23  C   LIG    1        3.706  -0.619  -0.036  0.00  0.00    +0.090 A 
ATOM     24  C   LIG    1        3.743  -1.996  -0.044  0.00  0.00    +0.030 A 
ATOM     25  C   LIG    1        2.569  -2.738  -0.037  0.00  0.00    +0.050 A 
ATOM     26  C   LIG    1        1.342  -2.113  -0.022  0.00  0.00    +0.040 A 
ATOM     27  O   LIG    1        3.376   2.191  -0.019  0.00  0.00    -0.520 OA
ATOM     28  C   LIG    1        1.279  -0.719  -0.013  0.00  0.00    -0.050 A 
ENDBRANCH  16  17
ENDBRANCH   3  16
TORSDOF 4
