REMARK  Name = ZINCqH0000001vdm.0
REMARK                            x       y       z     vdW  Elec       q    Type
REMARK                         _______ _______ _______ _____ _____    ______ ____
ROOT
ATOM      1  C   LIG    1       -0.349  -2.567   4.977  0.00  0.00    +0.110 A 
ATOM      2  N   LIG    1       -0.449  -1.968   6.125  0.00  0.00    -0.420 NA
ATOM      3  C   LIG    1       -0.522  -2.761   7.186  0.00  0.00    +0.030 A 
ATOM      4  C   LIG    1       -0.472  -4.085   6.917  0.00  0.00    -0.010 A 
ATOM      5  S   LIG    1       -0.332  -4.309   5.228  0.00  0.00    +0.190 S 
ENDROOT
BRANCH   1   9
ATOM      6  C   LIG    1       -0.084  -0.625   1.207  0.00  0.00    +0.160 A 
ATOM      7  C   LIG    1       -0.188   0.129   2.369  0.00  0.00    -0.010 A 
ATOM      8  C   LIG    1       -0.280  -0.497   3.593  0.00  0.00    +0.120 A 
ATOM      9  C   LIG    1       -0.257  -1.891   3.666  0.00  0.00    -0.070 A 
ATOM     10  C   LIG    1       -0.146  -2.645   2.496  0.00  0.00    +0.080 A 
ATOM     11  C   LIG    1       -0.061  -2.012   1.275  0.00  0.00    -0.070 A 
BRANCH   6  12
ATOM     12  O   LIG    1        0.002  -0.004   0.002  0.00  0.00    -0.310 OA
BRANCH  12  14
ATOM     13  C   LIG    1       -1.100  -1.382  -1.650  0.00  0.00    +0.020 C 
ATOM     14  C   LIG    1        0.234  -0.832  -1.139  0.00  0.00    +0.150 C 
ATOM     15  C   LIG    1        0.900  -0.007  -2.242  0.00  0.00    +0.070 C 
ENDBRANCH  12  14
ENDBRANCH   6  12
ENDBRANCH   1   9
BRANCH   3  16
ATOM     16  C   LIG    1       -0.643  -2.237   8.556  0.00  0.00    +0.550 C 
ATOM     17  O   LIG    1       -0.703  -3.005   9.497  0.00  0.00    -0.500 OA
BRANCH  16  18
ATOM     18  O   LIG    1       -0.689  -0.907   8.768  0.00  0.00    -0.330 OA
BRANCH  18  19
ATOM     19  C   LIG    1       -0.809  -0.462  10.144  0.00  0.00    +0.210 C 
BRANCH  19  20
ATOM     20  C   LIG    1       -0.845   1.067  10.185  0.00  0.00    +0.130 C 
BRANCH  20  21
ATOM     21  C   LIG    1       -0.970   1.529  11.614  0.00  0.00    -0.240 A 
ATOM     22  C   LIG    1       -2.127   1.755  12.280  0.00  0.00    +0.250 A 
ATOM     23  N   LIG    1       -1.811   2.152  13.530  0.00  0.00    -0.380 N 
ATOM     24  N   LIG    1       -0.414   2.179  13.634  0.00  0.00    -0.300 NA
ATOM     25  C   LIG    1       -2.761   2.498  14.590  0.00  0.00    +0.360 C 
ATOM     26  C   LIG    1        0.088   1.805  12.485  0.00  0.00    +0.240 A 
ENDBRANCH  20  21
ENDBRANCH  19  20
ENDBRANCH  18  19
ENDBRANCH  16  18
ENDBRANCH   3  16
TORSDOF 8
