REMARK  Name = ZINCkj000005kfij.0
REMARK                            x       y       z     vdW  Elec       q    Type
REMARK                         _______ _______ _______ _____ _____    ______ ____
ROOT
ATOM      1  N   LIG    1       -6.298   0.589   3.406  0.00  0.00    -0.730 N 
ATOM      2  H   LIG    1       -6.790   0.820   2.603  0.00  0.00    +0.400 HD
ATOM      3  C   LIG    1       -4.963   0.765   3.453  0.00  0.00    +0.720 C 
ATOM      4  N   LIG    1       -4.324   1.354   2.423  0.00  0.00    -0.640 N 
ATOM      5  C   LIG    1       -5.040   1.713   1.188  0.00  0.00    +0.310 C 
ATOM      6  C   LIG    1       -4.263   1.129   0.006  0.00  0.00    +0.260 C 
ATOM      7  N   LIG    1       -2.869   1.602   0.037  0.00  0.00    -0.380 N 
ATOM      8  C   LIG    1       -2.197   1.093  -1.168  0.00  0.00    +0.250 C 
ATOM      9  C   LIG    1       -0.756   1.599  -1.223  0.00  0.00    +0.050 C 
ATOM     10  C   LIG    1       -0.008   1.092   0.015  0.00  0.00    +0.040 C 
ATOM     11  C   LIG    1       -0.735   1.590   1.266  0.00  0.00    +0.070 C 
ATOM     12  C   LIG    1       -2.194   1.109   1.242  0.00  0.00    +0.160 C 
ATOM     13  H   LIG    1       -2.854   2.611   0.031  0.00  0.00    +0.420 HD
ATOM     14  C   LIG    1       -2.889   1.661   2.494  0.00  0.00    +0.340 C 
ATOM     15  O   LIG    1       -4.334   0.391   4.425  0.00  0.00    -0.560 OA
ENDROOT
BRANCH   1  16
ATOM     16  C   LIG    1       -7.007   0.048   4.569  0.00  0.00    +0.410 C 
BRANCH  16  20
ATOM     17  C   LIG    1      -11.631  -1.575   3.194  0.00  0.00    +0.200 C 
ATOM     18  C   LIG    1      -10.453  -0.763   3.666  0.00  0.00    -0.020 A 
ATOM     19  C   LIG    1       -9.170  -1.183   3.776  0.00  0.00    -0.050 A 
ATOM     20  C   LIG    1       -8.479  -0.048   4.259  0.00  0.00    -0.010 A 
ATOM     21  N   LIG    1       -9.364   0.898   4.378  0.00  0.00    -0.350 NA
ATOM     22  O   LIG    1      -10.466   0.520   4.053  0.00  0.00    +0.110 OA
ENDBRANCH  16  20
ENDBRANCH   1  16
TORSDOF 2
