REMARK  Name = ZINCkj000005kfij.1
REMARK                            x       y       z     vdW  Elec       q    Type
REMARK                         _______ _______ _______ _____ _____    ______ ____
ROOT
ATOM      1  N   LIG    1        0.085  -0.000   0.001  0.00  0.00    -0.730 N 
ATOM      2  H   LIG    1        0.955  -0.421  -0.082  0.00  0.00    +0.400 HD
ATOM      3  C   LIG    1       -0.016   1.344   0.009  0.00  0.00    +0.720 C 
ATOM      4  N   LIG    1        1.097   2.103   0.003  0.00  0.00    -0.640 N 
ATOM      5  C   LIG    1        2.429   1.493  -0.122  0.00  0.00    +0.310 C 
ATOM      6  C   LIG    1        3.191   2.215  -1.238  0.00  0.00    +0.250 C 
ATOM      7  N   LIG    1        3.213   3.658  -0.962  0.00  0.00    -0.380 N 
ATOM      8  C   LIG    1        4.035   4.333  -1.975  0.00  0.00    +0.250 C 
ATOM      9  C   LIG    1        3.487   4.017  -3.369  0.00  0.00    +0.050 C 
ATOM     10  C   LIG    1        2.041   4.512  -3.470  0.00  0.00    +0.030 C 
ATOM     11  C   LIG    1        1.211   3.867  -2.356  0.00  0.00    +0.060 C 
ATOM     12  C   LIG    1        1.847   4.194  -1.003  0.00  0.00    +0.170 C 
ATOM     13  H   LIG    1        3.609   3.818  -0.047  0.00  0.00    +0.420 HD
ATOM     14  C   LIG    1        1.014   3.568   0.114  0.00  0.00    +0.350 C 
ATOM     15  O   LIG    1       -1.112   1.871   0.018  0.00  0.00    -0.560 OA
ENDROOT
BRANCH   1  16
ATOM     16  C   LIG    1       -1.119  -0.827   0.117  0.00  0.00    +0.410 C 
BRANCH  16  20
ATOM     17  C   LIG    1        0.149  -5.594   1.372  0.00  0.00    +0.200 C 
ATOM     18  C   LIG    1       -0.192  -4.321   0.640  0.00  0.00    -0.020 A 
ATOM     19  C   LIG    1       -0.500  -3.124   1.194  0.00  0.00    -0.050 A 
ATOM     20  C   LIG    1       -0.734  -2.283   0.082  0.00  0.00    -0.010 A 
ATOM     21  N   LIG    1       -0.546  -3.015  -0.978  0.00  0.00    -0.350 NA
ATOM     22  O   LIG    1       -0.245  -4.149  -0.688  0.00  0.00    +0.110 OA
ENDBRANCH  16  20
ENDBRANCH   1  16
TORSDOF 2
