REMARK  Name = ZINCpk00000kUyTI.0
REMARK                            x       y       z     vdW  Elec       q    Type
REMARK                         _______ _______ _______ _____ _____    ______ ____
ROOT
ATOM      1  C   LIG    1        3.937   2.105   1.371  0.00  0.00    +0.520 C 
ATOM      2  N   LIG    1        3.618   3.407   1.233  0.00  0.00    -0.730 N 
ATOM      3  H   LIG    1        3.800   4.030   1.955  0.00  0.00    +0.400 HD
ATOM      4  O   LIG    1        3.710   1.327   0.469  0.00  0.00    -0.530 OA
ENDROOT
BRANCH   1   5
ATOM      5  C   LIG    1        4.575   1.616   2.646  0.00  0.00    +0.040 C 
BRANCH   5   6
ATOM      6  C   LIG    1        4.832   0.112   2.543  0.00  0.00    +0.380 C 
BRANCH   6  11
ATOM      7  C   LIG    1        5.486  -1.696   7.122  0.00  0.00    +0.350 C 
ATOM      8  N   LIG    1        5.744  -1.155   5.786  0.00  0.00    -0.560 N 
ATOM      9  C   LIG    1        6.981  -0.901   5.246  0.00  0.00    +0.490 A 
ATOM     10  N   LIG    1        6.827  -0.435   4.049  0.00  0.00    -0.280 NA
ATOM     11  N   LIG    1        5.453  -0.364   3.782  0.00  0.00    -0.450 N 
ATOM     12  C   LIG    1        4.807  -0.820   4.875  0.00  0.00    +0.640 A 
ATOM     13  O   LIG    1        3.601  -0.913   5.014  0.00  0.00    -0.550 OA
ENDBRANCH   6  11
ENDBRANCH   5   6
ENDBRANCH   1   5
BRANCH   2  14
ATOM     14  C   LIG    1        2.998   3.883  -0.006  0.00  0.00    +0.280 C 
BRANCH  14  15
ATOM     15  C   LIG    1        2.859   5.406   0.045  0.00  0.00    +0.040 C 
ATOM     16  C   LIG    1        4.250   6.043   0.092  0.00  0.00    +0.020 C 
ATOM     17  C   LIG    1        4.098   7.549  -0.154  0.00  0.00    +0.110 C 
ATOM     18  O   LIG    1        3.607   7.741  -1.482  0.00  0.00    -0.310 OA
ATOM     19  C   LIG    1        2.528   7.013  -1.871  0.00  0.00    +0.140 A 
ATOM     20  C   LIG    1        1.820   7.425  -2.995  0.00  0.00    -0.020 A 
ATOM     21  C   LIG    1        0.720   6.710  -3.424  0.00  0.00    +0.050 A 
ATOM     22  C   LIG    1        0.320   5.580  -2.735  0.00  0.00    -0.020 A 
ATOM     23  C   LIG    1        1.020   5.169  -1.617  0.00  0.00    +0.050 A 
ATOM     24  C   LIG    1        5.457   8.236  -0.002  0.00  0.00    +0.080 C 
ATOM     25  C   LIG    1        3.107   8.139   0.852  0.00  0.00    +0.030 C 
ATOM     26  C   LIG    1        2.123   5.883  -1.181  0.00  0.00    -0.160 A 
ENDBRANCH  14  15
ENDBRANCH   2  14
TORSDOF 5
