REMARK  Name = ZINCqH0000003z7P.0
REMARK                            x       y       z     vdW  Elec       q    Type
REMARK                         _______ _______ _______ _____ _____    ______ ____
ROOT
ATOM      1  N   LIG    1        3.046   1.012   1.339  0.00  0.00    -0.740 N 
ATOM      2  H   LIG    1        2.565   1.427   2.072  0.00  0.00    +0.400 HD
ATOM      3  C   LIG    1        4.226   0.401   1.568  0.00  0.00    +0.700 C 
ATOM      4  N   LIG    1        4.737   0.368   2.814  0.00  0.00    -0.740 N 
ATOM      5  H   LIG    1        4.256   0.783   3.547  0.00  0.00    +0.400 HD
ATOM      6  O   LIG    1        4.828  -0.120   0.649  0.00  0.00    -0.590 OA
ENDROOT
BRANCH   1   7
ATOM      7  C   LIG    1        2.490   1.047  -0.016  0.00  0.00    +0.340 C 
BRANCH   7  13
ATOM      8  C   LIG    1        1.156   3.166   0.008  0.00  0.00    -0.070 A 
ATOM      9  C   LIG    1       -0.050   3.840   0.022  0.00  0.00    +0.030 A 
ATOM     10  C   LIG    1       -1.238   3.133   0.029  0.00  0.00    +0.020 A 
ATOM     11  C   LIG    1       -1.219   1.751   0.017  0.00  0.00    +0.010 A 
ATOM     12  C   LIG    1       -0.013   1.076   0.008  0.00  0.00    +0.030 A 
ATOM     13  C   LIG    1        1.175   1.783   0.000  0.00  0.00    -0.110 A 
BRANCH   8  14
ATOM     14  C   LIG    1        2.451   3.937   0.000  0.00  0.00    +0.220 C 
BRANCH  14  15
ATOM     15  O   LIG    1        2.171   5.338   0.011  0.00  0.00    -0.390 OA
BRANCH  15  17
ATOM     16  C   LIG    1        2.919   7.636   0.016  0.00  0.00    +0.040 C 
ATOM     17  C   LIG    1        3.337   6.164   0.004  0.00  0.00    +0.160 C 
ENDBRANCH  15  17
ENDBRANCH  14  15
ENDBRANCH   8  14
ENDBRANCH   7  13
ENDBRANCH   1   7
BRANCH   4  18
ATOM     18  C   LIG    1        6.019  -0.296   3.062  0.00  0.00    +0.340 C 
BRANCH  18  19
ATOM     19  C   LIG    1        6.364  -0.192   4.526  0.00  0.00    -0.110 A 
ATOM     20  C   LIG    1        7.267   0.761   4.957  0.00  0.00    +0.030 A 
ATOM     21  C   LIG    1        7.579   0.859   6.301  0.00  0.00    +0.010 A 
ATOM     22  C   LIG    1        6.996  -0.003   7.211  0.00  0.00    +0.020 A 
ATOM     23  C   LIG    1        6.096  -0.959   6.778  0.00  0.00    +0.030 A 
ATOM     24  C   LIG    1        5.780  -1.054   5.436  0.00  0.00    -0.070 A 
BRANCH  24  25
ATOM     25  C   LIG    1        4.800  -2.098   4.965  0.00  0.00    +0.220 C 
BRANCH  25  26
ATOM     26  O   LIG    1        4.340  -2.859   6.083  0.00  0.00    -0.390 OA
BRANCH  26  27
ATOM     27  C   LIG    1        3.401  -3.881   5.744  0.00  0.00    +0.160 C 
ATOM     28  C   LIG    1        2.979  -4.627   7.011  0.00  0.00    +0.040 C 
ENDBRANCH  26  27
ENDBRANCH  25  26
ENDBRANCH  24  25
ENDBRANCH  18  19
ENDBRANCH   4  18
TORSDOF 10
