REMARK  Name = ZINCpe000000WaO2.0
REMARK                            x       y       z     vdW  Elec       q    Type
REMARK                         _______ _______ _______ _____ _____    ______ ____
ROOT
ATOM      1  N   LIG    1       -6.614   3.283   3.320  0.00  0.00    -0.710 N 
ATOM      2  H   LIG    1       -6.008   3.323   4.076  0.00  0.00    +0.400 HD
ATOM      3  C   LIG    1       -6.152   2.928   2.104  0.00  0.00    +0.580 C 
ATOM      4  O   LIG    1       -6.912   2.877   1.156  0.00  0.00    -0.540 OA
ENDROOT
BRANCH   3   5
ATOM      5  C   LIG    1       -4.728   2.601   1.924  0.00  0.00    -0.220 A 
ATOM      6  C   LIG    1       -4.245   2.238   0.691  0.00  0.00    +0.380 A 
ATOM      7  N   LIG    1       -2.934   1.933   0.500  0.00  0.00    -0.510 N 
ATOM      8  C   LIG    1       -2.572   1.519  -0.860  0.00  0.00    +0.340 C 
ATOM      9  C   LIG    1       -1.186   2.054  -1.232  0.00  0.00    -0.380 C 
ATOM     10  S   LIG    1       -0.017   1.417   0.010  0.00  0.00    +2.550 S 
ATOM     11  N   LIG    1       -0.748   1.815   1.439  0.00  0.00    -0.960 NA
ATOM     12  O   LIG    1        1.187   2.171   0.002  0.00  0.00    -0.940 OA
ATOM     13  O   LIG    1        0.002  -0.004   0.002  0.00  0.00    -0.960 OA
ATOM     14  C   LIG    1       -2.043   2.018   1.534  0.00  0.00    +0.520 A 
ATOM     15  C   LIG    1       -2.502   2.369   2.841  0.00  0.00    +0.020 A 
ATOM     16  C   LIG    1       -3.802   2.658   3.058  0.00  0.00    +0.140 A 
ENDBRANCH   3   5
BRANCH   1  19
ATOM     17  C   LIG    1       -9.331   4.696   4.781  0.00  0.00    +0.170 C 
ATOM     18  C   LIG    1       -8.299   5.109   3.715  0.00  0.00    -0.040 C 
ATOM     19  C   LIG    1       -8.031   3.608   3.498  0.00  0.00    +0.270 C 
ATOM     20  C   LIG    1       -8.917   5.802   2.500  0.00  0.00    +0.040 C 
ATOM     21  C   LIG    1       -8.533   3.400   4.928  0.00  0.00    -0.110 C 
ATOM     22  C   LIG    1       -7.556   3.200   6.087  0.00  0.00    +0.040 C 
ATOM     23  C   LIG    1       -8.658   2.359   6.757  0.00  0.00    +0.010 C 
ATOM     24  C   LIG    1       -9.213   2.096   5.345  0.00  0.00    +0.040 C 
BRANCH  17  26
ATOM     25  C   LIG    1      -11.600   5.465   4.716  0.00  0.00    +0.200 C 
ATOM     26  O   LIG    1      -10.647   4.503   4.259  0.00  0.00    -0.360 OA
ENDBRANCH  17  26
ENDBRANCH   1  19
TORSDOF 3
