REMARK  Name = ZINCrH000004tNKh.0
REMARK                            x       y       z     vdW  Elec       q    Type
REMARK                         _______ _______ _______ _____ _____    ______ ____
ROOT
ATOM      1  O   LIG    1        2.412   4.720   2.083  0.00  0.00    -0.510 OA
ATOM      2  C   LIG    1        3.443   5.034   1.527  0.00  0.00    +0.510 C 
ATOM      3  N   LIG    1        4.003   4.204   0.625  0.00  0.00    -0.660 N 
ATOM      4  H   LIG    1        4.865   4.419   0.238  0.00  0.00    +0.420 HD
ENDROOT
BRANCH   3   5
ATOM      5  C   LIG    1        3.339   3.029   0.248  0.00  0.00    +0.150 A 
ATOM      6  C   LIG    1        4.068   1.891  -0.070  0.00  0.00    +0.010 A 
ATOM      7  C   LIG    1        3.415   0.731  -0.442  0.00  0.00    +0.060 A 
ATOM      8  C   LIG    1        2.033   0.701  -0.498  0.00  0.00    +0.020 A 
ATOM      9  O   LIG    1        1.153  -0.298  -0.830  0.00  0.00    -0.290 OA
ATOM     10  C   LIG    1       -0.080   0.117  -0.226  0.00  0.00    +0.250 C 
ATOM     11  O   LIG    1       -0.035   1.548  -0.312  0.00  0.00    -0.290 OA
ATOM     12  C   LIG    1       -1.287  -0.447  -0.984  0.00  0.00    +0.070 C 
ATOM     13  C   LIG    1       -1.718  -1.675  -0.141  0.00  0.00    +0.040 C 
ATOM     14  C   LIG    1       -1.473  -1.199   1.313  0.00  0.00    +0.030 C 
ATOM     15  C   LIG    1       -0.182  -0.355   1.224  0.00  0.00    +0.020 C 
ATOM     16  C   LIG    1        1.297   1.843  -0.178  0.00  0.00    +0.050 A 
ATOM     17  C   LIG    1        1.951   3.003   0.194  0.00  0.00    +0.050 A 
ENDBRANCH   3   5
BRANCH   2  18
ATOM     18  C   LIG    1        4.098   6.354   1.845  0.00  0.00    +0.320 C 
BRANCH  18  19
ATOM     19  N   LIG    1        3.301   7.066   2.846  0.00  0.00    -0.720 N 
ATOM     20  H   LIG    1        2.489   6.666   3.194  0.00  0.00    +0.410 HD
ATOM     21  C   LIG    1        3.698   8.277   3.286  0.00  0.00    +0.560 C 
ATOM     22  O   LIG    1        4.716   8.778   2.851  0.00  0.00    -0.510 OA
BRANCH  21  23
ATOM     23  C   LIG    1        2.894   8.996   4.296  0.00  0.00    -0.130 A 
ATOM     24  C   LIG    1        1.724   8.423   4.798  0.00  0.00    +0.070 A 
ATOM     25  C   LIG    1        0.978   9.099   5.742  0.00  0.00    +0.020 A 
ATOM     26  C   LIG    1        1.387  10.343   6.191  0.00  0.00    +0.060 A 
ATOM     27  C   LIG    1        2.545  10.917   5.699  0.00  0.00    +0.020 A 
ATOM     28  C   LIG    1        3.305  10.249   4.758  0.00  0.00    +0.020 A 
ATOM     29 CL   LIG    1        4.762  10.967   4.147  0.00  0.00    -0.030 Cl
ENDBRANCH  21  23
ENDBRANCH  18  19
ENDBRANCH   2  18
TORSDOF 4
