REMARK  Name = ZINCrg000000swAt.0
REMARK                            x       y       z     vdW  Elec       q    Type
REMARK                         _______ _______ _______ _____ _____    ______ ____
ROOT
ATOM      1  C   LIG    1        1.810  -1.745  -0.025  0.00  0.00    +0.270 C 
ENDROOT
BRANCH   1   7
ATOM      2  C   LIG    1       -1.194  -0.920   0.009  0.00  0.00    +0.210 C 
ATOM      3  C   LIG    1        0.002  -0.004   0.002  0.00  0.00    +0.190 A 
ATOM      4  N   LIG    1       -0.016   1.306   0.009  0.00  0.00    -0.300 NA
ATOM      5  N   LIG    1        1.204   1.721  -0.000  0.00  0.00    -0.070 NA
ATOM      6  N   LIG    1        2.000   0.709  -0.013  0.00  0.00    -0.080 NA
ATOM      7  N   LIG    1        1.296  -0.373  -0.012  0.00  0.00    -0.310 N 
ENDBRANCH   1   7
BRANCH   1   8
ATOM      8  C   LIG    1        2.663  -1.973   1.196  0.00  0.00    +0.510 C 
ATOM      9  N   LIG    1        2.129  -1.837   2.426  0.00  0.00    -0.720 N 
ATOM     10  H   LIG    1        1.196  -1.592   2.525  0.00  0.00    +0.400 HD
ATOM     11  O   LIG    1        3.830  -2.279   1.072  0.00  0.00    -0.500 OA
BRANCH   9  12
ATOM     12  C   LIG    1        2.959  -2.059   3.613  0.00  0.00    +0.280 C 
BRANCH  12  13
ATOM     13  C   LIG    1        2.116  -1.842   4.872  0.00  0.00    +0.000 C 
BRANCH  13  14
ATOM     14  C   LIG    1        2.982  -2.074   6.111  0.00  0.00    +0.310 C 
BRANCH  14  15
ATOM     15  N   LIG    1        2.175  -1.866   7.316  0.00  0.00    -0.620 N 
ATOM     16  C   LIG    1        2.032  -0.578   8.005  0.00  0.00    +0.260 C 
ATOM     17  C   LIG    1        0.788  -0.733   8.910  0.00  0.00    +0.040 C 
ATOM     18  C   LIG    1        0.755  -2.262   9.138  0.00  0.00    +0.050 C 
ATOM     19  C   LIG    1        1.476  -2.832   7.937  0.00  0.00    +0.520 C 
ATOM     20  O   LIG    1        1.430  -3.992   7.585  0.00  0.00    -0.530 OA
ENDBRANCH  14  15
ENDBRANCH  13  14
ENDBRANCH  12  13
ENDBRANCH   9  12
ENDBRANCH   1   8
BRANCH   1  21
ATOM     21  C   LIG    1        2.653  -1.962  -1.284  0.00  0.00    +0.150 C 
BRANCH  21  22
ATOM     22  C   LIG    1        1.773  -1.854  -2.502  0.00  0.00    -0.110 A 
ATOM     23  C   LIG    1        1.154  -2.982  -3.009  0.00  0.00    +0.060 A 
ATOM     24  C   LIG    1        0.342  -2.883  -4.123  0.00  0.00    -0.010 A 
ATOM     25  C   LIG    1        0.158  -1.657  -4.739  0.00  0.00    +0.110 A 
ATOM     26  C   LIG    1        0.783  -0.529  -4.234  0.00  0.00    -0.010 A 
ATOM     27  F   LIG    1       -0.630  -1.560  -5.832  0.00  0.00    -0.140 F 
ATOM     28  C   LIG    1        1.590  -0.629  -3.116  0.00  0.00    +0.050 A 
ENDBRANCH  21  22
ENDBRANCH   1  21
TORSDOF 8
