REMARK  Name = ZINCrD00000F5LDU.0
REMARK                            x       y       z     vdW  Elec       q    Type
REMARK                         _______ _______ _______ _____ _____    ______ ____
ROOT
ATOM      1  N   LIG    1        2.166   1.035   1.118  0.00  0.00    -0.590 N 
ENDROOT
BRANCH   1   2
ATOM      2  C   LIG    1        2.184   1.679   2.345  0.00  0.00    +0.450 A 
ATOM      3  C   LIG    1        1.419   2.828   2.554  0.00  0.00    -0.120 A 
ATOM      4  C   LIG    1        1.468   3.432   3.795  0.00  0.00    +0.330 A 
ATOM      5  N   LIG    1        2.240   2.909   4.738  0.00  0.00    -0.560 NA
ATOM      6  C   LIG    1        2.953   1.826   4.508  0.00  0.00    +0.390 A 
ATOM      7  N   LIG    1        2.934   1.216   3.341  0.00  0.00    -0.570 NA
BRANCH   6   8
ATOM      8  C   LIG    1        3.816   1.269   5.611  0.00  0.00    +0.020 C 
ATOM      9  C   LIG    1        3.659   1.878   7.006  0.00  0.00    +0.060 C 
ATOM     10  C   LIG    1        4.911   2.176   6.177  0.00  0.00    +0.040 C 
ENDBRANCH   6   8
ENDBRANCH   1   2
BRANCH   1  11
ATOM     11  C   LIG    1        1.423   1.615  -0.003  0.00  0.00    +0.320 C 
BRANCH  11  12
ATOM     12  C   LIG    1       -0.013   1.086   0.008  0.00  0.00    +0.120 C 
ATOM     13  C   LIG    1       -0.753   1.593  -1.232  0.00  0.00    +0.020 C 
BRANCH  12  15
ATOM     14  C   LIG    1       -1.693   0.658   1.663  0.00  0.00    +0.190 C 
ATOM     15  O   LIG    1       -0.682   1.547   1.184  0.00  0.00    -0.370 OA
ENDBRANCH  12  15
ENDBRANCH  11  12
ENDBRANCH   1  11
BRANCH   1  16
ATOM     16  C   LIG    1        2.890  -0.226   0.943  0.00  0.00    +0.360 C 
BRANCH  16  17
ATOM     17  C   LIG    1        4.297   0.062   0.487  0.00  0.00    -0.110 A 
ATOM     18  C   LIG    1        4.591   0.142  -0.863  0.00  0.00    +0.060 A 
ATOM     19  C   LIG    1        5.871   0.411  -1.291  0.00  0.00    +0.010 A 
ATOM     20  C   LIG    1        6.911   0.597  -0.369  0.00  0.00    +0.130 A 
ATOM     21  C   LIG    1        6.595   0.507   0.988  0.00  0.00    -0.150 A 
ATOM     22  S   LIG    1        8.107   0.788   1.863  0.00  0.00    -0.010 S 
ATOM     23  C   LIG    1        9.081   1.011   0.401  0.00  0.00    +0.520 A 
ATOM     24  O   LIG    1       10.274   1.248   0.346  0.00  0.00    -0.460 OA
ATOM     25  N   LIG    1        8.243   0.867  -0.630  0.00  0.00    -0.540 N 
ATOM     26  C   LIG    1        8.724   0.990  -2.008  0.00  0.00    +0.330 C 
ATOM     27  C   LIG    1        5.306   0.242   1.414  0.00  0.00    +0.140 A 
ENDBRANCH  16  17
ENDBRANCH   1  16
TORSDOF 7
