REMARK  Name = ZINCpk00000e9DKW.0
REMARK                            x       y       z     vdW  Elec       q    Type
REMARK                         _______ _______ _______ _____ _____    ______ ____
ROOT
ATOM      1  C   LIG    1        4.265  10.154  -3.389  0.00  0.00    +0.190 A 
ATOM      2  N   LIG    1        3.038  10.341  -3.803  0.00  0.00    -0.290 NA
ATOM      3  N   LIG    1        2.221   9.674  -3.062  0.00  0.00    -0.270 NA
ATOM      4  C   LIG    1        2.888   9.040  -2.148  0.00  0.00    +0.150 A 
ATOM      5  C   LIG    1        2.368   8.143  -1.055  0.00  0.00    +0.420 C 
ATOM      6  N   LIG    1        3.535   7.474  -0.449  0.00  0.00    -0.620 N 
ATOM      7  C   LIG    1        4.737   8.280  -0.188  0.00  0.00    +0.310 C 
ATOM      8  C   LIG    1        5.299   8.796  -1.518  0.00  0.00    +0.300 C 
ATOM      9  C   LIG    1        3.503   6.160  -0.149  0.00  0.00    +0.540 C 
ATOM     10  O   LIG    1        4.474   5.627   0.344  0.00  0.00    -0.520 OA
ATOM     11  N   LIG    1        4.203   9.320  -2.331  0.00  0.00    -0.470 N 
ENDROOT
BRANCH   9  12
ATOM     12  C   LIG    1        2.260   5.355  -0.426  0.00  0.00    -0.030 C 
ATOM     13  C   LIG    1        1.085   5.923   0.381  0.00  0.00    +0.270 C 
ATOM     14  O   LIG    1       -0.097   5.207   0.020  0.00  0.00    -0.300 OA
ATOM     15  C   LIG    1       -0.043   3.850   0.019  0.00  0.00    +0.170 A 
ATOM     16  C   LIG    1       -1.237   3.139   0.029  0.00  0.00    -0.040 A 
ATOM     17  C   LIG    1       -1.223   1.754   0.017  0.00  0.00    +0.160 A 
ATOM     18  C   LIG    1       -0.013   1.076   0.008  0.00  0.00    -0.100 A 
ATOM     19  C   LIG    1        1.173   1.783   0.000  0.00  0.00    +0.090 A 
ATOM     20  C   LIG    1        1.163   3.168   0.006  0.00  0.00    -0.190 A 
ATOM     21  C   LIG    1        2.480   3.902   0.003  0.00  0.00    +0.130 C 
BRANCH  17  22
ATOM     22  O   LIG    1       -2.392   1.061   0.021  0.00  0.00    -0.310 OA
ATOM     23  C   LIG    1       -2.301  -0.365   0.014  0.00  0.00    +0.250 C 
ENDBRANCH  17  22
ENDBRANCH   9  12
BRANCH   1  25
ATOM     24  C   LIG    1        6.061   9.829  -5.067  0.00  0.00    +0.040 C 
ATOM     25  C   LIG    1        5.512  10.757  -3.982  0.00  0.00    +0.140 C 
ENDBRANCH   1  25
TORSDOF 3
