REMARK  Name = ZINCrD00000F5LBm.0
REMARK                            x       y       z     vdW  Elec       q    Type
REMARK                         _______ _______ _______ _____ _____    ______ ____
ROOT
ATOM      1  C   LIG    1       -4.960   6.377   6.623  0.00  0.00    +0.150 C 
ATOM      2  C   LIG    1       -4.465   5.992   5.425  0.00  0.00    -0.120 C 
ENDROOT
BRANCH   1   6
ATOM      3  C   LIG    1       -8.440   8.778   6.801  0.00  0.00    +0.300 A 
ATOM      4  C   LIG    1       -7.931   8.383   5.566  0.00  0.00    -0.050 A 
ATOM      5  C   LIG    1       -6.804   7.612   5.504  0.00  0.00    +0.150 A 
ATOM      6  C   LIG    1       -6.168   7.210   6.685  0.00  0.00    -0.150 A 
ATOM      7  C   LIG    1       -6.683   7.611   7.925  0.00  0.00    +0.180 A 
ATOM      8  C   LIG    1       -7.806   8.386   7.978  0.00  0.00    -0.130 A 
BRANCH   3  10
ATOM      9  C   LIG    1      -10.324   9.875   5.633  0.00  0.00    +0.300 C 
ATOM     10  N   LIG    1       -9.584   9.567   6.859  0.00  0.00    -0.710 N 
ATOM     11  H   LIG    1       -9.891   9.913   7.712  0.00  0.00    +0.420 HD
ENDBRANCH   3  10
BRANCH   8  12
ATOM     12  N   LIG    1       -8.351   8.809   9.287  0.00  0.00    +0.050 N 
ATOM     13  O   LIG    1       -9.284   9.591   9.334  0.00  0.00    -0.200 OA
ATOM     14  O   LIG    1       -7.866   8.376  10.317  0.00  0.00    -0.150 OA
ENDBRANCH   8  12
ENDBRANCH   1   6
BRANCH   2  15
ATOM     15  C   LIG    1       -3.299   5.187   5.366  0.00  0.00    +0.430 C 
ATOM     16  O   LIG    1       -2.744   4.842   6.394  0.00  0.00    -0.470 OA
BRANCH  15  17
ATOM     17  C   LIG    1       -2.758   4.766   4.058  0.00  0.00    -0.190 A 
ATOM     18  C   LIG    1       -1.609   3.973   3.998  0.00  0.00    +0.110 A 
ATOM     19  C   LIG    1       -1.107   3.582   2.777  0.00  0.00    -0.020 A 
ATOM     20  C   LIG    1       -1.744   3.976   1.603  0.00  0.00    +0.140 A 
ATOM     21  C   LIG    1       -2.885   4.771   1.660  0.00  0.00    -0.060 A 
ATOM     22  C   LIG    1       -3.395   5.160   2.877  0.00  0.00    +0.090 A 
BRANCH  20  23
ATOM     23  N   LIG    1       -1.235   3.579   0.371  0.00  0.00    -0.490 N 
ATOM     24  C   LIG    1       -1.128   2.115   0.293  0.00  0.00    +0.180 C 
ATOM     25  C   LIG    1       -0.510   1.726  -1.053  0.00  0.00    +0.230 C 
ATOM     26  O   LIG    1       -1.303   2.269  -2.112  0.00  0.00    -0.380 OA
ATOM     27  C   LIG    1       -1.427   3.693  -2.066  0.00  0.00    +0.230 C 
ATOM     28  C   LIG    1       -2.055   4.102  -0.731  0.00  0.00    +0.170 C 
ENDBRANCH  20  23
ENDBRANCH  15  17
ENDBRANCH   2  15
TORSDOF 6
