REMARK  Name = ZINCpe000000XEUG.0
REMARK                            x       y       z     vdW  Elec       q    Type
REMARK                         _______ _______ _______ _____ _____    ______ ____
ROOT
ATOM      1  C   LIG    1        2.399   6.922   0.503  0.00  0.00    +0.620 C 
ATOM      2  N   LIG    1        3.735   6.860   0.337  0.00  0.00    -0.710 N 
ATOM      3  H   LIG    1        4.168   6.001   0.214  0.00  0.00    +0.410 HD
ATOM      4  O   LIG    1        1.855   7.998   0.657  0.00  0.00    -0.500 OA
ENDROOT
BRANCH   1  12
ATOM      5  C   LIG    1       -2.543   4.373   0.890  0.00  0.00    +0.160 C 
ATOM      6  C   LIG    1       -1.262   3.609   0.674  0.00  0.00    +0.210 A 
ATOM      7  C   LIG    1       -1.278   2.257   0.560  0.00  0.00    -0.040 A 
ATOM      8  C   LIG    1       -0.071   1.571   0.364  0.00  0.00    +0.240 A 
ATOM      9  N   LIG    1        1.061   2.231   0.282  0.00  0.00    -0.460 NA
ATOM     10  C   LIG    1        1.087   3.567   0.387  0.00  0.00    +0.460 A 
ATOM     11  N   LIG    1        2.077   4.446   0.340  0.00  0.00    -0.510 NA
ATOM     12  C   LIG    1        1.593   5.680   0.499  0.00  0.00    +0.240 A 
ATOM     13  N   LIG    1        0.283   5.619   0.651  0.00  0.00    -0.260 NA
ATOM     14  C   LIG    1       -0.073   0.069   0.242  0.00  0.00    +0.180 C 
ATOM     15  N   LIG    1       -0.073   4.266   0.584  0.00  0.00    -0.330 N 
ENDBRANCH   1  12
BRANCH   2  16
ATOM     16  C   LIG    1        4.532   8.089   0.341  0.00  0.00    +0.310 C 
BRANCH  16  17
ATOM     17  C   LIG    1        6.007   7.740   0.134  0.00  0.00    +0.070 C 
BRANCH  17  18
ATOM     18  C   LIG    1        6.827   9.005   0.139  0.00  0.00    +0.520 C 
ATOM     19  N   LIG    1        8.163   8.942  -0.028  0.00  0.00    -0.670 N 
ATOM     20  H   LIG    1        8.607   8.080  -0.074  0.00  0.00    +0.420 HD
ATOM     21  O   LIG    1        6.285  10.079   0.292  0.00  0.00    -0.510 OA
BRANCH  19  22
ATOM     22  C   LIG    1        8.911  10.120  -0.134  0.00  0.00    +0.090 A 
ATOM     23  C   LIG    1        8.365  11.252  -0.733  0.00  0.00    +0.070 A 
ATOM     24  C   LIG    1        9.143  12.396  -0.809  0.00  0.00    -0.010 A 
ATOM     25  C   LIG    1       10.429  12.374  -0.303  0.00  0.00    +0.240 A 
ATOM     26  N   LIG    1       10.919  11.283   0.254  0.00  0.00    -0.470 NA
ATOM     27  C   LIG    1       10.211  10.176   0.352  0.00  0.00    +0.240 A 
ENDBRANCH  19  22
ENDBRANCH  17  18
ENDBRANCH  16  17
ENDBRANCH   2  16
TORSDOF 5
