REMARK  Name = ZINCvU0000000ILe.0
REMARK                            x       y       z     vdW  Elec       q    Type
REMARK                         _______ _______ _______ _____ _____    ______ ____
ROOT
ATOM      1  C   LIG    1        6.951  -1.194  -1.324  0.00  0.00    +0.610 C 
ATOM      2  N   LIG    1        7.811  -2.224  -1.188  0.00  0.00    -0.610 N 
ATOM      3  C   LIG    1        7.541  -3.327  -0.255  0.00  0.00    +0.320 C 
ATOM      4  C   LIG    1        8.804  -3.666   0.487  0.00  0.00    -0.050 C 
ATOM      5  C   LIG    1        9.984  -3.197   0.156  0.00  0.00    -0.030 C 
ATOM      6  C   LIG    1       10.232  -2.255  -0.984  0.00  0.00    +0.070 C 
ATOM      7  C   LIG    1        9.056  -2.290  -1.972  0.00  0.00    +0.280 C 
ATOM      8  O   LIG    1        7.242  -0.249  -2.032  0.00  0.00    -0.540 OA
ENDROOT
BRANCH   5   9
ATOM      9  C   LIG    1       11.145  -3.626   0.961  0.00  0.00    -0.150 A 
ATOM     10  C   LIG    1       12.098  -4.522   0.597  0.00  0.00    +0.240 A 
ATOM     11  N   LIG    1       13.010  -4.659   1.602  0.00  0.00    -0.590 N 
ATOM     12  H   LIG    1       13.783  -5.244   1.574  0.00  0.00    +0.420 HD
ATOM     13  C   LIG    1       12.674  -3.846   2.664  0.00  0.00    +0.100 A 
ATOM     14  C   LIG    1       13.255  -3.613   3.906  0.00  0.00    -0.010 A 
ATOM     15  C   LIG    1       12.683  -2.708   4.773  0.00  0.00    -0.060 A 
ATOM     16  C   LIG    1       11.522  -2.033   4.426  0.00  0.00    -0.020 A 
ATOM     17  C   LIG    1       10.928  -2.253   3.203  0.00  0.00    +0.050 A 
ATOM     18  C   LIG    1       13.320  -2.456   6.115  0.00  0.00    +0.100 C 
ATOM     19  C   LIG    1       11.500  -3.159   2.312  0.00  0.00    -0.100 A 
ENDBRANCH   5   9
BRANCH   1  21
ATOM     20  C   LIG    1        4.994  -0.124  -0.092  0.00  0.00    +0.170 A 
ATOM     21  C   LIG    1        5.659  -1.215  -0.616  0.00  0.00    -0.290 A 
ATOM     22  C   LIG    1        4.868  -2.355  -0.345  0.00  0.00    +0.280 A 
ATOM     23  N   LIG    1        3.805  -1.966   0.303  0.00  0.00    -0.290 NA
ATOM     24  N   LIG    1        3.857  -0.577   0.467  0.00  0.00    -0.310 N 
BRANCH  24  25
ATOM     25  C   LIG    1        2.892   0.208   1.112  0.00  0.00    +0.140 A 
ATOM     26  C   LIG    1        2.480   1.407   0.546  0.00  0.00    +0.010 A 
ATOM     27  C   LIG    1        1.528   2.179   1.183  0.00  0.00    +0.040 A 
ATOM     28  C   LIG    1        0.986   1.758   2.384  0.00  0.00    +0.020 A 
ATOM     29  C   LIG    1        1.394   0.565   2.950  0.00  0.00    +0.030 A 
ATOM     30  C   LIG    1        2.346  -0.211   2.318  0.00  0.00    +0.030 A 
ENDBRANCH  24  25
BRANCH  20  32
ATOM     31  C   LIG    1        6.282   1.621   1.109  0.00  0.00    +0.040 C 
ATOM     32  C   LIG    1        5.455   1.310  -0.140  0.00  0.00    +0.120 C 
ENDBRANCH  20  32
ENDBRANCH   1  21
TORSDOF 4
