REMARK  Name = ZINCrH00000No4W9.0
REMARK                            x       y       z     vdW  Elec       q    Type
REMARK                         _______ _______ _______ _____ _____    ______ ____
ROOT
ATOM      1  C   LIG    1        0.708   4.687  -2.388  0.00  0.00    -0.110 A 
ATOM      2  C   LIG    1       -0.349   5.462  -2.865  0.00  0.00    +0.060 A 
ATOM      3  C   LIG    1       -0.085   6.611  -3.594  0.00  0.00    +0.140 A 
ATOM      4  C   LIG    1        1.228   6.982  -3.857  0.00  0.00    +0.110 A 
ATOM      5  C   LIG    1        2.276   6.211  -3.387  0.00  0.00    -0.170 A 
ATOM      6  C   LIG    1        2.024   5.068  -2.656  0.00  0.00    +0.130 A 
ENDROOT
BRANCH   1  14
ATOM      7  C   LIG    1       -2.460   0.792  -2.975  0.00  0.00    +0.130 C 
ATOM      8  C   LIG    1       -1.942   1.973  -3.797  0.00  0.00    +0.040 C 
ATOM      9  C   LIG    1       -1.647   3.159  -2.873  0.00  0.00    +0.280 C 
ATOM     10  N   LIG    1       -0.670   2.733  -1.858  0.00  0.00    -0.570 N 
ATOM     11  C   LIG    1       -0.941   1.486  -1.129  0.00  0.00    +0.090 C 
ATOM     12  C   LIG    1       -0.100   1.184   0.108  0.00  0.00    +0.080 C 
ATOM     13  C   LIG    1       -1.567   1.594   0.261  0.00  0.00    +0.020 C 
ATOM     14  C   LIG    1        0.435   3.462  -1.605  0.00  0.00    +0.570 C 
ATOM     15  O   LIG    1        1.208   3.113  -0.734  0.00  0.00    -0.510 OA
ATOM     16  C   LIG    1       -1.362   0.312  -2.019  0.00  0.00    +0.090 C 
BRANCH   7  18
ATOM     17  N   LIG    1       -3.127  -1.155  -4.576  0.00  0.00    -0.420 NA
ATOM     18  C   LIG    1       -2.837  -0.307  -3.879  0.00  0.00    +0.200 C 
ENDBRANCH   7  18
ENDBRANCH   1  14
BRANCH   5  19
ATOM     19  C   LIG    1        3.697   6.620  -3.675  0.00  0.00    +0.510 C 
ATOM     20  F   LIG    1        4.527   6.187  -2.636  0.00  0.00    -0.170 F 
ATOM     21  F   LIG    1        3.769   8.013  -3.780  0.00  0.00    -0.170 F 
ATOM     22  F   LIG    1        4.115   6.040  -4.878  0.00  0.00    -0.170 F 
ENDBRANCH   5  19
BRANCH   3  23
ATOM     23  N   LIG    1       -1.142   7.395  -4.071  0.00  0.00    -0.670 N 
ATOM     24  H   LIG    1       -1.950   7.493  -3.543  0.00  0.00    +0.420 HD
ATOM     25  C   LIG    1       -1.037   8.014  -5.264  0.00  0.00    +0.500 C 
ATOM     26  O   LIG    1        0.003   7.961  -5.886  0.00  0.00    -0.490 OA
BRANCH  25  27
ATOM     27  C   LIG    1       -2.213   8.771  -5.826  0.00  0.00    +0.190 C 
ATOM     28 CL   LIG    1       -1.764   9.480  -7.422  0.00  0.00    -0.120 Cl
ENDBRANCH  25  27
ENDBRANCH   3  23
TORSDOF 5
