REMARK  Name = ZINCrH000004rNIl.0
REMARK                            x       y       z     vdW  Elec       q    Type
REMARK                         _______ _______ _______ _____ _____    ______ ____
ROOT
ATOM      1  C   LIG    1       -3.225   0.824   1.365  0.00  0.00    +0.280 C 
ENDROOT
BRANCH   1   3
ATOM      2  C   LIG    1       -5.255  -0.205   2.234  0.00  0.00    +0.510 C 
ATOM      3  N   LIG    1       -4.459   0.057   1.179  0.00  0.00    -0.720 N 
ATOM      4  H   LIG    1       -4.703  -0.263   0.296  0.00  0.00    +0.410 HD
ATOM      5  O   LIG    1       -4.950   0.194   3.338  0.00  0.00    -0.540 OA
BRANCH   2   6
ATOM      6  C   LIG    1       -6.525  -0.995   2.043  0.00  0.00    +0.060 C 
BRANCH   6   7
ATOM      7  C   LIG    1       -7.237  -1.150   3.388  0.00  0.00    +0.100 C 
BRANCH   7  13
ATOM      8  C   LIG    1       -9.630  -5.543   3.259  0.00  0.00    +0.090 C 
ATOM      9  C   LIG    1       -9.651  -4.041   3.135  0.00  0.00    -0.080 A 
ATOM     10  C   LIG    1      -10.835  -3.388   2.847  0.00  0.00    +0.000 A 
ATOM     11  C   LIG    1      -10.854  -2.010   2.733  0.00  0.00    +0.010 A 
ATOM     12  C   LIG    1       -9.691  -1.286   2.913  0.00  0.00    +0.000 A 
ATOM     13  C   LIG    1       -8.506  -1.939   3.197  0.00  0.00    -0.080 A 
ATOM     14  C   LIG    1       -8.487  -3.317   3.311  0.00  0.00    +0.000 A 
ENDBRANCH   7  13
ENDBRANCH   6   7
ENDBRANCH   2   6
ENDBRANCH   1   3
BRANCH   1  15
ATOM     15  C   LIG    1       -2.513   0.979   0.019  0.00  0.00    +0.220 C 
BRANCH  15  16
ATOM     16  C   LIG    1       -1.186   1.661   0.229  0.00  0.00    -0.110 A 
ATOM     17  C   LIG    1       -0.524   1.529   1.435  0.00  0.00    +0.040 A 
ATOM     18  C   LIG    1        0.696   2.150   1.626  0.00  0.00    +0.020 A 
ATOM     19  C   LIG    1        1.253   2.907   0.612  0.00  0.00    +0.030 A 
ATOM     20  C   LIG    1        0.589   3.045  -0.593  0.00  0.00    +0.030 A 
ATOM     21  C   LIG    1       -0.632   2.424  -0.784  0.00  0.00    -0.030 A 
ATOM     22 CL   LIG    1       -1.466   2.596  -2.296  0.00  0.00    -0.060 Cl
ENDBRANCH  15  16
BRANCH  15  23
ATOM     23  N   LIG    1       -2.295  -0.347  -0.574  0.00  0.00    -0.520 NA
ATOM     24  C   LIG    1       -1.357  -1.138   0.236  0.00  0.00    +0.150 C 
ATOM     25  C   LIG    1       -1.205  -2.530  -0.384  0.00  0.00    +0.230 C 
ATOM     26  O   LIG    1       -0.770  -2.397  -1.740  0.00  0.00    -0.380 OA
ATOM     27  C   LIG    1       -1.659  -1.632  -2.558  0.00  0.00    +0.220 C 
ATOM     28  C   LIG    1       -1.817  -0.231  -1.960  0.00  0.00    +0.150 C 
ENDBRANCH  15  23
ENDBRANCH   1  15
TORSDOF 7
