REMARK  Name = ZINCpk00001AZiwU.0
REMARK                            x       y       z     vdW  Elec       q    Type
REMARK                         _______ _______ _______ _____ _____    ______ ____
ROOT
ATOM      1  C   LIG    1       -0.009   1.347   0.016  0.00  0.00    +0.520 C 
ATOM      2  N   LIG    1        0.007  -0.000   0.011  0.00  0.00    -0.730 N 
ATOM      3  H   LIG    1       -0.827  -0.495   0.024  0.00  0.00    +0.400 HD
ATOM      4  O   LIG    1        1.034   1.966   0.001  0.00  0.00    -0.520 OA
ENDROOT
BRANCH   1   5
ATOM      5  C   LIG    1       -1.323   2.086   0.034  0.00  0.00    +0.120 C 
BRANCH   5  10
ATOM      6  C   LIG    1       -0.723   5.622  -1.157  0.00  0.00    +0.140 A 
ATOM      7  C   LIG    1       -0.590   6.299   0.049  0.00  0.00    +0.020 A 
ATOM      8  C   LIG    1       -0.695   5.609   1.241  0.00  0.00    +0.030 A 
ATOM      9  C   LIG    1       -0.938   4.248   1.235  0.00  0.00    +0.000 A 
ATOM     10  C   LIG    1       -1.064   3.571   0.036  0.00  0.00    -0.050 A 
ATOM     11  C   LIG    1       -0.960   4.254  -1.160  0.00  0.00    -0.010 A 
BRANCH   6  13
ATOM     12  C   LIG    1       -1.079   7.580  -2.460  0.00  0.00    +0.540 C 
ATOM     13  N   LIG    1       -0.616   6.318  -2.366  0.00  0.00    -0.670 N 
ATOM     14  H   LIG    1       -0.209   5.891  -3.136  0.00  0.00    +0.410 HD
ATOM     15  O   LIG    1       -1.512   8.144  -1.474  0.00  0.00    -0.520 OA
BRANCH  12  17
ATOM     16  C   LIG    1       -1.517   9.521  -3.849  0.00  0.00    +0.160 C 
ATOM     17  C   LIG    1       -1.060   8.275  -3.756  0.00  0.00    -0.090 C 
ENDBRANCH  12  17
ENDBRANCH   6  13
ENDBRANCH   5  10
ENDBRANCH   1   5
BRANCH   2  18
ATOM     18  C   LIG    1        1.284  -0.718  -0.012  0.00  0.00    +0.420 C 
BRANCH  18  19
ATOM     19  C   LIG    1        1.026  -2.203  -0.013  0.00  0.00    +0.140 A 
ATOM     20  N   LIG    1        0.915  -2.976   1.039  0.00  0.00    -0.290 NA
ATOM     21  N   LIG    1        0.693  -4.177   0.627  0.00  0.00    -0.130 N 
ATOM     22  N   LIG    1        0.671  -4.183  -0.660  0.00  0.00    -0.060 NA
ATOM     23  N   LIG    1        0.873  -2.981  -1.084  0.00  0.00    -0.270 NA
BRANCH  21  24
ATOM     24  C   LIG    1        0.504  -5.348   1.486  0.00  0.00    +0.180 C 
ATOM     25  C   LIG    1       -0.710  -5.127   2.390  0.00  0.00    +0.080 C 
ATOM     26  C   LIG    1        1.752  -5.555   2.348  0.00  0.00    +0.080 C 
ATOM     27  C   LIG    1        0.275  -6.586   0.617  0.00  0.00    +0.100 C 
ENDBRANCH  21  24
ENDBRANCH  18  19
ENDBRANCH   2  18
TORSDOF 7
