REMARK  Name = ZINCqH0000008OYh.0
REMARK                            x       y       z     vdW  Elec       q    Type
REMARK                         _______ _______ _______ _____ _____    ______ ____
ROOT
ATOM      1  N   LIG    1       -2.427   1.032   0.018  0.00  0.00    -0.670 N 
ATOM      2  H   LIG    1       -3.273   1.500   0.102  0.00  0.00    +0.410 HD
ATOM      3  C   LIG    1       -2.409  -0.311  -0.092  0.00  0.00    +0.520 C 
ATOM      4  O   LIG    1       -1.351  -0.904  -0.100  0.00  0.00    -0.490 OA
ENDROOT
BRANCH   1  11
ATOM      5  C   LIG    1        3.805   2.359   1.175  0.00  0.00    +0.060 C 
ATOM      6  C   LIG    1        3.521   3.098  -0.135  0.00  0.00    +0.230 C 
ATOM      7  O   LIG    1        2.324   3.869   0.004  0.00  0.00    -0.300 OA
ATOM      8  C   LIG    1        1.150   3.180   0.011  0.00  0.00    +0.060 A 
ATOM      9  C   LIG    1        0.077   3.625   0.763  0.00  0.00    +0.060 A 
ATOM     10  C   LIG    1       -1.109   2.915   0.761  0.00  0.00    +0.000 A 
ATOM     11  C   LIG    1       -1.226   1.752   0.012  0.00  0.00    +0.160 A 
ATOM     12  C   LIG    1       -0.153   1.304  -0.749  0.00  0.00    +0.020 A 
ATOM     13  C   LIG    1        1.034   2.016  -0.748  0.00  0.00    +0.120 A 
ATOM     14  N   LIG    1        2.131   1.580  -1.506  0.00  0.00    -0.660 N 
ATOM     15  H   LIG    1        2.014   0.917  -2.204  0.00  0.00    +0.420 HD
ATOM     16  C   LIG    1        3.352   2.097  -1.249  0.00  0.00    +0.500 C 
ATOM     17  O   LIG    1        4.309   1.756  -1.912  0.00  0.00    -0.510 OA
ENDBRANCH   1  11
BRANCH   3  18
ATOM     18  C   LIG    1       -3.703  -1.075  -0.204  0.00  0.00    +0.170 C 
BRANCH  18  19
ATOM     19  C   LIG    1       -3.408  -2.549  -0.314  0.00  0.00    +0.090 A 
ATOM     20  C   LIG    1       -3.941  -3.444   0.523  0.00  0.00    -0.070 A 
ATOM     21  S   LIG    1       -3.357  -5.043   0.068  0.00  0.00    +0.120 S 
ATOM     22  C   LIG    1       -2.425  -4.325  -1.244  0.00  0.00    +0.140 A 
ATOM     23  N   LIG    1       -2.615  -3.034  -1.243  0.00  0.00    -0.440 NA
BRANCH  22  24
ATOM     24  C   LIG    1       -1.576  -5.063  -2.192  0.00  0.00    -0.140 A 
ATOM     25  C   LIG    1       -1.383  -6.400  -2.189  0.00  0.00    +0.030 A 
ATOM     26  C   LIG    1       -0.544  -6.862  -3.181  0.00  0.00    +0.010 A 
ATOM     27  C   LIG    1       -0.044  -5.919  -3.986  0.00  0.00    -0.040 A 
ATOM     28  S   LIG    1       -0.648  -4.340  -3.500  0.00  0.00    +0.190 S 
ENDBRANCH  22  24
ENDBRANCH  18  19
ENDBRANCH   3  18
TORSDOF 4
