REMARK  Name = ZINCrD0000074rOG.0
REMARK                            x       y       z     vdW  Elec       q    Type
REMARK                         _______ _______ _______ _____ _____    ______ ____
ROOT
ATOM      1  C   LIG    1        0.533   3.837   3.176  0.00  0.00    +0.590 C 
ATOM      2  N   LIG    1        1.450   3.118   2.498  0.00  0.00    -0.720 N 
ATOM      3  H   LIG    1        2.158   3.570   2.013  0.00  0.00    +0.400 HD
ATOM      4  O   LIG    1       -0.355   3.270   3.784  0.00  0.00    -0.520 OA
ENDROOT
BRANCH   1  11
ATOM      5  C   LIG    1        2.121  11.055   2.328  0.00  0.00    +0.090 C 
ATOM      6  C   LIG    1        1.436   9.785   2.764  0.00  0.00    -0.050 A 
ATOM      7  C   LIG    1        0.306   9.854   3.568  0.00  0.00    -0.030 A 
ATOM      8  C   LIG    1       -0.329   8.716   3.975  0.00  0.00    -0.030 A 
ATOM      9  C   LIG    1        0.162   7.465   3.578  0.00  0.00    -0.120 A 
ATOM     10  C   LIG    1       -0.260   6.135   3.819  0.00  0.00    +0.060 A 
ATOM     11  CA  LIG    1        0.606   5.305   3.180  0.00  0.00    +0.010 A 
ATOM     12  N   LIG    1        1.563   6.061   2.531  0.00  0.00    -0.580 N 
ATOM     13  H   LIG    1        2.294   5.711   1.998  0.00  0.00    +0.410 HD
ATOM     14  C   LIG    1        1.308   7.392   2.763  0.00  0.00    +0.130 A 
ATOM     15  C   LIG    1       -1.554   8.805   4.848  0.00  0.00    +0.090 C 
ATOM     16  C   LIG    1        1.938   8.567   2.361  0.00  0.00    -0.110 A 
ATOM     17  C   LIG    1        3.165   8.506   1.488  0.00  0.00    +0.100 C 
ENDBRANCH   1  11
BRANCH   2  18
ATOM     18  CA  LIG    1        1.377   1.655   2.493  0.00  0.00    +0.260 C 
BRANCH  18  19
ATOM     19  C   LIG    1        2.064   1.114   1.238  0.00  0.00    +0.030 C 
BRANCH  19  20
ATOM     20  C   LIG    1        1.286   1.562  -0.002  0.00  0.00    +0.250 C 
BRANCH  20  21
ATOM     21  C   LIG    1        2.028   1.134  -1.242  0.00  0.00    -0.120 A 
ATOM     22  C   LIG    1        1.852  -0.140  -1.748  0.00  0.00    +0.010 A 
ATOM     23  C   LIG    1        2.530  -0.531  -2.887  0.00  0.00    +0.010 A 
ATOM     24  C   LIG    1        3.390   0.349  -3.516  0.00  0.00    +0.000 A 
ATOM     25  C   LIG    1        3.571   1.621  -3.007  0.00  0.00    +0.000 A 
ATOM     26  C   LIG    1        2.890   2.014  -1.870  0.00  0.00    +0.010 A 
ENDBRANCH  20  21
BRANCH  20  27
ATOM     27  O   LIG    1       -0.011   0.963   0.007  0.00  0.00    -0.550 OA
ATOM     28  H   LIG    1        0.002  -0.004   0.002  0.00  0.00    +0.370 HD
ENDBRANCH  20  27
ENDBRANCH  19  20
ENDBRANCH  18  19
BRANCH  18  29
ATOM     29  C   LIG    1        2.080   1.106   3.736  0.00  0.00    +0.180 C 
BRANCH  29  30
ATOM     30  O   LIG    1        3.474   1.415   3.671  0.00  0.00    -0.570 OA
ATOM     31  H   LIG    1        3.983   1.096   4.428  0.00  0.00    +0.380 HD
ENDBRANCH  29  30
ENDBRANCH  18  29
ENDBRANCH   2  18
TORSDOF 8
