REMARK  Name = ZINC9l0000002ohu.0
REMARK                            x       y       z     vdW  Elec       q    Type
REMARK                         _______ _______ _______ _____ _____    ______ ____
ROOT
ATOM      1  C   LIG    1        1.423   1.615  -0.003  0.00  0.00    -0.100 C 
ATOM      2  C   LIG    1        2.139   1.122  -1.262  0.00  0.00    +0.010 C 
ENDROOT
BRANCH   1   3
ATOM      3  C   LIG    1        2.151   1.116   1.218  0.00  0.00    +0.490 C 
ATOM      4  O   LIG    1        1.537   0.899   2.248  0.00  0.00    -0.690 OA
ATOM      5  O   LIG    1        3.356   0.929   1.175  0.00  0.00    -0.710 OA
ENDBRANCH   1   3
BRANCH   1   6
ATOM      6  C   LIG    1       -0.013   1.086   0.008  0.00  0.00    +0.020 C 
ATOM      7  C   LIG    1       -0.753   1.593  -1.232  0.00  0.00    +0.010 C 
BRANCH   6   9
ATOM      8  C   LIG    1       -1.196   0.709   2.110  0.00  0.00    -0.020 C 
ATOM      9  C   LIG    1       -0.718   1.572   1.248  0.00  0.00    -0.020 C 
ENDBRANCH   6   9
ENDBRANCH   1   6
TORSDOF 3
