REMARK  Name = ZINCtV00001bB3aa.0
REMARK                            x       y       z     vdW  Elec       q    Type
REMARK                         _______ _______ _______ _____ _____    ______ ____
ROOT
ATOM      1  C   LIG    1        6.933   4.391   1.117  0.00  0.00    +0.500 A 
ATOM      2  N   LIG    1        7.500   4.661  -0.043  0.00  0.00    -0.570 NA
ATOM      3  C   LIG    1        8.668   5.308  -0.112  0.00  0.00    +0.550 A 
ATOM      4  C   LIG    1        9.334   5.728   1.138  0.00  0.00    -0.210 A 
ATOM      5  C   LIG    1        8.706   5.426   2.331  0.00  0.00    +0.060 A 
ATOM      6  S   LIG    1        9.664   6.013   3.683  0.00  0.00    +0.190 S 
ATOM      7  C   LIG    1       10.898   6.658   2.618  0.00  0.00    -0.180 A 
ATOM      8  C   LIG    1       12.142   7.368   3.085  0.00  0.00    +0.150 C 
ATOM      9  C   LIG    1       10.591   6.436   1.340  0.00  0.00    +0.000 A 
ATOM     10  O   LIG    1        9.178   5.549  -1.195  0.00  0.00    -0.470 OA
ATOM     11  N   LIG    1        7.498   4.759   2.300  0.00  0.00    -0.590 N 
ATOM     12  H   LIG    1        7.047   4.546   3.132  0.00  0.00    +0.420 HD
ENDROOT
BRANCH   9  13
ATOM     13  C   LIG    1       11.456   6.872   0.218  0.00  0.00    -0.030 A 
ATOM     14  C   LIG    1       12.069   5.926  -0.602  0.00  0.00    +0.040 A 
ATOM     15  C   LIG    1       12.870   6.338  -1.648  0.00  0.00    +0.000 A 
ATOM     16  C   LIG    1       13.073   7.687  -1.877  0.00  0.00    +0.010 A 
ATOM     17  C   LIG    1       12.472   8.631  -1.063  0.00  0.00    +0.000 A 
ATOM     18  C   LIG    1       11.665   8.230  -0.018  0.00  0.00    +0.020 A 
ENDBRANCH   9  13
BRANCH   1  20
ATOM     19  C   LIG    1        5.073   3.310  -0.029  0.00  0.00    +0.220 C 
ATOM     20  C   LIG    1        5.654   3.679   1.133  0.00  0.00    -0.110 C 
ATOM     21 CL   LIG    1        4.884   3.311   2.644  0.00  0.00    -0.040 Cl
BRANCH  19  25
ATOM     22  C   LIG    1        1.703   0.194  -1.972  0.00  0.00    +0.110 C 
ATOM     23  C   LIG    1        2.089   1.240  -0.958  0.00  0.00    -0.110 A 
ATOM     24  C   LIG    1        3.359   1.773  -0.970  0.00  0.00    +0.070 A 
ATOM     25  C   LIG    1        3.717   2.740  -0.024  0.00  0.00    -0.100 A 
ATOM     26  C   LIG    1        2.781   3.164   0.927  0.00  0.00    +0.060 A 
ATOM     27  C   LIG    1        1.513   2.627   0.927  0.00  0.00    -0.110 A 
ATOM     28  C   LIG    1        0.504   3.083   1.949  0.00  0.00    +0.100 C 
ATOM     29  C   LIG    1        1.162   1.668  -0.015  0.00  0.00    +0.130 A 
BRANCH  29  30
ATOM     30  O   LIG    1       -0.090   1.142  -0.011  0.00  0.00    -0.490 OA
ATOM     31  H   LIG    1       -0.722   1.627  -0.559  0.00  0.00    +0.390 HD
ENDBRANCH  29  30
ENDBRANCH  19  25
ENDBRANCH   1  20
TORSDOF 4
