REMARK  Name = ZINCah0000001hNT.0
REMARK                            x       y       z     vdW  Elec       q    Type
REMARK                         _______ _______ _______ _____ _____    ______ ____
ROOT
ATOM      1  C   LIG    1        0.672   3.065   0.012  0.00  0.00    -0.230 A 
ATOM      2  C   LIG    1        1.084   1.749   0.001  0.00  0.00    +0.260 A 
ATOM      3  N   LIG    1       -0.011   0.966   0.007  0.00  0.00    -0.550 N 
ATOM      4  H   LIG    1        0.002  -0.004   0.002  0.00  0.00    +0.420 HD
ATOM      5  C   LIG    1       -1.142   1.729   0.016  0.00  0.00    +0.140 A 
ATOM      6  C   LIG    1       -0.795   3.028   0.026  0.00  0.00    -0.100 A 
ATOM      7  C   LIG    1       -1.728   4.212   0.042  0.00  0.00    +0.120 C 
ENDROOT
BRANCH   1   8
ATOM      8  C   LIG    1        1.528   4.261   0.010  0.00  0.00    +0.540 C 
ATOM      9  O   LIG    1        1.026   5.368   0.020  0.00  0.00    -0.510 OA
BRANCH   8  11
ATOM     10  C   LIG    1        3.652   5.353  -0.005  0.00  0.00    +0.260 C 
ATOM     11  O   LIG    1        2.870   4.130  -0.004  0.00  0.00    -0.360 OA
ENDBRANCH   8  11
ENDBRANCH   1   8
TORSDOF 2
