REMARK  Name = ZINCvU0000000I1k.0
REMARK                            x       y       z     vdW  Elec       q    Type
REMARK                         _______ _______ _______ _____ _____    ______ ____
ROOT
ATOM      1  C   LIG    1        0.389   0.682  -0.219  0.00  0.00    +0.260 C 
ENDROOT
BRANCH   1   8
ATOM      2  C   LIG    1        2.385   3.121  -0.551  0.00  0.00    +0.150 C 
ATOM      3  C   LIG    1        0.890   3.218  -0.380  0.00  0.00    +0.100 A 
ATOM      4  N   LIG    1        0.193   4.324  -0.343  0.00  0.00    -0.280 NA
ATOM      5  N   LIG    1       -1.156   3.985  -0.171  0.00  0.00    -0.360 N 
ATOM      6  C   LIG    1       -1.242   2.640  -0.112  0.00  0.00    +0.100 A 
ATOM      7  C   LIG    1       -2.505   1.837   0.061  0.00  0.00    +0.130 C 
ATOM      8  C   LIG    1        0.010   2.141  -0.233  0.00  0.00    -0.240 A 
BRANCH   5   9
ATOM      9  C   LIG    1       -2.276   4.925  -0.078  0.00  0.00    +0.390 C 
BRANCH   9  10
ATOM     10  C   LIG    1       -2.385   5.437   1.335  0.00  0.00    -0.100 A 
ATOM     11  C   LIG    1       -3.275   4.849   2.217  0.00  0.00    -0.010 A 
ATOM     12  C   LIG    1       -3.371   5.315   3.516  0.00  0.00    +0.030 A 
ATOM     13  C   LIG    1       -2.587   6.376   3.930  0.00  0.00    +0.070 A 
ATOM     14  C   LIG    1       -1.703   6.968   3.048  0.00  0.00    +0.030 A 
ATOM     15 CL   LIG    1       -4.265   3.522   1.695  0.00  0.00    -0.050 Cl
ATOM     16  C   LIG    1       -1.601   6.498   1.750  0.00  0.00    -0.000 A 
ATOM     17 CL   LIG    1       -0.489   7.241   0.643  0.00  0.00    -0.030 Cl
ENDBRANCH   9  10
ENDBRANCH   5   9
ENDBRANCH   1   8
BRANCH   1  18
ATOM     18  N   LIG    1        0.672   0.263   1.160  0.00  0.00    -0.670 NA
ATOM     19  H   LIG    1       -0.113   0.453   1.764  0.00  0.00    +0.350 HD
BRANCH  18  20
ATOM     20  C   LIG    1        1.046  -1.157   1.212  0.00  0.00    +0.220 C 
BRANCH  20  21
ATOM     21  C   LIG    1        1.329  -1.549   2.640  0.00  0.00    +0.520 C 
ATOM     22  N   LIG    1        1.692  -2.814   2.931  0.00  0.00    -0.670 N 
ATOM     23  H   LIG    1        1.720  -3.484   2.231  0.00  0.00    +0.420 HD
ATOM     24  O   LIG    1        1.229  -0.727   3.526  0.00  0.00    -0.500 OA
BRANCH  22  25
ATOM     25  C   LIG    1        2.030  -3.160   4.247  0.00  0.00    +0.140 A 
ATOM     26  C   LIG    1        1.447  -2.490   5.313  0.00  0.00    +0.090 A 
ATOM     27  C   LIG    1        1.780  -2.831   6.610  0.00  0.00    +0.050 A 
ATOM     28  C   LIG    1        2.695  -3.843   6.848  0.00  0.00    +0.080 A 
ATOM     29  C   LIG    1        3.280  -4.516   5.786  0.00  0.00    +0.060 A 
ATOM     30  F   LIG    1        4.172  -5.502   6.020  0.00  0.00    -0.110 F 
ATOM     31  F   LIG    1        3.018  -4.175   8.117  0.00  0.00    -0.120 F 
ATOM     32  C   LIG    1        2.944  -4.179   4.485  0.00  0.00    +0.060 A 
ATOM     33  F   LIG    1        3.509  -4.838   3.449  0.00  0.00    -0.120 F 
ENDBRANCH  22  25
ENDBRANCH  20  21
ENDBRANCH  18  20
ENDBRANCH   1  18
TORSDOF 7
