REMARK  Name = ZINCrD00000F5LHY.0
REMARK                            x       y       z     vdW  Elec       q    Type
REMARK                         _______ _______ _______ _____ _____    ______ ____
ROOT
ATOM      1  C   LIG    1       -1.503   3.517   0.086  0.00  0.00    +0.180 C 
ATOM      2  C   LIG    1       -0.792   3.042  -1.183  0.00  0.00    +0.150 C 
ATOM      3  N   LIG    1       -0.725   1.574  -1.182  0.00  0.00    -0.520 NA
ATOM      4  C   LIG    1       -0.013   1.086   0.008  0.00  0.00    +0.140 C 
ATOM      5  C   LIG    1       -0.731   1.580   1.266  0.00  0.00    +0.230 C 
ATOM      6  O   LIG    1       -0.815   3.008   1.231  0.00  0.00    -0.380 OA
ENDROOT
BRANCH   1   7
ATOM      7  C   LIG    1       -1.505   5.047   0.129  0.00  0.00    +0.170 C 
BRANCH   7  10
ATOM      8  N   LIG    1       -2.945   6.485   3.141  0.00  0.00    -0.290 N 
ATOM      9  C   LIG    1       -1.895   6.345   2.298  0.00  0.00    +0.150 A 
ATOM     10  C   LIG    1       -2.311   5.515   1.313  0.00  0.00    -0.010 A 
ATOM     11  N   LIG    1       -3.579   5.197   1.595  0.00  0.00    -0.260 NA
ATOM     12  N   LIG    1       -3.923   5.783   2.687  0.00  0.00    -0.080 NA
BRANCH   8  13
ATOM     13  C   LIG    1       -2.963   7.296   4.361  0.00  0.00    +0.320 C 
BRANCH  13  14
ATOM     14  C   LIG    1       -4.131   8.283   4.300  0.00  0.00    +0.020 C 
BRANCH  14  15
ATOM     15  C   LIG    1       -4.151   9.130   5.574  0.00  0.00    +0.020 C 
BRANCH  15  17
ATOM     16  C   LIG    1       -5.338  10.963   6.786  0.00  0.00    +0.010 C 
ATOM     17  C   LIG    1       -5.318  10.117   5.512  0.00  0.00    +0.000 C 
ENDBRANCH  15  17
ENDBRANCH  14  15
ENDBRANCH  13  14
ENDBRANCH   8  13
ENDBRANCH   7  10
ENDBRANCH   1   7
BRANCH   3  18
ATOM     18  C   LIG    1       -0.099   1.073  -2.413  0.00  0.00    +0.300 C 
BRANCH  18  19
ATOM     19  C   LIG    1        1.279   1.667  -2.552  0.00  0.00    -0.210 A 
ATOM     20  C   LIG    1        1.453   2.861  -3.230  0.00  0.00    +0.170 A 
ATOM     21  C   LIG    1        2.719   3.409  -3.354  0.00  0.00    -0.040 A 
ATOM     22  C   LIG    1        3.811   2.757  -2.808  0.00  0.00    +0.170 A 
ATOM     23  C   LIG    1        3.638   1.560  -2.135  0.00  0.00    -0.040 A 
ATOM     24  F   LIG    1        5.047   3.288  -2.934  0.00  0.00    -0.120 F 
ATOM     25  F   LIG    1        0.388   3.494  -3.768  0.00  0.00    -0.120 F 
ATOM     26  C   LIG    1        2.372   1.015  -2.006  0.00  0.00    +0.170 A 
ATOM     27  F   LIG    1        2.203  -0.153  -1.349  0.00  0.00    -0.120 F 
ENDBRANCH  18  19
ENDBRANCH   3  18
TORSDOF 8
