REMARK  Name = ZINCrD00000hQ4Y0.0
REMARK                            x       y       z     vdW  Elec       q    Type
REMARK                         _______ _______ _______ _____ _____    ______ ____
ROOT
ATOM      1  N   LIG    1        1.248   1.870   0.000  0.00  0.00    -0.850 N 
ATOM      2  N   LIG    1       -0.015   1.284   0.009  0.00  0.00    -0.210 NA
ATOM      3  C   LIG    1        0.002  -0.004   0.002  0.00  0.00    +0.140 C 
ATOM      4  C   LIG    1        1.434  -0.490  -0.014  0.00  0.00    +0.110 C 
ATOM      5  C   LIG    1        2.266   0.808  -0.015  0.00  0.00    +0.280 C 
ENDROOT
BRANCH   3   6
ATOM      6  C   LIG    1       -1.191  -0.871   0.009  0.00  0.00    -0.090 A 
ATOM      7  C   LIG    1       -2.476  -0.315   0.024  0.00  0.00    +0.110 A 
ATOM      8  C   LIG    1       -3.562  -1.173   0.030  0.00  0.00    -0.030 A 
ATOM      9  C   LIG    1       -3.346  -2.539   0.021  0.00  0.00    +0.270 A 
ATOM     10  N   LIG    1       -2.124  -3.036   0.007  0.00  0.00    -0.480 NA
ATOM     11  C   LIG    1       -1.058  -2.262  -0.005  0.00  0.00    +0.290 A 
ENDBRANCH   3   6
BRANCH   5  12
ATOM     12  C   LIG    1        3.131   0.884   1.216  0.00  0.00    -0.120 A 
ATOM     13  C   LIG    1        2.690   1.573   2.329  0.00  0.00    +0.020 A 
ATOM     14  C   LIG    1        3.483   1.643   3.460  0.00  0.00    +0.010 A 
ATOM     15  C   LIG    1        4.720   1.024   3.479  0.00  0.00    +0.030 A 
ATOM     16  C   LIG    1        5.165   0.334   2.369  0.00  0.00    -0.010 A 
ATOM     17  C   LIG    1        4.369   0.257   1.235  0.00  0.00    +0.120 A 
BRANCH  17  18
ATOM     18  O   LIG    1        4.803  -0.426   0.143  0.00  0.00    -0.500 OA
ATOM     19  H   LIG    1        5.306   0.113  -0.483  0.00  0.00    +0.390 HD
ENDBRANCH  17  18
ENDBRANCH   5  12
BRANCH   1  21
ATOM     20  O   LIG    1        0.459   4.111   0.670  0.00  0.00    -0.930 OA
ATOM     21  S   LIG    1        1.555   3.498   0.005  0.00  0.00    +2.710 S 
ATOM     22  O   LIG    1        2.904   3.651   0.426  0.00  0.00    -0.930 OA
BRANCH  21  23
ATOM     23  C   LIG    1        1.491   4.046  -1.668  0.00  0.00    -0.680 A 
ATOM     24  C   LIG    1        2.638   4.046  -2.440  0.00  0.00    +0.120 A 
ATOM     25  C   LIG    1        2.587   4.471  -3.754  0.00  0.00    +0.000 A 
ATOM     26  C   LIG    1        1.391   4.906  -4.294  0.00  0.00    +0.070 A 
ATOM     27  C   LIG    1        0.245   4.911  -3.521  0.00  0.00    +0.000 A 
ATOM     28  C   LIG    1        0.295   4.481  -2.208  0.00  0.00    +0.130 A 
ENDBRANCH  21  23
ENDBRANCH   1  21
TORSDOF 5
