REMARK  Name = ZINCpe000000TZPT.0
REMARK                            x       y       z     vdW  Elec       q    Type
REMARK                         _______ _______ _______ _____ _____    ______ ____
ROOT
ATOM      1  C   LIG    1       -2.464   0.855   0.435  0.00  0.00    -0.000 A 
ATOM      2  C   LIG    1       -3.703   1.523   0.322  0.00  0.00    -0.180 A 
ATOM      3  C   LIG    1       -4.081   2.881   0.262  0.00  0.00    +0.120 A 
ATOM      4  N   LIG    1       -5.378   2.947   0.157  0.00  0.00    -0.240 NA
ATOM      5  N   LIG    1       -5.918   1.656   0.142  0.00  0.00    -0.390 N 
ATOM      6  C   LIG    1       -7.340   1.321   0.036  0.00  0.00    +0.360 C 
ATOM      7  C   LIG    1       -3.141   4.059   0.311  0.00  0.00    +0.190 C 
ATOM      8  C   LIG    1       -4.886   0.759   0.244  0.00  0.00    +0.320 A 
ATOM      9  N   LIG    1       -4.828  -0.564   0.279  0.00  0.00    -0.480 NA
ATOM     10  C   LIG    1       -3.688  -1.209   0.385  0.00  0.00    +0.230 A 
ATOM     11  C   LIG    1       -2.476  -0.538   0.460  0.00  0.00    -0.030 A 
ENDROOT
BRANCH   1  14
ATOM     12  N   LIG    1       -0.040   0.959   0.765  0.00  0.00    -0.720 N 
ATOM     13  H   LIG    1       -0.042  -0.003   0.887  0.00  0.00    +0.400 HD
ATOM     14  C   LIG    1       -1.195   1.609   0.520  0.00  0.00    +0.560 C 
ATOM     15  O   LIG    1       -1.193   2.815   0.367  0.00  0.00    -0.510 OA
BRANCH  12  16
ATOM     16  C   LIG    1        1.218   1.705   0.843  0.00  0.00    +0.270 C 
BRANCH  16  17
ATOM     17  C   LIG    1        2.369   0.737   1.123  0.00  0.00    +0.260 C 
BRANCH  17  18
ATOM     18  N   LIG    1        3.627   1.483   1.200  0.00  0.00    -1.120 NA
ATOM     19  H   LIG    1        3.672   2.394   0.870  0.00  0.00    +0.420 HD
BRANCH  18  20
ATOM     20  S   LIG    1        4.973   0.772   1.851  0.00  0.00    +2.610 S 
ATOM     21  O   LIG    1        4.530   0.262   3.102  0.00  0.00    -0.950 OA
ATOM     22  O   LIG    1        5.971   1.781   1.784  0.00  0.00    -0.950 OA
BRANCH  20  24
ATOM     23  C   LIG    1        6.604  -1.330   1.213  0.00  0.00    +0.070 C 
ATOM     24  C   LIG    1        5.364  -0.586   0.713  0.00  0.00    -0.370 C 
ENDBRANCH  20  24
ENDBRANCH  18  20
ENDBRANCH  17  18
ENDBRANCH  16  17
ENDBRANCH  12  16
ENDBRANCH   1  14
BRANCH  10  25
ATOM     25  C   LIG    1       -3.696  -2.716   0.418  0.00  0.00    +0.020 C 
ATOM     26  C   LIG    1       -2.371  -3.435   0.159  0.00  0.00    +0.040 C 
ATOM     27  C   LIG    1       -3.472  -3.453  -0.904  0.00  0.00    +0.050 C 
ENDBRANCH  10  25
TORSDOF 7
