REMARK  Name = ZINCpk00000y6uLe.0
REMARK                            x       y       z     vdW  Elec       q    Type
REMARK                         _______ _______ _______ _____ _____    ______ ____
ROOT
ATOM      1  C   LIG    1        0.205   1.009   0.044  0.00  0.00    +0.190 C 
ATOM      2  C   LIG    1       -0.507   1.588   1.285  0.00  0.00    +0.120 C 
ATOM      3  N   LIG    1        0.583   1.824   2.267  0.00  0.00    -0.500 NA
ATOM      4  C   LIG    1        1.707   2.344   1.445  0.00  0.00    +0.190 C 
ATOM      5  C   LIG    1        1.662   1.506   0.150  0.00  0.00    +0.000 C 
ATOM      6  C   LIG    1        2.622   0.319   0.251  0.00  0.00    +0.040 C 
ENDROOT
BRANCH   1  12
ATOM      7  C   LIG    1       -3.125   5.079  -3.374  0.00  0.00    +0.100 C 
ATOM      8  C   LIG    1       -3.267   3.585  -3.235  0.00  0.00    +0.510 C 
ATOM      9  N   LIG    1       -2.208   2.840  -2.861  0.00  0.00    -0.620 N 
ATOM     10  C   LIG    1       -2.324   1.380  -2.719  0.00  0.00    +0.300 C 
ATOM     11  C   LIG    1       -1.778   0.980  -1.344  0.00  0.00    +0.170 C 
ATOM     12  N   LIG    1       -0.418   1.513  -1.186  0.00  0.00    -0.520 NA
ATOM     13  C   LIG    1       -0.415   2.982  -1.214  0.00  0.00    +0.160 C 
ATOM     14  C   LIG    1       -0.905   3.464  -2.584  0.00  0.00    +0.280 C 
ATOM     15  O   LIG    1       -4.333   3.053  -3.459  0.00  0.00    -0.540 OA
ENDBRANCH   1  12
BRANCH   3  16
ATOM     16  C   LIG    1        0.175   2.805   3.281  0.00  0.00    +0.260 C 
ATOM     17  C   LIG    1        1.325   3.030   4.265  0.00  0.00    +0.080 C 
BRANCH  16  18
ATOM     18  C   LIG    1       -1.029   2.287   4.025  0.00  0.00    +0.190 A 
ATOM     19  N   LIG    1       -2.118   2.959   4.313  0.00  0.00    -0.480 NA
ATOM     20  C   LIG    1       -2.910   2.098   4.976  0.00  0.00    +0.200 A 
ATOM     21  N   LIG    1       -2.271   0.970   5.063  0.00  0.00    -0.380 NA
ATOM     22  O   LIG    1       -1.188   1.057   4.523  0.00  0.00    +0.100 OA
BRANCH  20  23
ATOM     23  C   LIG    1       -4.283   2.389   5.523  0.00  0.00    +0.060 C 
ATOM     24  C   LIG    1       -4.924   1.332   6.425  0.00  0.00    +0.050 C 
ATOM     25  C   LIG    1       -5.446   1.542   5.002  0.00  0.00    +0.050 C 
ENDBRANCH  20  23
ENDBRANCH  16  18
ENDBRANCH   3  16
TORSDOF 4
