REMARK  Name = ZINCqH0000032hai.0
REMARK                            x       y       z     vdW  Elec       q    Type
REMARK                         _______ _______ _______ _____ _____    ______ ____
ROOT
ATOM      1  N   LIG    1        1.356   2.400   0.077  0.00  0.00    -0.600 N 
ATOM      2  C   LIG    1        0.280   1.592   0.013  0.00  0.00    +0.600 C 
ATOM      3  O   LIG    1        0.417   0.418  -0.277  0.00  0.00    -0.490 OA
ENDROOT
BRANCH   2   4
ATOM      4  C   LIG    1       -1.058   2.128   0.285  0.00  0.00    -0.060 A 
ATOM      5  C   LIG    1       -2.207   1.399   0.396  0.00  0.00    +0.050 A 
ATOM      6  C   LIG    1       -3.240   2.312   0.660  0.00  0.00    -0.020 A 
ATOM      7  C   LIG    1       -2.683   3.542   0.698  0.00  0.00    +0.010 A 
ATOM      8  O   LIG    1       -1.367   3.427   0.477  0.00  0.00    -0.150 OA
BRANCH   7   9
ATOM      9  C   LIG    1       -3.421   4.832   0.953  0.00  0.00    +0.230 C 
BRANCH   9  10
ATOM     10  S   LIG    1       -3.443   5.172   2.730  0.00  0.00    -0.000 S 
BRANCH  10  11
ATOM     11  C   LIG    1       -4.340   6.689   2.740  0.00  0.00    +0.180 A 
ATOM     12  N   LIG    1       -4.808   7.311   1.683  0.00  0.00    -0.490 NA
ATOM     13  C   LIG    1       -5.439   8.432   2.070  0.00  0.00    +0.160 A 
ATOM     14  C   LIG    1       -5.357   8.523   3.409  0.00  0.00    +0.140 A 
ATOM     15  N   LIG    1       -4.660   7.418   3.844  0.00  0.00    -0.450 N 
ATOM     16  C   LIG    1       -4.326   7.090   5.232  0.00  0.00    +0.330 C 
ENDBRANCH  10  11
ENDBRANCH   9  10
ENDBRANCH   7   9
ENDBRANCH   2   4
BRANCH   1  18
ATOM     17  C   LIG    1        2.081   4.238   1.519  0.00  0.00    +0.030 C 
ATOM     18  C   LIG    1        1.183   3.829   0.350  0.00  0.00    +0.230 C 
ATOM     19  C   LIG    1        1.565   4.636  -0.893  0.00  0.00    +0.030 C 
ENDBRANCH   1  18
BRANCH   1  20
ATOM     20  C   LIG    1        2.699   1.851  -0.125  0.00  0.00    +0.370 C 
BRANCH  20  21
ATOM     21  C   LIG    1        2.990   1.767  -1.602  0.00  0.00    +0.110 A 
ATOM     22  C   LIG    1        3.692   2.785  -2.218  0.00  0.00    -0.020 A 
ATOM     23  C   LIG    1        3.955   2.698  -3.577  0.00  0.00    +0.050 A 
ATOM     24  C   LIG    1        3.499   1.586  -4.267  0.00  0.00    -0.030 A 
ATOM     25  C   LIG    1        2.803   0.608  -3.583  0.00  0.00    +0.260 A 
ATOM     26  N   LIG    1        2.576   0.721  -2.289  0.00  0.00    -0.450 NA
ENDBRANCH  20  21
ENDBRANCH   1  20
TORSDOF 7
