REMARK  Name = ZINCrH000004nop1.0
REMARK                            x       y       z     vdW  Elec       q    Type
REMARK                         _______ _______ _______ _____ _____    ______ ____
ROOT
ATOM      1  N   LIG    1       -2.874   1.709  -0.311  0.00  0.00    -0.730 N 
ATOM      2  H   LIG    1       -2.482   0.822  -0.311  0.00  0.00    +0.410 HD
ENDROOT
BRANCH   1   3
ATOM      3  C   LIG    1       -4.262   1.860  -0.221  0.00  0.00    +0.260 A 
ATOM      4  C   LIG    1       -4.824   3.130  -0.222  0.00  0.00    -0.040 A 
ATOM      5  C   LIG    1       -6.194   3.278  -0.133  0.00  0.00    +0.110 A 
ATOM      6  C   LIG    1       -7.010   2.158  -0.044  0.00  0.00    +0.080 A 
ATOM      7  C   LIG    1       -6.448   0.888  -0.043  0.00  0.00    +0.090 A 
ATOM      8  C   LIG    1       -5.079   0.739  -0.137  0.00  0.00    -0.240 A 
BRANCH   6   9
ATOM      9  N   LIG    1       -8.400   2.309   0.046  0.00  0.00    -0.670 N 
ATOM     10  H   LIG    1       -8.921   1.693   0.584  0.00  0.00    +0.410 HD
ATOM     11  C   LIG    1       -9.013   3.311  -0.616  0.00  0.00    +0.510 C 
ATOM     12  O   LIG    1       -8.355   4.130  -1.220  0.00  0.00    -0.530 OA
ATOM     13  C   LIG    1      -10.517   3.412  -0.604  0.00  0.00    +0.110 C 
ENDBRANCH   6   9
BRANCH   8  14
ATOM     14  C   LIG    1       -4.469  -0.639  -0.143  0.00  0.00    +0.510 C 
ATOM     15  F   LIG    1       -3.602  -0.771   0.947  0.00  0.00    -0.180 F 
ATOM     16  F   LIG    1       -3.757  -0.829  -1.332  0.00  0.00    -0.180 F 
ATOM     17  F   LIG    1       -5.484  -1.598  -0.050  0.00  0.00    -0.180 F 
ENDBRANCH   8  14
ENDBRANCH   1   3
BRANCH   1  18
ATOM     18  C   LIG    1       -2.014   2.891  -0.406  0.00  0.00    +0.310 C 
BRANCH  18  21
ATOM     19  N   LIG    1        0.404   3.381  -0.591  0.00  0.00    -0.670 N 
ATOM     20  H   LIG    1        0.177   4.320  -0.672  0.00  0.00    +0.420 HD
ATOM     21  C   LIG    1       -0.573   2.457  -0.491  0.00  0.00    +0.510 C 
ATOM     22  O   LIG    1       -0.292   1.277  -0.474  0.00  0.00    -0.500 OA
BRANCH  19  27
ATOM     23  C   LIG    1        3.452   1.397  -1.155  0.00  0.00    +0.150 A 
ATOM     24  C   LIG    1        4.404   2.205  -0.549  0.00  0.00    -0.090 A 
ATOM     25  C   LIG    1        4.027   3.397   0.039  0.00  0.00    +0.070 A 
ATOM     26  C   LIG    1        2.704   3.791   0.022  0.00  0.00    -0.050 A 
ATOM     27  C   LIG    1        1.746   2.984  -0.578  0.00  0.00    +0.180 A 
ATOM     28  C   LIG    1        2.122   1.787  -1.170  0.00  0.00    +0.000 A 
BRANCH  23  30
ATOM     29  C   LIG    1        5.211  -0.113  -1.681  0.00  0.00    +0.250 C 
ATOM     30  O   LIG    1        3.824   0.225  -1.734  0.00  0.00    -0.310 OA
ENDBRANCH  23  30
ENDBRANCH  19  27
ENDBRANCH  18  21
ENDBRANCH   1  18
TORSDOF 7
