REMARK  Name = ZINCbw0000000Hk7.0
REMARK                            x       y       z     vdW  Elec       q    Type
REMARK                         _______ _______ _______ _____ _____    ______ ____
ROOT
ATOM      1  C   LIG    1        5.006   2.774  -0.033  0.00  0.00    +0.150 C 
ATOM      2  C   LIG    1        3.515   2.994  -0.016  0.00  0.00    -0.180 A 
ATOM      3  C   LIG    1        2.617   2.027  -0.013  0.00  0.00    +0.100 A 
ATOM      4  C   LIG    1        1.240   2.477   0.004  0.00  0.00    -0.150 A 
ATOM      5  C   LIG    1        1.139   3.858   0.012  0.00  0.00    +0.050 A 
ATOM      6  N   LIG    1       -0.114   4.435   0.028  0.00  0.00    -0.570 N 
ATOM      7  H   LIG    1       -0.194   5.401   0.034  0.00  0.00    +0.430 HD
ATOM      8  C   LIG    1       -1.224   3.678   0.035  0.00  0.00    +0.640 A 
ATOM      9  N   LIG    1       -1.187   2.376   0.021  0.00  0.00    -0.510 NA
ATOM     10  C   LIG    1       -0.021   1.708   0.011  0.00  0.00    +0.340 A 
ATOM     11  S   LIG    1        0.002  -0.004   0.002  0.00  0.00    -0.490 S 
ATOM     12  S   LIG    1        2.746   4.571  -0.000  0.00  0.00    +0.190 S 
ENDROOT
TORSDOF 0
