REMARK  Name = ZINCvU0000000AJr.0
REMARK                            x       y       z     vdW  Elec       q    Type
REMARK                         _______ _______ _______ _____ _____    ______ ____
ROOT
ATOM      1  C   LIG    1       -2.788   6.056   0.547  0.00  0.00    +0.370 A 
ATOM      2  N   LIG    1       -1.560   6.516   0.564  0.00  0.00    -0.510 NA
ATOM      3  C   LIG    1       -1.259   7.742   0.092  0.00  0.00    +0.090 A 
ATOM      4  C   LIG    1       -2.270   8.552  -0.421  0.00  0.00    -0.240 A 
ATOM      5  C   LIG    1       -3.601   8.038  -0.428  0.00  0.00    +0.570 A 
ATOM      6  O   LIG    1       -4.521   8.707  -0.865  0.00  0.00    -0.500 OA
ATOM      7  C   LIG    1       -1.764   9.833  -0.877  0.00  0.00    +0.090 A 
ATOM      8  C   LIG    1       -0.464  10.000  -0.728  0.00  0.00    -0.050 A 
ATOM      9  S   LIG    1        0.281   8.587  -0.006  0.00  0.00    +0.200 S 
ATOM     10  N   LIG    1       -3.824   6.801   0.057  0.00  0.00    -0.470 N 
ENDROOT
BRANCH  10  11
ATOM     11  C   LIG    1       -5.123   6.276   0.060  0.00  0.00    +0.090 A 
ATOM     12  C   LIG    1       -5.585   5.556  -1.034  0.00  0.00    +0.040 A 
ATOM     13  C   LIG    1       -6.864   5.035  -1.025  0.00  0.00    +0.030 A 
ATOM     14  C   LIG    1       -7.689   5.240   0.066  0.00  0.00    +0.040 A 
ATOM     15  C   LIG    1       -7.234   5.962   1.154  0.00  0.00    +0.030 A 
ATOM     16  C   LIG    1       -5.953   6.480   1.154  0.00  0.00    +0.040 A 
ENDBRANCH  10  11
BRANCH   1  17
ATOM     17  S   LIG    1       -3.111   4.441   1.175  0.00  0.00    +0.090 S 
BRANCH  17  18
ATOM     18  C   LIG    1       -1.437   3.954   1.663  0.00  0.00    +0.100 C 
BRANCH  18  19
ATOM     19  C   LIG    1       -1.469   2.564   2.245  0.00  0.00    +0.410 C 
ATOM     20  O   LIG    1       -2.519   1.963   2.323  0.00  0.00    -0.420 OA
BRANCH  19  26
ATOM     21  C   LIG    1        3.457   2.771   2.966  0.00  0.00    +0.100 C 
ATOM     22  C   LIG    1        2.148   2.030   3.067  0.00  0.00    -0.120 A 
ATOM     23  C   LIG    1        2.119   0.752   3.603  0.00  0.00    +0.100 A 
ATOM     24  C   LIG    1        0.927   0.061   3.701  0.00  0.00    -0.060 A 
ATOM     25  C   LIG    1       -0.252   0.643   3.263  0.00  0.00    +0.160 A 
ATOM     26  C   LIG    1       -0.228   1.938   2.719  0.00  0.00    -0.180 A 
ATOM     27  C   LIG    1        0.988   2.626   2.626  0.00  0.00    +0.100 A 
BRANCH  25  28
ATOM     28  O   LIG    1       -1.423  -0.034   3.358  0.00  0.00    -0.290 OA
BRANCH  28  29
ATOM     29  C   LIG    1       -1.369  -1.346   3.922  0.00  0.00    +0.600 C 
ATOM     30  F   LIG    1       -0.870  -1.273   5.227  0.00  0.00    -0.200 F 
ATOM     31  F   LIG    1       -0.530  -2.153   3.146  0.00  0.00    -0.200 F 
ENDBRANCH  28  29
ENDBRANCH  25  28
ENDBRANCH  19  26
ENDBRANCH  18  19
ENDBRANCH  17  18
ENDBRANCH   1  17
TORSDOF 7
