REMARK  Name = ZINCqH0000032vjU.1
REMARK                            x       y       z     vdW  Elec       q    Type
REMARK                         _______ _______ _______ _____ _____    ______ ____
ROOT
ATOM      1  N   LIG    1       -3.959  -0.701   3.897  0.00  0.00    -0.740 N 
ATOM      2  H   LIG    1       -3.687  -1.379   3.259  0.00  0.00    +0.400 HD
ATOM      3  C   LIG    1       -3.899   0.603   3.560  0.00  0.00    +0.730 C 
ATOM      4  N   LIG    1       -3.462   0.964   2.337  0.00  0.00    -0.660 N 
ATOM      5  C   LIG    1       -2.983   0.224   1.151  0.00  0.00    +0.280 C 
ATOM      6  C   LIG    1       -2.255   1.516   0.782  0.00  0.00    -0.080 C 
ATOM      7  C   LIG    1       -0.788   1.611   1.244  0.00  0.00    +0.050 C 
ATOM      8  C   LIG    1       -0.013   1.086   0.008  0.00  0.00    +0.010 C 
ATOM      9  C   LIG    1       -0.808   1.621  -1.202  0.00  0.00    +0.010 C 
ATOM     10  C   LIG    1       -2.244   1.881  -0.705  0.00  0.00    +0.030 C 
ATOM     11  C   LIG    1       -3.271   2.257   1.648  0.00  0.00    +0.310 C 
ATOM     12  O   LIG    1       -4.240   1.453   4.360  0.00  0.00    -0.570 OA
ENDROOT
BRANCH  11  13
ATOM     13  C   LIG    1       -2.663   3.327   2.519  0.00  0.00    -0.090 A 
ATOM     14  C   LIG    1       -2.044   2.983   3.706  0.00  0.00    +0.050 A 
ATOM     15  C   LIG    1       -1.484   3.964   4.503  0.00  0.00    +0.000 A 
ATOM     16  C   LIG    1       -1.549   5.290   4.116  0.00  0.00    +0.000 A 
ATOM     17  C   LIG    1       -2.173   5.634   2.932  0.00  0.00    -0.010 A 
ATOM     18  C   LIG    1       -2.730   4.653   2.133  0.00  0.00    +0.010 A 
ENDBRANCH  11  13
BRANCH   1  19
ATOM     19  C   LIG    1       -4.434  -1.094   5.226  0.00  0.00    +0.430 C 
BRANCH  19  22
ATOM     20  C   LIG    1       -3.678  -4.588   5.764  0.00  0.00    +0.300 A 
ATOM     21  N   LIG    1       -3.372  -3.316   5.787  0.00  0.00    -0.530 NA
ATOM     22  C   LIG    1       -4.403  -2.596   5.347  0.00  0.00    +0.210 A 
ATOM     23  N   LIG    1       -5.385  -3.402   5.042  0.00  0.00    -0.290 NA
ATOM     24  N   LIG    1       -4.934  -4.707   5.301  0.00  0.00    -0.470 N 
ATOM     25  H   LIG    1       -5.431  -5.530   5.174  0.00  0.00    +0.440 HD
BRANCH  20  27
ATOM     26  C   LIG    1       -3.070  -6.089   7.642  0.00  0.00    +0.060 C 
ATOM     27  C   LIG    1       -2.779  -5.722   6.186  0.00  0.00    +0.090 C 
ATOM     28  C   LIG    1       -3.036  -6.936   5.292  0.00  0.00    +0.040 C 
ENDBRANCH  20  27
ENDBRANCH  19  22
ENDBRANCH   1  19
TORSDOF 4
