REMARK  Name = ZINCqH0000032vjU.0
REMARK                            x       y       z     vdW  Elec       q    Type
REMARK                         _______ _______ _______ _____ _____    ______ ____
ROOT
ATOM      1  N   LIG    1       -0.813   4.418   4.884  0.00  0.00    -0.740 N 
ATOM      2  H   LIG    1       -0.758   4.982   4.097  0.00  0.00    +0.400 HD
ATOM      3  C   LIG    1       -0.674   4.957   6.111  0.00  0.00    +0.740 C 
ATOM      4  N   LIG    1       -0.460   6.281   6.245  0.00  0.00    -0.650 N 
ATOM      5  C   LIG    1       -0.312   7.427   5.332  0.00  0.00    +0.270 C 
ATOM      6  C   LIG    1       -0.813   8.316   6.469  0.00  0.00    -0.080 C 
ATOM      7  C   LIG    1       -0.129   9.683   6.594  0.00  0.00    +0.050 C 
ATOM      8  C   LIG    1       -1.218  10.688   6.138  0.00  0.00    +0.020 C 
ATOM      9  C   LIG    1       -2.520  10.069   6.707  0.00  0.00    +0.020 C 
ATOM     10  C   LIG    1       -2.324   8.546   6.534  0.00  0.00    +0.040 C 
ATOM     11  C   LIG    1       -0.264   7.213   7.368  0.00  0.00    +0.310 C 
ATOM     12  O   LIG    1       -0.743   4.250   7.098  0.00  0.00    -0.580 OA
ENDROOT
BRANCH  11  13
ATOM     13  C   LIG    1        1.183   7.407   7.742  0.00  0.00    -0.090 A 
ATOM     14  C   LIG    1        2.179   7.099   6.835  0.00  0.00    +0.010 A 
ATOM     15  C   LIG    1        3.506   7.282   7.177  0.00  0.00    +0.000 A 
ATOM     16  C   LIG    1        3.837   7.764   8.429  0.00  0.00    +0.000 A 
ATOM     17  C   LIG    1        2.841   8.067   9.339  0.00  0.00    +0.000 A 
ATOM     18  C   LIG    1        1.514   7.888   8.995  0.00  0.00    +0.020 A 
ENDBRANCH  11  13
BRANCH   1  19
ATOM     19  C   LIG    1       -1.046   2.978   4.739  0.00  0.00    +0.430 C 
BRANCH  19  23
ATOM     20  C   LIG    1       -0.724   2.012   1.250  0.00  0.00    +0.200 A 
ATOM     21  N   LIG    1       -1.984   2.338   1.346  0.00  0.00    -0.290 NA
ATOM     22  N   LIG    1       -2.246   2.708   2.549  0.00  0.00    -0.260 NA
ATOM     23  C   LIG    1       -1.164   2.634   3.276  0.00  0.00    +0.150 A 
ATOM     24  N   LIG    1       -0.169   2.185   2.474  0.00  0.00    -0.570 N 
ATOM     25  H   LIG    1        0.754   2.023   2.724  0.00  0.00    +0.430 HD
BRANCH  20  27
ATOM     26  C   LIG    1        0.002  -0.004   0.002  0.00  0.00    +0.050 C 
ATOM     27  C   LIG    1       -0.019   1.526   0.010  0.00  0.00    +0.100 C 
ATOM     28  C   LIG    1        1.417   2.055  -0.000  0.00  0.00    +0.040 C 
ENDBRANCH  20  27
ENDBRANCH  19  23
ENDBRANCH   1  19
TORSDOF 4
