REMARK  Name = ZINCrH000004rbwh.0
REMARK                            x       y       z     vdW  Elec       q    Type
REMARK                         _______ _______ _______ _____ _____    ______ ____
ROOT
ATOM      1  C   LIG    1        1.230   2.032  -0.508  0.00  0.00    -0.200 A 
ATOM      2  C   LIG    1        0.187   1.440  -1.226  0.00  0.00    +0.120 A 
ATOM      3  C   LIG    1       -0.896   2.196  -1.613  0.00  0.00    -0.080 A 
ATOM      4  C   LIG    1       -0.958   3.547  -1.280  0.00  0.00    +0.240 A 
ATOM      5  C   LIG    1        0.079   4.139  -0.565  0.00  0.00    -0.070 A 
ATOM      6  C   LIG    1        1.167   3.389  -0.180  0.00  0.00    +0.080 A 
ENDROOT
BRANCH   1   8
ATOM      7  N   LIG    1        3.630   1.762  -0.124  0.00  0.00    -0.580 N 
ATOM      8  C   LIG    1        2.395   1.225  -0.097  0.00  0.00    +0.570 C 
ATOM      9  O   LIG    1        2.240   0.075   0.268  0.00  0.00    -0.530 OA
BRANCH   7  10
ATOM     10  C   LIG    1        4.802   0.917   0.117  0.00  0.00    +0.200 C 
ATOM     11  C   LIG    1        4.619  -0.597  -0.004  0.00  0.00    +0.030 C 
ATOM     12  C   LIG    1        4.797   0.044   1.373  0.00  0.00    +0.010 C 
ENDBRANCH   7  10
BRANCH   7  13
ATOM     13  C   LIG    1        3.801   3.192  -0.396  0.00  0.00    +0.400 C 
BRANCH  13  18
ATOM     14  C   LIG    1        3.797   5.658   4.004  0.00  0.00    +0.180 C 
ATOM     15  C   LIG    1        4.288   4.957   2.763  0.00  0.00    -0.000 A 
ATOM     16  C   LIG    1        5.575   4.757   2.430  0.00  0.00    -0.060 A 
ATOM     17  C   LIG    1        5.577   4.061   1.199  0.00  0.00    -0.030 A 
ATOM     18  C   LIG    1        4.290   3.885   0.850  0.00  0.00    -0.040 A 
ATOM     19  O   LIG    1        3.513   4.427   1.802  0.00  0.00    -0.170 OA
ENDBRANCH  13  18
ENDBRANCH   7  13
ENDBRANCH   1   8
BRANCH   4  20
ATOM     20  N   LIG    1       -2.056   4.307  -1.667  0.00  0.00    -0.730 N 
ATOM     21  H   LIG    1       -2.099   5.249  -1.439  0.00  0.00    +0.400 HD
BRANCH  20  22
ATOM     22  C   LIG    1       -3.149   3.685  -2.420  0.00  0.00    +0.340 C 
BRANCH  22  23
ATOM     23  C   LIG    1       -4.207   4.717  -2.714  0.00  0.00    -0.270 A 
ATOM     24  C   LIG    1       -4.262   5.512  -3.807  0.00  0.00    +0.260 A 
ATOM     25  N   LIG    1       -5.357   6.293  -3.694  0.00  0.00    -0.370 N 
ATOM     26  N   LIG    1       -5.996   5.966  -2.490  0.00  0.00    -0.290 NA
ATOM     27  C   LIG    1       -5.800   7.302  -4.659  0.00  0.00    +0.360 C 
ATOM     28  C   LIG    1       -5.309   5.018  -1.907  0.00  0.00    +0.260 A 
ENDBRANCH  22  23
ENDBRANCH  20  22
ENDBRANCH   4  20
TORSDOF 7
