REMARK  Name = ZINCrD000006UWJE.0
REMARK                            x       y       z     vdW  Elec       q    Type
REMARK                         _______ _______ _______ _____ _____    ______ ____
ROOT
ATOM      1  N   LIG    1       -5.610  -3.452   0.040  0.00  0.00    -0.660 N 
ATOM      2  H   LIG    1       -5.164  -4.309  -0.044  0.00  0.00    +0.410 HD
ATOM      3  C   LIG    1       -4.888  -2.314   0.040  0.00  0.00    +0.540 C 
ATOM      4  O   LIG    1       -5.450  -1.239   0.060  0.00  0.00    -0.510 OA
ENDROOT
BRANCH   1   8
ATOM      5  C   LIG    1       -9.763  -3.288   0.396  0.00  0.00    +0.210 A 
ATOM      6  C   LIG    1       -9.086  -2.296  -0.302  0.00  0.00    -0.050 A 
ATOM      7  C   LIG    1       -7.711  -2.350  -0.420  0.00  0.00    +0.070 A 
ATOM      8  C   LIG    1       -7.005  -3.396   0.160  0.00  0.00    +0.080 A 
ATOM      9  C   LIG    1       -7.683  -4.391   0.853  0.00  0.00    +0.030 A 
ATOM     10  C   LIG    1       -9.057  -4.334   0.975  0.00  0.00    -0.050 A 
BRANCH   5  11
ATOM     11  N   LIG    1      -11.155  -3.233   0.514  0.00  0.00    -0.630 N 
BRANCH  11  13
ATOM     12  C   LIG    1      -11.985  -3.879   2.722  0.00  0.00    +0.010 C 
ATOM     13  C   LIG    1      -11.869  -4.280   1.250  0.00  0.00    +0.270 C 
ENDBRANCH  11  13
BRANCH  11  14
ATOM     14  C   LIG    1      -11.900  -2.130  -0.098  0.00  0.00    +0.270 C 
ATOM     15  C   LIG    1      -12.293  -2.510  -1.527  0.00  0.00    +0.010 C 
ENDBRANCH  11  14
ENDBRANCH   5  11
ENDBRANCH   1   8
BRANCH   3  16
ATOM     16  C   LIG    1       -3.383  -2.377   0.016  0.00  0.00    +0.100 C 
BRANCH  16  17
ATOM     17  S   LIG    1       -2.707  -0.693   0.023  0.00  0.00    +0.090 S 
BRANCH  17  18
ATOM     18  C   LIG    1       -0.966  -0.965  -0.006  0.00  0.00    +0.110 A 
ATOM     19  N   LIG    1       -0.360  -2.129  -0.028  0.00  0.00    -0.240 NA
ATOM     20  N   LIG    1        0.916  -1.968  -0.045  0.00  0.00    -0.260 NA
ATOM     21  C   LIG    1        1.205  -0.680  -0.037  0.00  0.00    +0.370 A 
ATOM     22  N   LIG    1        2.360   0.002  -0.046  0.00  0.00    -0.440 NA
ATOM     23  C   LIG    1        2.366   1.313  -0.033  0.00  0.00    +0.220 A 
ATOM     24  C   LIG    1        1.160   2.033  -0.007  0.00  0.00    -0.030 A 
ATOM     25  C   LIG    1       -0.016   1.361   0.003  0.00  0.00    +0.160 A 
ATOM     26  C   LIG    1       -1.324   2.109   0.025  0.00  0.00    +0.170 C 
ATOM     27  C   LIG    1        3.679   2.054  -0.045  0.00  0.00    +0.160 C 
ATOM     28  N   LIG    1        0.002  -0.005  -0.011  0.00  0.00    -0.420 N 
ENDBRANCH  17  18
ENDBRANCH  16  17
ENDBRANCH   3  16
TORSDOF 7
