REMARK  Name = ZINCpk00000y6wlP.1
REMARK                            x       y       z     vdW  Elec       q    Type
REMARK                         _______ _______ _______ _____ _____    ______ ____
ROOT
ATOM      1  C   LIG    1        0.926   2.266   1.262  0.00  0.00    +0.290 C 
ATOM      2  N   LIG    1       -0.133   1.466   0.640  0.00  0.00    -0.590 N 
ATOM      3  C   LIG    1       -1.187   2.076   0.062  0.00  0.00    +0.570 C 
ATOM      4  O   LIG    1       -2.095   1.413  -0.398  0.00  0.00    -0.510 OA
ENDROOT
BRANCH   3   5
ATOM      5  C   LIG    1       -1.238   3.554  -0.012  0.00  0.00    +0.120 A 
ATOM      6  C   LIG    1       -0.068   4.256  -0.214  0.00  0.00    +0.000 A 
ATOM      7  C   LIG    1       -0.077   5.646  -0.296  0.00  0.00    +0.180 A 
ATOM      8  C   LIG    1       -1.286   6.319  -0.158  0.00  0.00    +0.010 A 
ATOM      9  N   LIG    1       -1.676   7.604  -0.173  0.00  0.00    -0.530 NA
ATOM     10  C   LIG    1       -2.978   7.647   0.013  0.00  0.00    +0.470 A 
ATOM     11  N   LIG    1       -3.489   6.430   0.154  0.00  0.00    -0.550 NA
ATOM     12  C   LIG    1       -2.512   5.538   0.062  0.00  0.00    +0.240 A 
ATOM     13  N   LIG    1       -2.434   4.182   0.126  0.00  0.00    -0.440 N 
ATOM     14  H   LIG    1       -3.238   3.660   0.271  0.00  0.00    +0.430 HD
ENDBRANCH   3   5
BRANCH   2  15
ATOM     15  C   LIG    1       -0.043   0.004   0.642  0.00  0.00    +0.330 C 
BRANCH  15  16
ATOM     16  C   LIG    1       -0.718  -0.547   1.900  0.00  0.00    +0.150 C 
ATOM     17  C   LIG    1       -0.428  -2.062   2.048  0.00  0.00    +0.050 C 
ATOM     18  C   LIG    1       -0.610  -2.268   3.575  0.00  0.00    +0.020 C 
ATOM     19  C   LIG    1       -0.063  -0.953   4.170  0.00  0.00    +0.200 C 
ATOM     20  N   LIG    1       -0.133   0.069   3.110  0.00  0.00    -0.460 N 
BRANCH  20  21
ATOM     21  C   LIG    1       -0.883   1.165   3.523  0.00  0.00    +0.250 A 
ATOM     22  C   LIG    1       -0.500   1.891   4.650  0.00  0.00    +0.020 A 
ATOM     23  C   LIG    1       -1.282   2.974   5.020  0.00  0.00    +0.060 A 
ATOM     24  C   LIG    1       -2.395   3.270   4.247  0.00  0.00    +0.190 A 
ATOM     25  N   LIG    1       -2.683   2.529   3.195  0.00  0.00    -0.230 NA
ATOM     26  N   LIG    1       -1.961   1.528   2.843  0.00  0.00    -0.280 NA
ENDBRANCH  20  21
ENDBRANCH  15  16
ENDBRANCH   2  15
TORSDOF 4
