REMARK  Name = ZINCpk00000y6wlP.0
REMARK                            x       y       z     vdW  Elec       q    Type
REMARK                         _______ _______ _______ _____ _____    ______ ____
ROOT
ATOM      1  C   LIG    1        4.784   1.609  -0.137  0.00  0.00    +0.310 C 
ATOM      2  N   LIG    1        4.837   0.145  -0.145  0.00  0.00    -0.580 N 
ATOM      3  C   LIG    1        3.744  -0.570   0.188  0.00  0.00    +0.570 C 
ATOM      4  O   LIG    1        3.798  -1.784   0.217  0.00  0.00    -0.510 OA
ENDROOT
BRANCH   3   5
ATOM      5  C   LIG    1        2.479   0.122   0.518  0.00  0.00    +0.120 A 
ATOM      6  C   LIG    1        1.316  -0.628   0.712  0.00  0.00    +0.020 A 
ATOM      7  C   LIG    1        0.143   0.010   1.018  0.00  0.00    +0.120 A 
ATOM      8  C   LIG    1        0.152   1.404   1.125  0.00  0.00    +0.020 A 
ATOM      9  N   LIG    1       -0.797   2.330   1.400  0.00  0.00    -0.490 NA
ATOM     10  C   LIG    1       -0.265   3.519   1.383  0.00  0.00    +0.520 A 
ATOM     11  N   LIG    1        1.060   3.436   1.088  0.00  0.00    -0.590 N 
ATOM     12  H   LIG    1        1.679   4.179   1.011  0.00  0.00    +0.430 HD
ATOM     13  C   LIG    1        1.362   2.101   0.917  0.00  0.00    +0.230 A 
ATOM     14  N   LIG    1        2.468   1.445   0.624  0.00  0.00    -0.440 NA
ENDBRANCH   3   5
BRANCH   2  15
ATOM     15  C   LIG    1        6.077  -0.541  -0.515  0.00  0.00    +0.310 C 
BRANCH  15  16
ATOM     16  C   LIG    1        6.092  -0.787  -2.025  0.00  0.00    +0.140 C 
ATOM     17  C   LIG    1        7.294  -1.685  -2.413  0.00  0.00    +0.040 C 
ATOM     18  C   LIG    1        6.798  -2.312  -3.744  0.00  0.00    +0.010 C 
ATOM     19  C   LIG    1        5.285  -2.495  -3.501  0.00  0.00    +0.200 C 
ATOM     20  N   LIG    1        4.897  -1.556  -2.434  0.00  0.00    -0.440 N 
BRANCH  20  21
ATOM     21  C   LIG    1        3.881  -0.707  -2.862  0.00  0.00    +0.260 A 
ATOM     22  C   LIG    1        2.666  -1.234  -3.297  0.00  0.00    +0.020 A 
ATOM     23  C   LIG    1        1.684  -0.345  -3.707  0.00  0.00    +0.050 A 
ATOM     24  C   LIG    1        1.975   1.011  -3.671  0.00  0.00    +0.180 A 
ATOM     25  N   LIG    1        3.155   1.421  -3.250  0.00  0.00    -0.220 NA
ATOM     26  N   LIG    1        4.066   0.605  -2.863  0.00  0.00    -0.270 NA
ENDBRANCH  20  21
ENDBRANCH  15  16
ENDBRANCH   2  15
TORSDOF 4
