REMARK  Name = ZINCrD000000CQX5.0
REMARK                            x       y       z     vdW  Elec       q    Type
REMARK                         _______ _______ _______ _____ _____    ______ ____
ROOT
ATOM      1  O   LIG    1        2.514   7.004  -2.265  0.00  0.00    -0.530 OA
ATOM      2  C   LIG    1        1.379   6.577  -2.233  0.00  0.00    +0.520 C 
ATOM      3  C   LIG    1        0.757   5.683  -3.289  0.00  0.00    +0.080 C 
ATOM      4  C   LIG    1       -0.500   5.138  -2.610  0.00  0.00    -0.090 C 
ATOM      5  C   LIG    1       -0.800   6.169  -1.524  0.00  0.00    +0.290 C 
ATOM      6  C   LIG    1       -0.288   3.730  -2.038  0.00  0.00    +0.070 C 
ATOM      7  C   LIG    1       -0.643   2.819  -3.236  0.00  0.00    +0.240 C 
ATOM      8  N   LIG    1       -1.469   3.611  -4.161  0.00  0.00    -0.630 N 
ATOM      9  C   LIG    1       -1.967   3.178  -5.336  0.00  0.00    +0.720 C 
ATOM     10  N   LIG    1       -1.718   1.919  -5.750  0.00  0.00    -0.680 N 
ATOM     11  H   LIG    1       -1.126   1.348  -5.236  0.00  0.00    +0.410 HD
ATOM     12  O   LIG    1       -2.640   3.922  -6.023  0.00  0.00    -0.570 OA
ATOM     13  C   LIG    1       -1.664   4.960  -3.590  0.00  0.00    +0.310 C 
ATOM     14  N   LIG    1        0.487   6.830  -1.254  0.00  0.00    -0.730 N 
ATOM     15  H   LIG    1        0.669   7.375  -0.473  0.00  0.00    +0.410 HD
ENDROOT
BRANCH  10  16
ATOM     16  C   LIG    1       -2.314   1.437  -6.923  0.00  0.00    +0.120 A 
ATOM     17  C   LIG    1       -2.692   0.104  -7.013  0.00  0.00    +0.030 A 
ATOM     18  C   LIG    1       -3.284  -0.369  -8.167  0.00  0.00    -0.060 A 
ATOM     19  C   LIG    1       -3.491   0.484  -9.241  0.00  0.00    +0.120 A 
ATOM     20  C   LIG    1       -3.108   1.814  -9.154  0.00  0.00    +0.000 A 
ATOM     21  C   LIG    1       -2.521   2.290  -7.998  0.00  0.00    +0.070 A 
BRANCH  19  22
ATOM     22  O   LIG    1       -4.069   0.016 -10.379  0.00  0.00    -0.310 OA
BRANCH  22  23
ATOM     23  C   LIG    1       -4.438  -1.365 -10.399  0.00  0.00    +0.180 C 
BRANCH  23  24
ATOM     24  C   LIG    1       -5.068  -1.705 -11.751  0.00  0.00    -0.010 C 
ATOM     25  C   LIG    1       -6.380  -0.933 -11.911  0.00  0.00    +0.020 C 
ATOM     26  C   LIG    1       -7.010  -1.273 -13.262  0.00  0.00    +0.000 C 
ATOM     27  C   LIG    1       -7.291  -2.776 -13.331  0.00  0.00    +0.000 C 
ATOM     28  C   LIG    1       -5.979  -3.547 -13.171  0.00  0.00    +0.000 C 
ATOM     29  C   LIG    1       -5.349  -3.207 -11.819  0.00  0.00    +0.020 C 
ENDBRANCH  23  24
ENDBRANCH  22  23
ENDBRANCH  19  22
ENDBRANCH  10  16
TORSDOF 4
