REMARK  Name = ZINCvU00000005Us.0
REMARK                            x       y       z     vdW  Elec       q    Type
REMARK                         _______ _______ _______ _____ _____    ______ ____
ROOT
ATOM      1  C   LIG    1        5.777   4.477  -0.291  0.00  0.00    +0.350 C 
ENDROOT
BRANCH   1   2
ATOM      2  C   LIG    1        4.604   5.369  -0.604  0.00  0.00    -0.120 A 
ATOM      3  C   LIG    1        4.812   6.694  -0.935  0.00  0.00    +0.030 A 
ATOM      4  C   LIG    1        3.735   7.515  -1.216  0.00  0.00    +0.020 A 
ATOM      5  C   LIG    1        2.449   7.011  -1.172  0.00  0.00    +0.030 A 
ATOM      6  C   LIG    1        2.235   5.685  -0.847  0.00  0.00    +0.010 A 
ATOM      7  C   LIG    1        3.314   4.860  -0.564  0.00  0.00    +0.090 A 
BRANCH   7   8
ATOM      8  O   LIG    1        3.107   3.555  -0.243  0.00  0.00    -0.230 OA
BRANCH   8   9
ATOM      9  C   LIG    1        3.002   3.231   1.072  0.00  0.00    +0.150 A 
ATOM     10  C   LIG    1        2.684   1.933   1.444  0.00  0.00    +0.060 A 
ATOM     11  C   LIG    1        2.578   1.604   2.782  0.00  0.00    +0.050 A 
ATOM     12  C   LIG    1        2.789   2.568   3.752  0.00  0.00    +0.070 A 
ATOM     13  C   LIG    1        3.106   3.866   3.382  0.00  0.00    -0.040 A 
ATOM     14 CL   LIG    1        3.363   5.076   4.600  0.00  0.00    -0.050 Cl
ATOM     15  F   LIG    1        2.684   2.245   5.059  0.00  0.00    -0.130 F 
ATOM     16  C   LIG    1        3.213   4.197   2.045  0.00  0.00    -0.030 A 
ENDBRANCH   8   9
ENDBRANCH   7   8
ENDBRANCH   1   2
BRANCH   1  18
ATOM     17  C   LIG    1        5.645   2.401  -1.560  0.00  0.00    +0.560 C 
ATOM     18  N   LIG    1        6.101   3.666  -1.467  0.00  0.00    -0.600 N 
ATOM     19  O   LIG    1        4.965   1.933  -0.667  0.00  0.00    -0.520 OA
BRANCH  17  21
ATOM     20  C   LIG    1        5.520   0.338  -2.833  0.00  0.00    +0.130 C 
ATOM     21  C   LIG    1        5.970   1.587  -2.741  0.00  0.00    -0.090 C 
ENDBRANCH  17  21
BRANCH  18  22
ATOM     22  C   LIG    1        6.921   4.229  -2.543  0.00  0.00    +0.330 C 
BRANCH  22  23
ATOM     23  C   LIG    1        8.402   4.069  -2.193  0.00  0.00    -0.100 C 
ATOM     24  C   LIG    1        9.046   5.157  -1.332  0.00  0.00    +0.050 C 
ATOM     25  C   LIG    1        9.387   5.057  -2.821  0.00  0.00    +0.050 C 
BRANCH  23  26
ATOM     26  C   LIG    1        8.871   2.652  -1.990  0.00  0.00    +0.120 A 
ATOM     27  C   LIG    1        8.646   1.885  -0.898  0.00  0.00    -0.110 A 
ATOM     28  C   LIG    1        9.248   0.641  -1.113  0.00  0.00    +0.230 A 
ATOM     29  N   LIG    1        9.822   0.663  -2.289  0.00  0.00    -0.290 NA
ATOM     30  N   LIG    1        9.598   1.922  -2.862  0.00  0.00    -0.370 N 
ATOM     31  C   LIG    1       10.069   2.366  -4.176  0.00  0.00    +0.350 C 
ENDBRANCH  23  26
ENDBRANCH  22  23
ENDBRANCH  18  22
ENDBRANCH   1  18
TORSDOF 8
