REMARK  Name = ZINCrg000000tOFH.0
REMARK                            x       y       z     vdW  Elec       q    Type
REMARK                         _______ _______ _______ _____ _____    ______ ____
ROOT
ATOM      1  O   LIG    1        1.210   5.198   2.649  0.00  0.00    -0.480 OA
ATOM      2  C   LIG    1        0.165   4.845   2.137  0.00  0.00    +0.570 A 
ATOM      3  N   LIG    1       -0.945   5.612   2.223  0.00  0.00    -0.660 N 
ATOM      4  H   LIG    1       -0.906   6.456   2.700  0.00  0.00    +0.440 HD
ATOM      5  C   LIG    1       -2.099   5.225   1.659  0.00  0.00    +0.710 A 
ATOM      6  N   LIG    1       -2.233   4.072   0.983  0.00  0.00    -0.500 N 
ATOM      7  C   LIG    1       -1.164   3.211   0.833  0.00  0.00    +0.430 A 
ATOM      8  N   LIG    1       -1.286   2.076   0.163  0.00  0.00    -0.500 NA
ATOM      9  C   LIG    1       -0.275   1.246   0.018  0.00  0.00    +0.380 A 
ATOM     10  C   LIG    1        0.984   1.531   0.557  0.00  0.00    -0.230 A 
ATOM     11  C   LIG    1        1.166   2.722   1.270  0.00  0.00    +0.260 A 
ATOM     12  O   LIG    1       -3.068   5.952   1.764  0.00  0.00    -0.510 OA
ATOM     13  C   LIG    1        0.073   3.570   1.406  0.00  0.00    -0.250 A 
ENDROOT
BRANCH  10  14
ATOM     14  C   LIG    1        2.105   0.587   0.377  0.00  0.00    +0.560 C 
ATOM     15  N   LIG    1        1.870  -0.739   0.333  0.00  0.00    -0.610 N 
ATOM     16  C   LIG    1        0.498  -1.268   0.406  0.00  0.00    +0.250 C 
ATOM     17  C   LIG    1        0.451  -2.354   1.481  0.00  0.00    +0.220 C 
ATOM     18  O   LIG    1        1.488  -3.307   1.235  0.00  0.00    -0.370 OA
ATOM     19  C   LIG    1        2.809  -2.766   1.304  0.00  0.00    +0.220 C 
ATOM     20  C   LIG    1        2.977  -1.701   0.215  0.00  0.00    +0.210 C 
ATOM     21  O   LIG    1        3.241   1.007   0.270  0.00  0.00    -0.490 OA
BRANCH  20  22
ATOM     22  C   LIG    1        4.311  -0.977   0.403  0.00  0.00    +0.070 C 
BRANCH  22  23
ATOM     23  C   LIG    1        4.674  -0.234  -0.884  0.00  0.00    +0.000 C 
ATOM     24  C   LIG    1        5.929  -0.689  -1.633  0.00  0.00    -0.030 C 
ATOM     25  C   LIG    1        5.933   0.636  -0.867  0.00  0.00    +0.010 C 
ENDBRANCH  22  23
ENDBRANCH  20  22
ENDBRANCH  10  14
BRANCH   6  26
ATOM     26  C   LIG    1       -3.530   3.724   0.397  0.00  0.00    +0.210 C 
ATOM     27  C   LIG    1       -3.538   3.201  -1.040  0.00  0.00    +0.070 C 
ATOM     28  C   LIG    1       -4.055   4.609  -0.735  0.00  0.00    +0.050 C 
ENDBRANCH   6  26
TORSDOF 4
