REMARK  Name = ZINCqH0000004Nty.0
REMARK                            x       y       z     vdW  Elec       q    Type
REMARK                         _______ _______ _______ _____ _____    ______ ____
ROOT
ATOM      1  C   LIG    1        2.890   0.827  -1.961  0.00  0.00    +0.240 C 
ATOM      2  C   LIG    1        2.822   2.084  -2.831  0.00  0.00    +0.030 C 
ATOM      3  C   LIG    1        1.367   2.544  -2.954  0.00  0.00    +0.030 C 
ATOM      4  C   LIG    1        0.826   2.886  -1.567  0.00  0.00    +0.270 C 
ATOM      5  N   LIG    1        1.021   1.732  -0.679  0.00  0.00    -0.610 N 
ATOM      6  C   LIG    1       -0.014   1.211   0.009  0.00  0.00    +0.570 C 
ATOM      7  O   LIG    1        0.135   0.190   0.651  0.00  0.00    -0.520 OA
ATOM      8  C   LIG    1        2.366   1.153  -0.558  0.00  0.00    +0.280 C 
ENDROOT
BRANCH   1  17
ATOM      9  C   LIG    1        4.757  -0.840  -2.268  0.00  0.00    +0.290 A 
ATOM     10  N   LIG    1        6.036  -0.912  -2.042  0.00  0.00    -0.490 NA
ATOM     11  C   LIG    1        6.466   0.247  -1.482  0.00  0.00    +0.050 A 
ATOM     12  C   LIG    1        7.714   0.703  -1.048  0.00  0.00    +0.070 A 
ATOM     13  C   LIG    1        7.833   1.954  -0.513  0.00  0.00    +0.000 A 
ATOM     14  C   LIG    1        6.726   2.783  -0.396  0.00  0.00    +0.030 A 
ATOM     15  C   LIG    1        5.485   2.354  -0.819  0.00  0.00    +0.010 A 
ATOM     16  C   LIG    1        5.346   1.088  -1.370  0.00  0.00    +0.050 A 
ATOM     17  N   LIG    1        4.279   0.369  -1.870  0.00  0.00    -0.480 N 
BRANCH   9  19
ATOM     18  C   LIG    1        3.906  -1.772  -4.403  0.00  0.00    +0.040 C 
ATOM     19  C   LIG    1        3.925  -1.937  -2.882  0.00  0.00    +0.130 C 
ENDBRANCH   9  19
ENDBRANCH   1  17
BRANCH   6  20
ATOM     20  C   LIG    1       -1.333   1.879  -0.024  0.00  0.00    -0.200 A 
ATOM     21  C   LIG    1       -2.513   1.127   0.028  0.00  0.00    +0.140 A 
ATOM     22  C   LIG    1       -3.722   1.800  -0.005  0.00  0.00    -0.030 A 
ATOM     23  C   LIG    1       -3.726   3.180  -0.087  0.00  0.00    +0.150 A 
ATOM     24  N   LIG    1       -2.598   3.863  -0.134  0.00  0.00    -0.490 NA
ATOM     25  C   LIG    1       -5.040   3.917  -0.122  0.00  0.00    +0.140 C 
ATOM     26  C   LIG    1       -1.423   3.269  -0.100  0.00  0.00    +0.300 A 
ENDBRANCH   6  20
TORSDOF 3
