REMARK  Name = ZINCvU0000000EoD.0
REMARK                            x       y       z     vdW  Elec       q    Type
REMARK                         _______ _______ _______ _____ _____    ______ ____
ROOT
ATOM      1  C   LIG    1       -2.396   1.058   0.014  0.00  0.00    +0.240 C 
ENDROOT
BRANCH   1   2
ATOM      2  C   LIG    1       -2.803   0.761   1.433  0.00  0.00    -0.120 A 
ATOM      3  C   LIG    1       -2.693   1.740   2.404  0.00  0.00    +0.040 A 
ATOM      4  C   LIG    1       -3.071   1.468   3.705  0.00  0.00    +0.010 A 
ATOM      5  C   LIG    1       -3.551   0.215   4.039  0.00  0.00    +0.030 A 
ATOM      6  C   LIG    1       -3.656  -0.765   3.070  0.00  0.00    +0.010 A 
ATOM      7  C   LIG    1       -3.282  -0.492   1.767  0.00  0.00    +0.030 A 
ENDBRANCH   1   2
BRANCH   1   8
ATOM      8  C   LIG    1       -3.503   1.809  -0.680  0.00  0.00    +0.530 C 
ATOM      9  N   LIG    1       -4.723   1.250  -0.802  0.00  0.00    -0.660 N 
ATOM     10  H   LIG    1       -4.871   0.339  -0.504  0.00  0.00    +0.410 HD
ATOM     11  O   LIG    1       -3.296   2.917  -1.129  0.00  0.00    -0.490 OA
BRANCH   9  12
ATOM     12  C   LIG    1       -5.776   1.983  -1.359  0.00  0.00    +0.140 A 
ATOM     13  C   LIG    1       -7.071   1.808  -0.889  0.00  0.00    -0.010 A 
ATOM     14  C   LIG    1       -8.108   2.537  -1.438  0.00  0.00    +0.030 A 
ATOM     15  C   LIG    1       -7.859   3.433  -2.461  0.00  0.00    -0.100 A 
ATOM     16  C   LIG    1       -6.572   3.606  -2.935  0.00  0.00    +0.030 A 
ATOM     17  C   LIG    1       -8.994   4.223  -3.062  0.00  0.00    +0.090 C 
ATOM     18  C   LIG    1       -5.530   2.884  -2.387  0.00  0.00    +0.020 A 
ENDBRANCH   9  12
ENDBRANCH   1   8
BRANCH   1  19
ATOM     19  O   LIG    1       -1.190   1.867   0.016  0.00  0.00    -0.310 OA
BRANCH  19  20
ATOM     20  C   LIG    1       -0.013   1.211  -0.000  0.00  0.00    +0.520 C 
ATOM     21  O   LIG    1        0.005  -0.004  -0.015  0.00  0.00    -0.490 OA
BRANCH  20  24
ATOM     22  C   LIG    1        3.658   2.000  -0.033  0.00  0.00    +0.110 A 
ATOM     23  C   LIG    1        2.475   1.288  -0.022  0.00  0.00    +0.030 A 
ATOM     24  C   LIG    1        1.253   1.967  -0.005  0.00  0.00    -0.080 A 
ATOM     25  C   LIG    1        1.234   3.364   0.012  0.00  0.00    +0.090 A 
ATOM     26  C   LIG    1        2.419   4.069   0.007  0.00  0.00    -0.040 A 
ATOM     27 CL   LIG    1        2.394   5.805   0.029  0.00  0.00    -0.030 Cl
ATOM     28  C   LIG    1        3.633   3.394  -0.016  0.00  0.00    +0.110 A 
BRANCH  22  30
ATOM     29  C   LIG    1        4.799  -0.086  -0.071  0.00  0.00    +0.250 C 
ATOM     30  O   LIG    1        4.848   1.342  -0.054  0.00  0.00    -0.300 OA
ENDBRANCH  22  30
BRANCH  28  31
ATOM     31  O   LIG    1        4.798   4.093  -0.021  0.00  0.00    -0.310 OA
ATOM     32  C   LIG    1        5.369   4.411   1.250  0.00  0.00    +0.230 C 
ENDBRANCH  28  31
ENDBRANCH  20  24
ENDBRANCH  19  20
ENDBRANCH   1  19
TORSDOF 8
