REMARK  Name = ZINCpe000000T8uD.1
REMARK                            x       y       z     vdW  Elec       q    Type
REMARK                         _______ _______ _______ _____ _____    ______ ____
ROOT
ATOM      1  C   LIG    1       -0.450  -2.337  -6.348  0.00  0.00    +0.060 C 
ATOM      2  C   LIG    1       -0.735  -1.584  -5.047  0.00  0.00    +0.090 C 
ATOM      3  C   LIG    1        0.581  -1.125  -4.421  0.00  0.00    +0.310 C 
ATOM      4  N   LIG    1        0.300  -0.541  -3.101  0.00  0.00    -0.610 N 
ATOM      5  C   LIG    1       -0.518  -1.317  -2.157  0.00  0.00    +0.280 C 
ATOM      6  C   LIG    1       -1.796  -1.765  -2.873  0.00  0.00    +0.170 C 
ATOM      7  C   LIG    1        0.774   0.676  -2.768  0.00  0.00    +0.520 C 
ATOM      8  O   LIG    1        1.447   1.302  -3.560  0.00  0.00    -0.520 OA
ATOM      9  C   LIG    1       -1.607  -0.362  -5.344  0.00  0.00    +0.000 C 
ATOM     10  N   LIG    1       -1.438  -2.471  -4.111  0.00  0.00    -0.520 NA
ENDROOT
BRANCH   7  11
ATOM     11  C   LIG    1        0.468   1.259  -1.413  0.00  0.00    +0.190 C 
BRANCH  11  12
ATOM     12  N   LIG    1        0.658   2.715  -1.451  0.00  0.00    -0.830 NA
ATOM     13  H   LIG    1        1.608   2.950  -1.697  0.00  0.00    +0.360 HD
ATOM     14  H   LIG    1        0.397   3.137  -0.573  0.00  0.00    +0.350 HD
ENDBRANCH  11  12
BRANCH  11  15
ATOM     15  C   LIG    1        1.409   0.649  -0.371  0.00  0.00    +0.030 C 
BRANCH  15  16
ATOM     16  C   LIG    1        1.018   1.146   1.022  0.00  0.00    -0.350 C 
BRANCH  16  17
ATOM     17  S   LIG    1        2.134   0.423   2.256  0.00  0.00    +2.420 S 
ATOM     18  O   LIG    1        3.443   0.926   2.033  0.00  0.00    -0.930 OA
ATOM     19  O   LIG    1        1.926  -0.982   2.287  0.00  0.00    -0.930 OA
ATOM     20  C   LIG    1        1.497   1.135   3.799  0.00  0.00    -0.270 C 
ENDBRANCH  16  17
ENDBRANCH  15  16
ENDBRANCH  11  15
ENDBRANCH   7  11
BRANCH  10  21
ATOM     21  C   LIG    1       -2.624  -3.067  -4.740  0.00  0.00    +0.220 C 
BRANCH  21  22
ATOM     22  C   LIG    1       -3.186  -4.138  -3.841  0.00  0.00    -0.080 A 
ATOM     23  C   LIG    1       -2.667  -5.418  -3.884  0.00  0.00    +0.020 A 
ATOM     24  C   LIG    1       -3.178  -6.400  -3.056  0.00  0.00    +0.000 A 
ATOM     25  C   LIG    1       -4.215  -6.103  -2.191  0.00  0.00    +0.000 A 
ATOM     26  C   LIG    1       -4.738  -4.824  -2.152  0.00  0.00    +0.000 A 
ATOM     27  C   LIG    1       -4.223  -3.841  -2.976  0.00  0.00    +0.000 A 
ENDBRANCH  21  22
ENDBRANCH  10  21
TORSDOF 7
