REMARK  Name = ZINCqH0000000q9v.0
REMARK                            x       y       z     vdW  Elec       q    Type
REMARK                         _______ _______ _______ _____ _____    ______ ____
ROOT
ATOM      1  C   LIG    1       -0.742   1.585  -1.213  0.00  0.00    +0.410 C 
ATOM      2  O   LIG    1       -1.736   2.268  -1.089  0.00  0.00    -0.430 OA
ENDROOT
BRANCH   1   6
ATOM      3  C   LIG    1        0.685   0.601  -5.085  0.00  0.00    -0.050 A 
ATOM      4  C   LIG    1       -0.450   1.381  -4.947  0.00  0.00    +0.010 A 
ATOM      5  C   LIG    1       -0.920   1.705  -3.692  0.00  0.00    +0.090 A 
ATOM      6  C   LIG    1       -0.247   1.244  -2.556  0.00  0.00    -0.170 A 
ATOM      7  C   LIG    1        0.903   0.461  -2.704  0.00  0.00    +0.070 A 
ATOM      8  C   LIG    1        1.357   0.141  -3.966  0.00  0.00    +0.000 A 
BRANCH   3   9
ATOM      9  C   LIG    1        1.192   0.252  -6.460  0.00  0.00    +0.080 C 
BRANCH   9  10
ATOM     10  C   LIG    1        2.180   1.322  -6.927  0.00  0.00    +0.260 C 
BRANCH  10  13
ATOM     11  C   LIG    1        4.066   1.438 -10.256  0.00  0.00    +0.090 C 
ATOM     12  C   LIG    1        3.560   1.788  -8.880  0.00  0.00    +0.510 C 
ATOM     13  N   LIG    1        2.672   0.982  -8.264  0.00  0.00    -0.740 N 
ATOM     14  H   LIG    1        2.360   0.177  -8.706  0.00  0.00    +0.400 HD
ATOM     15  O   LIG    1        3.950   2.795  -8.328  0.00  0.00    -0.540 OA
ENDBRANCH  10  13
ENDBRANCH   9  10
ENDBRANCH   3   9
ENDBRANCH   1   6
BRANCH   1  16
ATOM     16  C   LIG    1       -0.013   1.086   0.008  0.00  0.00    +0.090 C 
BRANCH  16  17
ATOM     17  S   LIG    1       -0.862   1.671   1.500  0.00  0.00    +0.010 S 
BRANCH  17  18
ATOM     18  C   LIG    1        0.117   1.000   2.802  0.00  0.00    +0.130 A 
ATOM     19  C   LIG    1       -0.232   1.248   4.126  0.00  0.00    +0.000 A 
ATOM     20  C   LIG    1        0.543   0.711   5.138  0.00  0.00    +0.150 A 
ATOM     21  C   LIG    1        1.652  -0.051   4.792  0.00  0.00    -0.250 A 
ATOM     22  C   LIG    1        1.943  -0.253   3.457  0.00  0.00    +0.340 A 
ATOM     23  N   LIG    1        1.183   0.268   2.512  0.00  0.00    -0.490 NA
BRANCH  21  24
ATOM     24  C   LIG    1        2.527  -0.651   5.861  0.00  0.00    +0.520 C 
ATOM     25  F   LIG    1        1.766  -1.512   6.658  0.00  0.00    -0.170 F 
ATOM     26  F   LIG    1        3.060   0.370   6.655  0.00  0.00    -0.170 F 
ATOM     27  F   LIG    1        3.569  -1.368   5.263  0.00  0.00    -0.170 F 
ENDBRANCH  21  24
ENDBRANCH  17  18
ENDBRANCH  16  17
ENDBRANCH   1  16
TORSDOF 8
