REMARK  Name = ZINCrD000000fOBK.0
REMARK                            x       y       z     vdW  Elec       q    Type
REMARK                         _______ _______ _______ _____ _____    ______ ____
ROOT
ATOM      1  C   LIG    1        1.397   3.539   0.008  0.00  0.00    +0.520 C 
ATOM      2  N   LIG    1        2.554   4.229   0.000  0.00  0.00    -0.710 N 
ATOM      3  H   LIG    1        3.401   3.755  -0.010  0.00  0.00    +0.410 HD
ATOM      4  O   LIG    1        0.338   4.131   0.021  0.00  0.00    -0.540 OA
ENDROOT
BRANCH   1   5
ATOM      5  C   LIG    1        1.417   2.032  -0.001  0.00  0.00    +0.060 C 
BRANCH   5   6
ATOM      6  C   LIG    1       -0.018   1.503   0.010  0.00  0.00    +0.170 C 
BRANCH   6  10
ATOM      7  C   LIG    1        0.037  -2.172   0.593  0.00  0.00    -0.280 A 
ATOM      8  C   LIG    1        0.023  -2.071  -0.771  0.00  0.00    +0.090 A 
ATOM      9  O   LIG    1       -0.004  -0.775  -1.097  0.00  0.00    -0.170 OA
ATOM     10  C   LIG    1        0.002  -0.004   0.002  0.00  0.00    -0.010 A 
ATOM     11  C   LIG    1        0.029  -3.224  -1.742  0.00  0.00    +0.190 C 
ATOM     12  C   LIG    1        0.023  -0.786   1.091  0.00  0.00    -0.010 A 
BRANCH   7  14
ATOM     13  C   LIG    1        0.074  -3.322   2.896  0.00  0.00    +0.070 C 
ATOM     14  C   LIG    1        0.061  -3.401   1.391  0.00  0.00    +0.420 C 
ATOM     15  O   LIG    1        0.070  -4.482   0.841  0.00  0.00    -0.470 OA
ENDBRANCH   7  14
ENDBRANCH   6  10
ENDBRANCH   5   6
ENDBRANCH   1   5
BRANCH   2  16
ATOM     16  C   LIG    1        2.535   5.694   0.008  0.00  0.00    +0.390 C 
BRANCH  16  17
ATOM     17  C   LIG    1        2.417   6.187   1.428  0.00  0.00    +0.190 A 
ATOM     18  N   LIG    1        3.092   5.733   2.449  0.00  0.00    -0.470 NA
ATOM     19  C   LIG    1        2.732   6.406   3.551  0.00  0.00    +0.140 A 
ATOM     20  C   LIG    1        1.793   7.306   3.202  0.00  0.00    +0.130 A 
ATOM     21  N   LIG    1        1.593   7.167   1.855  0.00  0.00    -0.450 N 
ATOM     22  C   LIG    1        0.659   7.939   1.030  0.00  0.00    +0.320 C 
ENDBRANCH  16  17
BRANCH  16  23
ATOM     23  C   LIG    1        3.810   6.217  -0.601  0.00  0.00    -0.100 A 
ATOM     24  C   LIG    1        5.014   5.601  -0.319  0.00  0.00    +0.040 A 
ATOM     25  C   LIG    1        6.183   6.078  -0.881  0.00  0.00    +0.010 A 
ATOM     26  C   LIG    1        6.149   7.176  -1.720  0.00  0.00    +0.020 A 
ATOM     27  C   LIG    1        4.944   7.796  -1.998  0.00  0.00    +0.010 A 
ATOM     28  C   LIG    1        3.775   7.316  -1.439  0.00  0.00    +0.010 A 
ENDBRANCH  16  23
ENDBRANCH   2  16
TORSDOF 7
