REMARK  Name = ZINCkj00000y7z9h.0
REMARK                            x       y       z     vdW  Elec       q    Type
REMARK                         _______ _______ _______ _____ _____    ______ ____
ROOT
ATOM      1  C   LIG    1       -0.553   0.013   3.947  0.00  0.00    +0.530 C 
ATOM      2  N   LIG    1       -1.414  -0.481   4.859  0.00  0.00    -0.710 N 
ATOM      3  H   LIG    1       -1.370  -1.417   5.109  0.00  0.00    +0.400 HD
ATOM      4  O   LIG    1       -0.608   1.187   3.633  0.00  0.00    -0.530 OA
ENDROOT
BRANCH   1   6
ATOM      5  C   LIG    1        1.302  -0.379   2.433  0.00  0.00    -0.010 C 
ATOM      6  C   LIG    1        0.453  -0.867   3.332  0.00  0.00    +0.020 C 
BRANCH   5   7
ATOM      7  C   LIG    1        2.333  -1.280   1.803  0.00  0.00    +0.310 C 
BRANCH   7   9
ATOM      8  C   LIG    1        2.542   0.135  -0.122  0.00  0.00    +0.330 C 
ATOM      9  N   LIG    1        2.209  -1.219   0.341  0.00  0.00    -0.390 N 
ATOM     10  C   LIG    1        3.131  -2.186  -0.270  0.00  0.00    +0.320 C 
ATOM     11  H   LIG    1        1.262  -1.442   0.073  0.00  0.00    +0.430 HD
ENDBRANCH   7   9
ENDBRANCH   5   7
ENDBRANCH   1   6
BRANCH   2  12
ATOM     12  C   LIG    1       -2.416   0.396   5.471  0.00  0.00    +0.330 C 
BRANCH  12  13
ATOM     13  C   LIG    1       -3.349  -0.435   6.354  0.00  0.00    -0.180 C 
ATOM     14  C   LIG    1       -3.946   0.245   7.588  0.00  0.00    +0.080 C 
ATOM     15  C   LIG    1       -2.852  -0.809   7.748  0.00  0.00    -0.100 C 
ATOM     16  C   LIG    1       -1.455  -0.335   8.163  0.00  0.00    +0.030 C 
ATOM     17  C   LIG    1       -1.332  -0.457   9.686  0.00  0.00    +0.220 C 
ATOM     18  O   LIG    1       -1.657  -1.792  10.081  0.00  0.00    -0.380 OA
ATOM     19  C   LIG    1       -3.009  -2.174   9.823  0.00  0.00    +0.220 C 
ATOM     20  C   LIG    1       -3.254  -2.178   8.309  0.00  0.00    +0.040 C 
BRANCH  13  21
ATOM     21  C   LIG    1       -4.221  -1.454   5.617  0.00  0.00    +0.250 C 
ATOM     22  F   LIG    1       -4.950  -0.805   4.615  0.00  0.00    -0.210 F 
ENDBRANCH  13  21
ENDBRANCH  12  13
ENDBRANCH   2  12
TORSDOF 6
