REMARK  Name = ZINCrH000004q5p8.0
REMARK                            x       y       z     vdW  Elec       q    Type
REMARK                         _______ _______ _______ _____ _____    ______ ____
ROOT
ATOM      1  C   LIG    1       -5.029   1.118   0.252  0.00  0.00    +0.130 C 
ATOM      2  C   LIG    1       -3.689   1.799   0.141  0.00  0.00    -0.280 A 
ATOM      3  C   LIG    1       -3.617   3.127  -0.147  0.00  0.00    +0.200 A 
ATOM      4  O   LIG    1       -2.450   3.779  -0.257  0.00  0.00    -0.190 OA
ATOM      5  C   LIG    1       -1.263   3.164  -0.090  0.00  0.00    +0.200 A 
ATOM      6  C   LIG    1       -0.060   3.876  -0.213  0.00  0.00    -0.160 A 
ATOM      7  C   LIG    1        1.154   3.214  -0.035  0.00  0.00    +0.110 A 
ATOM      8  C   LIG    1        1.180   1.863   0.261  0.00  0.00    -0.010 A 
ATOM      9  C   LIG    1        0.004   1.151   0.384  0.00  0.00    +0.150 A 
ATOM     10  C   LIG    1       -1.220   1.794   0.205  0.00  0.00    -0.230 A 
ATOM     11  C   LIG    1       -2.497   1.063   0.335  0.00  0.00    +0.430 A 
ATOM     12  O   LIG    1       -2.522  -0.129   0.595  0.00  0.00    -0.460 OA
ENDROOT
BRANCH   3  13
ATOM     13  C   LIG    1       -4.872   3.879  -0.346  0.00  0.00    -0.070 A 
ATOM     14  C   LIG    1       -5.856   3.387  -1.208  0.00  0.00    +0.050 A 
ATOM     15  C   LIG    1       -7.028   4.092  -1.385  0.00  0.00    +0.010 A 
ATOM     16  C   LIG    1       -7.225   5.290  -0.721  0.00  0.00    +0.040 A 
ATOM     17  C   LIG    1       -6.253   5.786   0.129  0.00  0.00    +0.010 A 
ATOM     18  C   LIG    1       -5.079   5.088   0.321  0.00  0.00    +0.060 A 
ENDBRANCH   3  13
BRANCH   6  19
ATOM     19  C   LIG    1       -0.080   5.318  -0.528  0.00  0.00    +0.560 C 
ATOM     20  N   LIG    1        1.078   5.998  -0.645  0.00  0.00    -0.640 N 
ATOM     21  H   LIG    1        1.924   5.540  -0.522  0.00  0.00    +0.410 HD
ATOM     22  O   LIG    1       -1.141   5.892  -0.683  0.00  0.00    -0.500 OA
BRANCH  20  23
ATOM     23  C   LIG    1        1.059   7.372  -0.946  0.00  0.00    -0.000 A 
ATOM     24  C   LIG    1        2.145   8.174  -1.091  0.00  0.00    +0.200 A 
ATOM     25  N   LIG    1        1.697   9.424  -1.377  0.00  0.00    -0.370 N 
ATOM     26  N   LIG    1        0.297   9.382  -1.407  0.00  0.00    -0.280 NA
ATOM     27  C   LIG    1        2.530  10.605  -1.613  0.00  0.00    +0.370 C 
ATOM     28  C   LIG    1       -0.085   8.156  -1.155  0.00  0.00    +0.260 A 
ENDBRANCH  20  23
ENDBRANCH   6  19
TORSDOF 3
