REMARK  Name = ZINCqH0000005jCs.0
REMARK                            x       y       z     vdW  Elec       q    Type
REMARK                         _______ _______ _______ _____ _____    ______ ____
ROOT
ATOM      1  C   LIG    1        2.196  -2.636  -2.234  0.00  0.00    +0.270 C 
ATOM      2  N   LIG    1        3.221  -1.900  -1.489  0.00  0.00    -0.630 N 
ATOM      3  C   LIG    1        4.332  -1.470  -2.118  0.00  0.00    +0.710 C 
ATOM      4  N   LIG    1        4.454  -1.622  -3.451  0.00  0.00    -0.740 N 
ATOM      5  H   LIG    1        3.776  -2.107  -3.948  0.00  0.00    +0.400 HD
ATOM      6  O   LIG    1        5.225  -0.944  -1.482  0.00  0.00    -0.570 OA
ENDROOT
BRANCH   4   7
ATOM      7  C   LIG    1        5.609  -1.053  -4.151  0.00  0.00    +0.250 C 
ATOM      8  C   LIG    1        5.223  -0.773  -5.579  0.00  0.00    +0.030 C 
ATOM      9  C   LIG    1        5.955   0.504  -6.041  0.00  0.00    +0.020 C 
ATOM     10  C   LIG    1        7.337   0.245  -6.418  0.00  0.00    +0.010 C 
ATOM     11  C   LIG    1        8.177  -0.288  -5.239  0.00  0.00    +0.020 C 
ATOM     12  C   LIG    1        7.896  -1.757  -5.078  0.00  0.00    +0.010 C 
ATOM     13  C   LIG    1        6.790  -2.037  -4.044  0.00  0.00    +0.170 C 
ATOM     14  F   LIG    1        6.312  -3.338  -4.234  0.00  0.00    -0.210 F 
ENDBRANCH   4   7
BRANCH   2  15
ATOM     15  C   LIG    1        3.038  -1.633  -0.060  0.00  0.00    +0.430 C 
BRANCH  15  16
ATOM     16  C   LIG    1        2.349  -0.305   0.118  0.00  0.00    +0.190 A 
ATOM     17  N   LIG    1        2.935   0.861   0.124  0.00  0.00    -0.460 NA
ATOM     18  C   LIG    1        2.013   1.818   0.307  0.00  0.00    +0.140 A 
ATOM     19  C   LIG    1        0.810   1.223   0.419  0.00  0.00    +0.120 A 
ATOM     20  N   LIG    1        1.023  -0.124   0.299  0.00  0.00    -0.450 N 
BRANCH  20  21
ATOM     21  C   LIG    1        0.002  -1.173   0.358  0.00  0.00    +0.340 C 
BRANCH  21  22
ATOM     22  C   LIG    1       -0.104  -1.693   1.768  0.00  0.00    -0.120 A 
ATOM     23  C   LIG    1        0.583  -2.835   2.137  0.00  0.00    +0.020 A 
ATOM     24  C   LIG    1        0.489  -3.310   3.432  0.00  0.00    +0.010 A 
ATOM     25  C   LIG    1       -0.298  -2.647   4.356  0.00  0.00    +0.020 A 
ATOM     26  C   LIG    1       -0.988  -1.508   3.985  0.00  0.00    +0.010 A 
ATOM     27  C   LIG    1       -0.891  -1.032   2.691  0.00  0.00    +0.020 A 
ENDBRANCH  21  22
ENDBRANCH  20  21
ENDBRANCH  15  16
ENDBRANCH   2  15
TORSDOF 5
