REMARK  Name = ZINCqH00000505se.0
REMARK                            x       y       z     vdW  Elec       q    Type
REMARK                         _______ _______ _______ _____ _____    ______ ____
ROOT
ATOM      1  C   LIG    1       -0.070   5.347   0.031  0.00  0.00    +0.200 C 
ENDROOT
BRANCH   1   2
ATOM      2  N   LIG    1       -1.146   5.827  -0.848  0.00  0.00    -0.500 NA
ATOM      3  C   LIG    1       -1.196   7.298  -0.864  0.00  0.00    +0.230 C 
ATOM      4  C   LIG    1        0.201   7.827  -1.187  0.00  0.00    +0.040 C 
ATOM      5  C   LIG    1        0.742   7.138  -2.414  0.00  0.00    -0.080 A 
ATOM      6  C   LIG    1        1.819   7.711  -3.073  0.00  0.00    +0.000 A 
ATOM      7  C   LIG    1        2.347   7.110  -4.199  0.00  0.00    +0.000 A 
ATOM      8  C   LIG    1        1.800   5.931  -4.670  0.00  0.00    +0.000 A 
ATOM      9  C   LIG    1        0.727   5.361  -4.015  0.00  0.00    +0.010 A 
ATOM     10  C   LIG    1        0.194   5.965  -2.885  0.00  0.00    -0.110 A 
ATOM     11  C   LIG    1       -0.982   5.309  -2.210  0.00  0.00    +0.280 C 
ENDBRANCH   1   2
BRANCH   1  12
ATOM     12  C   LIG    1       -0.050   3.840   0.022  0.00  0.00    -0.100 A 
ATOM     13  C   LIG    1        1.156   3.165   0.008  0.00  0.00    +0.010 A 
ATOM     14  C   LIG    1        1.175   1.783   0.000  0.00  0.00    +0.010 A 
ATOM     15  C   LIG    1       -0.013   1.076   0.008  0.00  0.00    +0.010 A 
ATOM     16  C   LIG    1       -1.219   1.751   0.017  0.00  0.00    +0.010 A 
ATOM     17  C   LIG    1       -1.238   3.133   0.029  0.00  0.00    +0.050 A 
ENDBRANCH   1  12
BRANCH   1  20
ATOM     18  N   LIG    1        0.553   5.519   2.418  0.00  0.00    -0.630 N 
ATOM     19  H   LIG    1        1.330   4.973   2.222  0.00  0.00    +0.420 HD
ATOM     20  C   LIG    1       -0.312   5.838   1.435  0.00  0.00    +0.540 C 
ATOM     21  O   LIG    1       -1.284   6.521   1.680  0.00  0.00    -0.490 OA
BRANCH  18  25
ATOM     22  C   LIG    1       -1.356   7.715   6.467  0.00  0.00    +0.180 C 
ATOM     23  C   LIG    1       -0.514   6.939   5.487  0.00  0.00    -0.020 A 
ATOM     24  C   LIG    1       -0.750   6.781   4.165  0.00  0.00    -0.040 A 
ATOM     25  C   LIG    1        0.329   5.974   3.718  0.00  0.00    +0.250 A 
ATOM     26  N   LIG    1        1.075   5.747   4.768  0.00  0.00    -0.390 NA
ATOM     27  O   LIG    1        0.621   6.276   5.756  0.00  0.00    +0.100 OA
ENDBRANCH  18  25
ENDBRANCH   1  20
TORSDOF 4
