REMARK  Name = ZINCqH0000067dDi.0
REMARK                            x       y       z     vdW  Elec       q    Type
REMARK                         _______ _______ _______ _____ _____    ______ ____
ROOT
ATOM      1  N   LIG    1        3.480   0.748  -0.027  0.00  0.00    -0.660 N 
ATOM      2  H   LIG    1        3.986  -0.080  -0.036  0.00  0.00    +0.410 HD
ATOM      3  C   LIG    1        4.125   1.931  -0.027  0.00  0.00    +0.710 C 
ATOM      4  N   LIG    1        5.473   1.964  -0.039  0.00  0.00    -0.730 N 
ATOM      5  H   LIG    1        5.978   1.136  -0.048  0.00  0.00    +0.400 HD
ATOM      6  O   LIG    1        3.492   2.969  -0.015  0.00  0.00    -0.570 OA
ENDROOT
BRANCH   4   7
ATOM      7  C   LIG    1        6.174   3.250  -0.039  0.00  0.00    +0.320 C 
ATOM      8  C   LIG    1        7.572   3.068   0.557  0.00  0.00    +0.020 C 
ATOM      9  C   LIG    1        8.383   4.340   0.279  0.00  0.00    +0.260 C 
ATOM     10  O   LIG    1        8.555   4.464  -1.133  0.00  0.00    -0.310 OA
ATOM     11  C   LIG    1        7.455   4.336  -1.921  0.00  0.00    +0.110 A 
ATOM     12  C   LIG    1        7.518   4.800  -3.232  0.00  0.00    +0.070 A 
ATOM     13  C   LIG    1        6.421   4.683  -4.064  0.00  0.00    +0.020 A 
ATOM     14  C   LIG    1        5.257   4.104  -3.594  0.00  0.00    +0.000 A 
ATOM     15  C   LIG    1        5.191   3.645  -2.293  0.00  0.00    +0.060 A 
ATOM     16  F   LIG    1        8.656   5.365  -3.693  0.00  0.00    -0.130 F 
ATOM     17  C   LIG    1        6.287   3.760  -1.453  0.00  0.00    -0.160 A 
ENDBRANCH   4   7
BRANCH   1  21
ATOM     18  N   LIG    1        0.002  -0.004   0.002  0.00  0.00    -0.340 N 
ATOM     19  N   LIG    1       -0.017   1.397   0.010  0.00  0.00    -0.240 NA
ATOM     20  C   LIG    1        1.219   1.826   0.000  0.00  0.00    +0.270 A 
ATOM     21  C   LIG    1        2.072   0.713  -0.014  0.00  0.00    +0.100 A 
ATOM     22  C   LIG    1        1.300  -0.404  -0.013  0.00  0.00    -0.070 A 
BRANCH  22  23
ATOM     23  C   LIG    1        1.794  -1.827  -0.024  0.00  0.00    +0.550 C 
ATOM     24  F   LIG    1        0.874  -2.645   0.640  0.00  0.00    -0.170 F 
ATOM     25  F   LIG    1        3.032  -1.897   0.623  0.00  0.00    -0.170 F 
ATOM     26  F   LIG    1        1.934  -2.261  -1.347  0.00  0.00    -0.160 F 
ENDBRANCH  22  23
BRANCH  18  28
ATOM     27  C   LIG    1       -1.593  -1.180  -1.432  0.00  0.00    +0.040 C 
ATOM     28  C   LIG    1       -1.170  -0.882   0.009  0.00  0.00    +0.330 C 
ENDBRANCH  18  28
ENDBRANCH   1  21
TORSDOF 4
