REMARK  Name = ZINCc70000003XEY.0
REMARK                            x       y       z     vdW  Elec       q    Type
REMARK                         _______ _______ _______ _____ _____    ______ ____
ROOT
ATOM      1  C   LIG    1       -4.746   1.041  -0.270  0.00  0.00    +0.650 C 
ATOM      2  N   LIG    1       -3.607   1.704   0.015  0.00  0.00    -0.530 N 
ATOM      3  C   LIG    1       -2.391   1.055   0.019  0.00  0.00    +0.250 C 
ATOM      4  C   LIG    1       -1.242   1.763   0.018  0.00  0.00    -0.080 C 
ATOM      5  O   LIG    1       -1.239   3.123   0.030  0.00  0.00    -0.290 OA
ATOM      6  C   LIG    1       -2.436   3.790  -0.390  0.00  0.00    +0.240 C 
ATOM      7  C   LIG    1       -3.627   3.141   0.332  0.00  0.00    +0.300 C 
ATOM      8  O   LIG    1       -5.808   1.631  -0.269  0.00  0.00    -0.540 OA
ENDROOT
BRANCH   1  10
ATOM      9  C   LIG    1       -5.971  -0.922  -0.856  0.00  0.00    +0.300 C 
ATOM     10  O   LIG    1       -4.706  -0.273  -0.558  0.00  0.00    -0.360 OA
ENDBRANCH   1  10
BRANCH   4  11
ATOM     11  C   LIG    1       -0.013   1.076   0.008  0.00  0.00    +0.500 C 
ATOM     12  O   LIG    1        1.031   1.698   0.001  0.00  0.00    -0.450 OA
ENDBRANCH   4  11
TORSDOF 2
