REMARK  Name = ZINCqH000000758v.0
REMARK                            x       y       z     vdW  Elec       q    Type
REMARK                         _______ _______ _______ _____ _____    ______ ____
ROOT
ATOM      1  C   LIG    1        4.337   3.929   1.628  0.00  0.00    +0.520 C 
ATOM      2  N   LIG    1        3.408   3.115   1.087  0.00  0.00    -0.670 N 
ATOM      3  H   LIG    1        2.972   3.362   0.256  0.00  0.00    +0.410 HD
ATOM      4  O   LIG    1        4.954   3.575   2.610  0.00  0.00    -0.500 OA
ENDROOT
BRANCH   2   5
ATOM      5  C   LIG    1        3.073   1.915   1.723  0.00  0.00    +0.160 A 
ATOM      6  C   LIG    1        3.263   1.776   3.091  0.00  0.00    +0.020 A 
ATOM      7  C   LIG    1        2.936   0.588   3.716  0.00  0.00    +0.030 A 
ATOM      8  C   LIG    1        2.415  -0.460   2.980  0.00  0.00    -0.010 A 
ATOM      9  C   LIG    1        2.220  -0.323   1.618  0.00  0.00    +0.030 A 
ATOM     10  C   LIG    1        2.544   0.862   0.988  0.00  0.00    -0.150 A 
BRANCH  10  11
ATOM     11  C   LIG    1        2.330   1.010  -0.496  0.00  0.00    +0.260 C 
BRANCH  11  12
ATOM     12  C   LIG    1        3.631   0.686  -1.234  0.00  0.00    -0.050 C 
ATOM     13  C   LIG    1        4.729   1.649  -0.777  0.00  0.00    +0.020 C 
ATOM     14  C   LIG    1        3.415   0.837  -2.741  0.00  0.00    +0.030 C 
ENDBRANCH  11  12
BRANCH  11  15
ATOM     15  O   LIG    1        1.305   0.111  -0.922  0.00  0.00    -0.550 OA
ATOM     16  H   LIG    1        1.504  -0.821  -0.754  0.00  0.00    +0.380 HD
ENDBRANCH  11  15
ENDBRANCH  10  11
ENDBRANCH   2   5
BRANCH   1  17
ATOM     17  C   LIG    1        4.608   5.277   1.012  0.00  0.00    +0.130 C 
BRANCH  17  23
ATOM     18  C   LIG    1        7.022   5.733   1.524  0.00  0.00    +0.180 A 
ATOM     19  C   LIG    1        8.018   6.380   2.247  0.00  0.00    -0.080 A 
ATOM     20  C   LIG    1        7.679   7.271   3.240  0.00  0.00    +0.110 A 
ATOM     21  C   LIG    1        6.330   7.521   3.518  0.00  0.00    -0.210 A 
ATOM     22  C   LIG    1        5.335   6.868   2.780  0.00  0.00    +0.130 A 
ATOM     23  C   LIG    1        5.682   5.982   1.800  0.00  0.00    -0.120 A 
BRANCH  21  24
ATOM     24  C   LIG    1        5.960   8.470   4.577  0.00  0.00    +0.400 C 
ATOM     25  O   LIG    1        4.790   8.685   4.816  0.00  0.00    -0.460 OA
ATOM     26  C   LIG    1        7.033   9.175   5.365  0.00  0.00    +0.080 C 
ENDBRANCH  21  24
BRANCH  18  28
ATOM     27  C   LIG    1        8.752   4.646   0.313  0.00  0.00    +0.240 C 
ATOM     28  O   LIG    1        7.358   4.856   0.545  0.00  0.00    -0.310 OA
ENDBRANCH  18  28
ENDBRANCH  17  23
ENDBRANCH   1  17
TORSDOF 8
