REMARK  Name = ZINCqH0000050jKr.0
REMARK                            x       y       z     vdW  Elec       q    Type
REMARK                         _______ _______ _______ _____ _____    ______ ____
ROOT
ATOM      1  C   LIG    1       -0.174  -0.207  -0.126  0.00  0.00    +0.520 C 
ATOM      2  N   LIG    1        0.566  -0.727  -1.125  0.00  0.00    -0.510 N 
ATOM      3  O   LIG    1       -0.416   0.981  -0.104  0.00  0.00    -0.480 OA
ENDROOT
BRANCH   2   4
ATOM      4  C   LIG    1        0.764  -2.175  -1.213  0.00  0.00    +0.230 C 
ATOM      5  C   LIG    1        2.259  -2.492  -1.126  0.00  0.00    +0.020 C 
ATOM      6  C   LIG    1        2.466  -4.005  -1.218  0.00  0.00    +0.020 C 
ATOM      7  C   LIG    1        1.914  -4.515  -2.550  0.00  0.00    +0.010 C 
ATOM      8  C   LIG    1        0.420  -4.199  -2.638  0.00  0.00    +0.020 C 
ATOM      9  C   LIG    1        0.212  -2.686  -2.546  0.00  0.00    +0.020 C 
ENDBRANCH   2   4
BRANCH   2  10
ATOM     10  C   LIG    1        1.141   0.113  -2.072  0.00  0.00    +0.240 A 
ATOM     11  N   LIG    1        1.922  -0.275  -3.032  0.00  0.00    -0.500 NA
ATOM     12  C   LIG    1        2.377   0.658  -3.846  0.00  0.00    +0.240 A 
ATOM     13  C   LIG    1        1.969   1.895  -3.555  0.00  0.00    -0.130 A 
ATOM     14  S   LIG    1        0.927   1.808  -2.138  0.00  0.00    +0.230 S 
ENDBRANCH   2  10
BRANCH   1  15
ATOM     15  C   LIG    1       -0.702  -1.103   0.965  0.00  0.00    +0.200 C 
ATOM     16  C   LIG    1       -1.865  -1.937   0.423  0.00  0.00    +0.080 C 
BRANCH  15  17
ATOM     17  O   LIG    1       -1.165  -0.292   2.077  0.00  0.00    -0.320 OA
BRANCH  17  18
ATOM     18  C   LIG    1       -1.081  -0.835   3.307  0.00  0.00    +0.520 C 
ATOM     19  O   LIG    1       -0.634  -1.955   3.447  0.00  0.00    -0.500 OA
BRANCH  18  24
ATOM     20  C   LIG    1       -2.865   2.241   7.772  0.00  0.00    +0.140 C 
ATOM     21  C   LIG    1       -2.388   1.411   6.609  0.00  0.00    +0.170 A 
ATOM     22  C   LIG    1       -1.889   0.141   6.839  0.00  0.00    -0.030 A 
ATOM     23  C   LIG    1       -1.452  -0.620   5.769  0.00  0.00    +0.150 A 
ATOM     24  C   LIG    1       -1.533  -0.067   4.485  0.00  0.00    -0.190 A 
ATOM     25  C   LIG    1       -2.044   1.224   4.338  0.00  0.00    +0.340 A 
ATOM     26  N   LIG    1       -2.453   1.906   5.388  0.00  0.00    -0.490 NA
ENDBRANCH  18  24
ENDBRANCH  17  18
ENDBRANCH  15  17
ENDBRANCH   1  15
TORSDOF 6
