REMARK  Name = ZINCrD00000F5Lvs.0
REMARK                            x       y       z     vdW  Elec       q    Type
REMARK                         _______ _______ _______ _____ _____    ______ ____
ROOT
ATOM      1  N   LIG    1       -4.694   1.584   1.161  0.00  0.00    -0.460 N 
ATOM      2  C   LIG    1       -5.319   2.005  -0.101  0.00  0.00    +0.200 C 
ATOM      3  C   LIG    1       -4.553   1.389  -1.275  0.00  0.00    +0.250 C 
ATOM      4  O   LIG    1       -3.179   1.775  -1.196  0.00  0.00    -0.360 OA
ATOM      5  C   LIG    1       -2.538   1.380   0.020  0.00  0.00    +0.280 C 
ATOM      6  C   LIG    1       -3.283   1.996   1.207  0.00  0.00    +0.210 C 
ENDROOT
BRANCH   5   7
ATOM      7  C   LIG    1       -1.111   1.863   0.017  0.00  0.00    +0.060 A 
ATOM      8  C   LIG    1       -0.013   1.076   0.008  0.00  0.00    +0.120 A 
ATOM      9  N   LIG    1        1.077   1.903   0.002  0.00  0.00    -0.360 N 
ATOM     10  C   LIG    1        2.421   1.660  -0.011  0.00  0.00    +0.090 A 
ATOM     11  C   LIG    1        3.303   2.681  -0.015  0.00  0.00    +0.010 A 
ATOM     12  C   LIG    1        2.849   4.010  -0.005  0.00  0.00    +0.050 A 
ATOM     13  C   LIG    1        1.514   4.266   0.009  0.00  0.00    +0.070 A 
ATOM     14  C   LIG    1        2.922   0.239  -0.023  0.00  0.00    +0.140 C 
ATOM     15  C   LIG    1        0.605   3.189   0.013  0.00  0.00    +0.230 A 
ATOM     16  N   LIG    1       -0.720   3.140   0.025  0.00  0.00    -0.470 NA
ENDBRANCH   5   7
BRANCH   1  22
ATOM     17  C   LIG    1       -7.555   4.318   5.505  0.00  0.00    +0.130 A 
ATOM     18  C   LIG    1       -7.710   3.026   5.996  0.00  0.00    -0.020 A 
ATOM     19  C   LIG    1       -7.188   1.950   5.308  0.00  0.00    +0.090 A 
ATOM     20  C   LIG    1       -6.506   2.154   4.120  0.00  0.00    -0.020 A 
ATOM     21  O   LIG    1       -5.897   1.327   3.237  0.00  0.00    -0.200 OA
ATOM     22  C   LIG    1       -5.387   2.076   2.244  0.00  0.00    +0.430 A 
ATOM     23  N   LIG    1       -5.642   3.342   2.458  0.00  0.00    -0.490 NA
ATOM     24  C   LIG    1       -6.346   3.454   3.618  0.00  0.00    +0.070 A 
ATOM     25  C   LIG    1       -6.876   4.537   4.321  0.00  0.00    +0.050 A 
BRANCH  17  27
ATOM     26  C   LIG    1       -8.762   5.075   7.409  0.00  0.00    +0.240 C 
ATOM     27  O   LIG    1       -8.073   5.370   6.193  0.00  0.00    -0.310 OA
ENDBRANCH  17  27
ENDBRANCH   1  22
TORSDOF 3
