REMARK  Name = ZINCpe00000bcT8B.0
REMARK                            x       y       z     vdW  Elec       q    Type
REMARK                         _______ _______ _______ _____ _____    ______ ____
ROOT
ATOM      1  C   LIG    1       -1.600   3.619  -2.380  0.00  0.00    +0.530 C 
ATOM      2  N   LIG    1       -1.838   4.938  -2.528  0.00  0.00    -0.720 N 
ATOM      3  H   LIG    1       -1.557   5.561  -1.840  0.00  0.00    +0.410 HD
ATOM      4  O   LIG    1       -1.951   2.840  -3.240  0.00  0.00    -0.530 OA
ENDROOT
BRANCH   1   9
ATOM      5  C   LIG    1       -1.091   0.697   2.171  0.00  0.00    +0.550 C 
ATOM      6  N   LIG    1       -0.706   1.562   1.212  0.00  0.00    -0.610 N 
ATOM      7  C   LIG    1       -0.009   1.087   0.010  0.00  0.00    +0.280 C 
ATOM      8  C   LIG    1       -0.754   1.593  -1.229  0.00  0.00    +0.060 C 
ATOM      9  C   LIG    1       -0.897   3.114  -1.147  0.00  0.00    +0.000 C 
ATOM     10  C   LIG    1       -1.714   3.485   0.093  0.00  0.00    +0.030 C 
ATOM     11  C   LIG    1       -0.980   3.000   1.347  0.00  0.00    +0.280 C 
ATOM     12  O   LIG    1       -0.947  -0.499   2.004  0.00  0.00    -0.540 OA
BRANCH   5  14
ATOM     13  C   LIG    1       -1.972   0.353   4.406  0.00  0.00    +0.140 C 
ATOM     14  C   LIG    1       -1.684   1.198   3.420  0.00  0.00    -0.090 C 
ENDBRANCH   5  14
ENDBRANCH   1   9
BRANCH   2  15
ATOM     15  C   LIG    1       -2.521   5.429  -3.727  0.00  0.00    +0.290 C 
BRANCH  15  16
ATOM     16  C   LIG    1       -1.499   5.638  -4.847  0.00  0.00    +0.010 C 
ATOM     17  C   LIG    1       -0.455   6.666  -4.402  0.00  0.00    +0.000 C 
ATOM     18  C   LIG    1        0.515   6.929  -5.557  0.00  0.00    +0.210 C 
ATOM     19  O   LIG    1       -0.214   7.378  -6.700  0.00  0.00    -0.380 OA
ATOM     20  C   LIG    1       -1.171   6.436  -7.189  0.00  0.00    +0.210 C 
ATOM     21  C   LIG    1       -2.211   6.156  -6.100  0.00  0.00    +0.020 C 
ENDBRANCH  15  16
BRANCH  15  22
ATOM     22  C   LIG    1       -3.201   6.738  -3.417  0.00  0.00    +0.460 C 
ATOM     23  O   LIG    1       -3.123   7.211  -2.309  0.00  0.00    -0.500 OA
BRANCH  22  24
ATOM     24  O   LIG    1       -3.893   7.377  -4.373  0.00  0.00    -0.340 OA
BRANCH  24  25
ATOM     25  C   LIG    1       -4.522   8.633  -4.004  0.00  0.00    +0.200 C 
ATOM     26  C   LIG    1       -5.260   9.209  -5.214  0.00  0.00    +0.070 C 
ENDBRANCH  24  25
ENDBRANCH  22  24
ENDBRANCH  15  22
ENDBRANCH   2  15
TORSDOF 7
