REMARK  Name = ZINCrg000000nkAm.0
REMARK                            x       y       z     vdW  Elec       q    Type
REMARK                         _______ _______ _______ _____ _____    ______ ____
ROOT
ATOM      1  C   LIG    1       -1.224   1.951   0.887  0.00  0.00    -0.090 A 
ATOM      2  C   LIG    1       -0.475   2.756   1.727  0.00  0.00    +0.020 A 
ATOM      3  C   LIG    1       -0.953   3.087   2.978  0.00  0.00    +0.030 A 
ATOM      4  C   LIG    1       -2.190   2.597   3.401  0.00  0.00    -0.120 A 
ATOM      5  C   LIG    1       -2.938   1.781   2.551  0.00  0.00    +0.080 A 
ATOM      6  C   LIG    1       -2.451   1.463   1.300  0.00  0.00    +0.030 A 
ENDROOT
BRANCH   4   7
ATOM      7  C   LIG    1       -2.706   2.941   4.743  0.00  0.00    +0.560 C 
ATOM      8  N   LIG    1       -2.294   4.070   5.354  0.00  0.00    -0.600 N 
ATOM      9  C   LIG    1       -2.918   4.491   6.630  0.00  0.00    +0.290 C 
ATOM     10  C   LIG    1       -2.027   4.167   7.761  0.00  0.00    -0.000 C 
ATOM     11  C   LIG    1       -0.654   4.847   7.621  0.00  0.00    +0.290 C 
ATOM     12  N   LIG    1        0.119   4.091   6.678  0.00  0.00    -0.990 NA
ATOM     13  C   LIG    1        0.159   4.436   5.230  0.00  0.00    +0.270 C 
ATOM     14  C   LIG    1       -1.254   4.866   4.765  0.00  0.00    +0.270 C 
ATOM     15  O   LIG    1       -3.501   2.207   5.295  0.00  0.00    -0.530 OA
BRANCH  12  16
ATOM     16  S   LIG    1        0.996   2.794   7.217  0.00  0.00    +2.600 S 
ATOM     17  O   LIG    1        1.107   1.949   6.080  0.00  0.00    -0.950 OA
ATOM     18  O   LIG    1        0.308   2.366   8.384  0.00  0.00    -0.950 OA
ATOM     19  C   LIG    1        2.614   3.491   7.652  0.00  0.00    -0.280 C 
ENDBRANCH  12  16
ENDBRANCH   4   7
BRANCH   1  20
ATOM     20  C   LIG    1       -0.698   1.600  -0.481  0.00  0.00    +0.340 C 
BRANCH  20  24
ATOM     21  N   LIG    1       -1.212   3.415  -3.637  0.00  0.00    -0.740 N 
ATOM     22  H   LIG    1       -1.763   4.157  -3.345  0.00  0.00    +0.390 HD
ATOM     23  C   LIG    1       -0.797   2.493  -2.746  0.00  0.00    +0.700 C 
ATOM     24  N   LIG    1       -1.149   2.602  -1.449  0.00  0.00    -0.740 N 
ATOM     25  H   LIG    1       -1.700   3.345  -1.158  0.00  0.00    +0.400 HD
ATOM     26  O   LIG    1       -0.106   1.561  -3.111  0.00  0.00    -0.590 OA
BRANCH  21  28
ATOM     27  C   LIG    1       -1.859   4.018  -5.917  0.00  0.00    +0.030 C 
ATOM     28  C   LIG    1       -0.830   3.295  -5.046  0.00  0.00    +0.240 C 
ATOM     29  C   LIG    1        0.549   3.925  -5.256  0.00  0.00    +0.030 C 
ENDBRANCH  21  28
ENDBRANCH  20  24
ENDBRANCH   1  20
TORSDOF 5
