REMARK  Name = ZINCrD0000075tqc.0
REMARK                            x       y       z     vdW  Elec       q    Type
REMARK                         _______ _______ _______ _____ _____    ______ ____
ROOT
ATOM      1  C   LIG    1        3.067   8.107   0.017  0.00  0.00    +0.130 C 
ENDROOT
BRANCH   1   3
ATOM      2  O   LIG    1        1.232   9.591   0.042  0.00  0.00    -0.510 OA
ATOM      3  C   LIG    1        1.595   8.434   0.032  0.00  0.00    +0.580 C 
ATOM      4  N   LIG    1        0.684   7.441   0.036  0.00  0.00    -0.470 N 
ATOM      5  C   LIG    1       -0.776   7.619   0.050  0.00  0.00    +0.260 C 
ATOM      6  C   LIG    1       -1.317   6.175   0.041  0.00  0.00    +0.090 C 
ATOM      7  C   LIG    1       -0.070   5.320   0.031  0.00  0.00    +0.150 C 
ATOM      8  N   LIG    1        0.972   6.077   0.026  0.00  0.00    -0.240 NA
BRANCH   7   9
ATOM      9  C   LIG    1       -0.050   3.845   0.023  0.00  0.00    -0.040 A 
ATOM     10  C   LIG    1        1.167   3.160   0.008  0.00  0.00    +0.050 A 
ATOM     11  C   LIG    1        1.178   1.781   0.000  0.00  0.00    +0.010 A 
ATOM     12  C   LIG    1       -0.013   1.076   0.008  0.00  0.00    +0.030 A 
ATOM     13  C   LIG    1       -1.222   1.748   0.017  0.00  0.00    +0.010 A 
ATOM     14  C   LIG    1       -1.248   3.127   0.030  0.00  0.00    +0.040 A 
ENDBRANCH   7   9
ENDBRANCH   1   3
BRANCH   1  15
ATOM     15  S   LIG    1        4.026   9.642   0.016  0.00  0.00    +0.140 S 
BRANCH  15  16
ATOM     16  C   LIG    1        5.659   8.982  -0.002  0.00  0.00    +0.120 A 
ATOM     17  N   LIG    1        5.985   7.711  -0.012  0.00  0.00    -0.290 NA
ATOM     18  N   LIG    1        7.267   7.601  -0.024  0.00  0.00    -0.270 NA
ATOM     19  C   LIG    1        7.806   8.784  -0.023  0.00  0.00    +0.180 A 
ATOM     20  O   LIG    1        6.806   9.687  -0.015  0.00  0.00    -0.200 OA
BRANCH  19  21
ATOM     21  C   LIG    1        9.282   9.090  -0.035  0.00  0.00    +0.250 C 
BRANCH  21  22
ATOM     22  C   LIG    1        9.760   9.199  -1.460  0.00  0.00    -0.100 A 
ATOM     23  C   LIG    1       10.228   8.078  -2.120  0.00  0.00    +0.030 A 
ATOM     24  C   LIG    1       10.662   8.178  -3.428  0.00  0.00    +0.010 A 
ATOM     25  C   LIG    1       10.639   9.400  -4.073  0.00  0.00    +0.010 A 
ATOM     26  C   LIG    1       10.176  10.522  -3.412  0.00  0.00    +0.010 A 
ATOM     27  C   LIG    1        9.737  10.422  -2.105  0.00  0.00    +0.010 A 
ENDBRANCH  21  22
ENDBRANCH  19  21
ENDBRANCH  15  16
ENDBRANCH   1  15
TORSDOF 6
