REMARK  Name = ZINCkj000005lqUR.0
REMARK                            x       y       z     vdW  Elec       q    Type
REMARK                         _______ _______ _______ _____ _____    ______ ____
ROOT
ATOM      1  C   LIG    1        1.732   2.845  -1.129  0.00  0.00    +0.530 C 
ATOM      2  N   LIG    1        1.229   2.119  -0.110  0.00  0.00    -0.620 N 
ATOM      3  C   LIG    1       -0.167   1.655  -0.127  0.00  0.00    +0.310 C 
ATOM      4  C   LIG    1       -0.188   0.122  -0.155  0.00  0.00    +0.330 C 
ATOM      5  N   LIG    1        0.760  -0.392   0.837  0.00  0.00    -0.360 N 
ATOM      6  N   LIG    1        0.798  -1.676   1.386  0.00  0.00    -0.270 NA
ATOM      7  C   LIG    1        1.802  -1.732   2.226  0.00  0.00    +0.280 A 
ATOM      8  C   LIG    1        2.434  -0.481   2.239  0.00  0.00    -0.230 A 
ATOM      9 BR   LIG    1        3.943  -0.006   3.274  0.00  0.00    -0.010 Br
ATOM     10  C   LIG    1        1.773   0.321   1.383  0.00  0.00    +0.090 A 
ATOM     11  C   LIG    1        2.062   1.767   1.055  0.00  0.00    +0.390 C 
ATOM     12  O   LIG    1        1.030   3.124  -2.079  0.00  0.00    -0.520 OA
ENDROOT
BRANCH   1  17
ATOM     13  C   LIG    1        5.413   5.789  -2.124  0.00  0.00    +0.170 C 
ATOM     14  C   LIG    1        5.657   5.008  -0.822  0.00  0.00    +0.080 C 
ATOM     15  C   LIG    1        4.237   5.412  -0.405  0.00  0.00    +0.030 C 
ATOM     16  C   LIG    1        3.376   4.247   0.109  0.00  0.00    +0.070 C 
ATOM     17  C   LIG    1        3.165   3.309  -1.088  0.00  0.00    +0.000 C 
ATOM     18  C   LIG    1        3.490   4.110  -2.356  0.00  0.00    +0.070 C 
ATOM     19  C   LIG    1        3.912   5.520  -1.913  0.00  0.00    +0.000 C 
BRANCH  13  20
ATOM     20  N   LIG    1        5.966   5.135  -3.317  0.00  0.00    -0.630 N 
ATOM     21  H   LIG    1        5.952   4.134  -3.189  0.00  0.00    +0.430 HD
ATOM     22  H   LIG    1        6.917   5.442  -3.459  0.00  0.00    +0.440 HD
ATOM     23  H   LIG    1        5.410   5.379  -4.123  0.00  0.00    +0.440 HD
ENDBRANCH  13  20
ENDBRANCH   1  17
TORSDOF 2
