REMARK  Name = ZINCrD000006fivP.0
REMARK                            x       y       z     vdW  Elec       q    Type
REMARK                         _______ _______ _______ _____ _____    ______ ____
ROOT
ATOM      1  C   LIG    1       -6.711   3.405  -2.503  0.00  0.00    +0.520 C 
ATOM      2  N   LIG    1       -7.033   4.711  -2.591  0.00  0.00    -0.610 N 
ATOM      3  C   LIG    1       -6.531   5.668  -1.596  0.00  0.00    +0.280 C 
ATOM      4  C   LIG    1       -5.739   6.765  -2.330  0.00  0.00    +0.060 C 
ATOM      5  C   LIG    1       -6.583   7.277  -3.476  0.00  0.00    -0.100 C 
ATOM      6  C   LIG    1       -7.143   6.275  -4.462  0.00  0.00    +0.070 C 
ATOM      7  C   LIG    1       -6.827   8.573  -3.613  0.00  0.00    +0.000 C 
ATOM      8  C   LIG    1       -7.895   5.192  -3.678  0.00  0.00    +0.270 C 
ATOM      9  O   LIG    1       -5.938   3.027  -1.648  0.00  0.00    -0.530 OA
ENDROOT
BRANCH   1  14
ATOM     10  C   LIG    1       -9.435  -1.070  -3.930  0.00  0.00    +0.550 C 
ATOM     11  N   LIG    1       -8.740   0.067  -4.133  0.00  0.00    -0.610 N 
ATOM     12  C   LIG    1       -9.434   1.356  -4.256  0.00  0.00    +0.270 C 
ATOM     13  C   LIG    1       -8.823   2.338  -3.245  0.00  0.00    +0.040 C 
ATOM     14  C   LIG    1       -7.311   2.415  -3.468  0.00  0.00    -0.010 C 
ATOM     15  C   LIG    1       -6.689   1.036  -3.235  0.00  0.00    +0.050 C 
ATOM     16  C   LIG    1       -7.275   0.040  -4.240  0.00  0.00    +0.280 C 
ATOM     17  O   LIG    1       -8.846  -2.117  -3.740  0.00  0.00    -0.540 OA
BRANCH  10  19
ATOM     18  C   LIG    1      -11.591  -2.181  -3.838  0.00  0.00    +0.140 C 
ATOM     19  C   LIG    1      -10.906  -1.045  -3.940  0.00  0.00    -0.090 C 
ENDBRANCH  10  19
ENDBRANCH   1  14
BRANCH   7  20
ATOM     20  C   LIG    1       -6.140   9.551  -2.743  0.00  0.00    -0.030 A 
ATOM     21  C   LIG    1       -4.815   9.337  -2.361  0.00  0.00    +0.050 A 
ATOM     22  C   LIG    1       -4.176  10.252  -1.549  0.00  0.00    +0.030 A 
ATOM     23  C   LIG    1       -4.848  11.382  -1.112  0.00  0.00    +0.070 A 
ATOM     24  C   LIG    1       -6.166  11.600  -1.489  0.00  0.00    +0.070 A 
ATOM     25  F   LIG    1       -6.816  12.704  -1.060  0.00  0.00    -0.130 F 
ATOM     26  F   LIG    1       -4.218  12.274  -0.317  0.00  0.00    -0.130 F 
ATOM     27  C   LIG    1       -6.812  10.693  -2.305  0.00  0.00    +0.030 A 
ENDBRANCH   7  20
TORSDOF 3
