REMARK  Name = ZINCnE000001OGnx.0
REMARK                            x       y       z     vdW  Elec       q    Type
REMARK                         _______ _______ _______ _____ _____    ______ ____
ROOT
ATOM      1  S   LIG    1       -1.520   2.250  -0.397  0.00  0.00    +2.630 S 
ATOM      2  O   LIG    1       -2.355   1.403  -1.174  0.00  0.00    -1.010 OA
ATOM      3  O   LIG    1       -1.174   3.571  -0.789  0.00  0.00    -1.010 OA
ENDROOT
BRANCH   1  12
ATOM      4  C   LIG    1        1.188   3.585  -0.219  0.00  0.00    +0.110 C 
ATOM      5  C   LIG    1        1.189   2.082  -0.108  0.00  0.00    +0.030 A 
ATOM      6  C   LIG    1        2.381   1.402   0.061  0.00  0.00    +0.000 A 
ATOM      7  C   LIG    1        2.381   0.023   0.163  0.00  0.00    -0.040 A 
ATOM      8  C   LIG    1        1.189  -0.676   0.096  0.00  0.00    +0.000 A 
ATOM      9  C   LIG    1       -0.002   0.005  -0.072  0.00  0.00    +0.030 A 
ATOM     10  C   LIG    1       -1.301  -0.756  -0.145  0.00  0.00    +0.120 C 
ATOM     11 BR   LIG    1        4.011  -0.908   0.395  0.00  0.00    -0.060 Br
ATOM     12  C   LIG    1       -0.002   1.383  -0.174  0.00  0.00    -0.620 A 
ENDBRANCH   1  12
BRANCH   1  13
ATOM     13  N   LIG    1       -2.235   2.376   1.091  0.00  0.00    -1.060 NA
BRANCH  13  14
ATOM     14  C   LIG    1       -3.463   3.021   1.221  0.00  0.00    +0.360 A 
ATOM     15  C   LIG    1       -4.067   3.128   2.474  0.00  0.00    +0.020 A 
ATOM     16  C   LIG    1       -5.287   3.779   2.553  0.00  0.00    +0.030 A 
ATOM     17  C   LIG    1       -5.835   4.286   1.376  0.00  0.00    +0.170 A 
ATOM     18  N   LIG    1       -5.190   4.138   0.232  0.00  0.00    -0.260 NA
ATOM     19  N   LIG    1       -4.056   3.540   0.158  0.00  0.00    -0.340 NA
BRANCH  17  20
ATOM     20  O   LIG    1       -7.029   4.931   1.404  0.00  0.00    -0.310 OA
BRANCH  20  21
ATOM     21  C   LIG    1       -7.530   5.425   0.160  0.00  0.00    +0.170 C 
ATOM     22  C   LIG    1       -7.027   6.853  -0.061  0.00  0.00    +0.010 C 
ATOM     23  C   LIG    1       -9.059   5.421   0.189  0.00  0.00    +0.040 C 
ENDBRANCH  20  21
ENDBRANCH  17  20
ENDBRANCH  13  14
ENDBRANCH   1  13
TORSDOF 5
