REMARK  Name = ZINCrD000000ArQJ.0
REMARK                            x       y       z     vdW  Elec       q    Type
REMARK                         _______ _______ _______ _____ _____    ______ ____
ROOT
ATOM      1  O   LIG    1        7.124   2.247   1.024  0.00  0.00    -0.480 OA
ATOM      2  C   LIG    1        6.063   2.542   0.516  0.00  0.00    +0.510 C 
ATOM      3  N   LIG    1        5.896   3.761  -0.036  0.00  0.00    -0.670 N 
ATOM      4  H   LIG    1        5.068   3.977  -0.492  0.00  0.00    +0.410 HD
ENDROOT
BRANCH   3   5
ATOM      5  C   LIG    1        6.919   4.715   0.050  0.00  0.00    +0.110 A 
ATOM      6  C   LIG    1        6.604   6.060   0.184  0.00  0.00    +0.010 A 
ATOM      7  C   LIG    1        7.612   7.000   0.273  0.00  0.00    +0.010 A 
ATOM      8  C   LIG    1        8.940   6.600   0.217  0.00  0.00    +0.110 A 
ATOM      9  C   LIG    1        9.255   5.255   0.078  0.00  0.00    -0.030 A 
ATOM     10  C   LIG    1        8.248   4.315  -0.006  0.00  0.00    +0.050 A 
BRANCH   8  11
ATOM     11  N   LIG    1        9.962   7.553   0.302  0.00  0.00    -0.500 N 
ATOM     12  C   LIG    1       11.269   6.963  -0.064  0.00  0.00    +0.180 C 
ATOM     13  C   LIG    1       12.428   7.861   0.269  0.00  0.00    +0.040 C 
ATOM     14  C   LIG    1       12.960   7.477   1.666  0.00  0.00    +0.000 C 
ATOM     15  C   LIG    1       12.131   8.016   2.738  0.00  0.00    +0.000 C 
ATOM     16  C   LIG    1       10.684   7.483   2.680  0.00  0.00    -0.010 C 
ATOM     17  C   LIG    1        9.940   8.239   1.613  0.00  0.00    +0.210 C 
ENDBRANCH   8  11
ENDBRANCH   3   5
BRANCH   2  18
ATOM     18  C   LIG    1        4.931   1.547   0.502  0.00  0.00    +0.250 C 
BRANCH  18  19
ATOM     19  O   LIG    1        5.351   0.340   1.141  0.00  0.00    -0.240 OA
BRANCH  19  20
ATOM     20  C   LIG    1        4.441  -0.668   1.214  0.00  0.00    +0.170 A 
ATOM     21  C   LIG    1        3.166  -0.507   0.681  0.00  0.00    +0.000 A 
ATOM     22  C   LIG    1        2.274  -1.563   0.780  0.00  0.00    +0.110 A 
ATOM     23  C   LIG    1        2.675  -2.729   1.404  0.00  0.00    +0.270 A 
ATOM     24  N   LIG    1        3.893  -2.851   1.893  0.00  0.00    -0.380 NA
ATOM     25  C   LIG    1        4.772  -1.871   1.820  0.00  0.00    +0.110 A 
BRANCH  25  26
ATOM     26  N   LIG    1        6.011  -2.041   2.342  0.00  0.00    +0.060 N 
ATOM     27  O   LIG    1        6.307  -3.095   2.876  0.00  0.00    -0.160 OA
ATOM     28  O   LIG    1        6.827  -1.140   2.278  0.00  0.00    -0.140 OA
ENDBRANCH  25  26
ENDBRANCH  19  20
ENDBRANCH  18  19
ENDBRANCH   2  18
TORSDOF 6
