REMARK  Name = ZINCrD0000073zLf.0
REMARK                            x       y       z     vdW  Elec       q    Type
REMARK                         _______ _______ _______ _____ _____    ______ ____
ROOT
ATOM      1  C   LIG    1       -5.944  -5.412   0.443  0.00  0.00    +0.110 A 
ATOM      2  C   LIG    1       -4.799  -4.730   0.057  0.00  0.00    -0.060 A 
ATOM      3  C   LIG    1       -4.819  -3.353  -0.037  0.00  0.00    +0.060 A 
ATOM      4  C   LIG    1       -5.983  -2.651   0.249  0.00  0.00    +0.110 A 
ATOM      5  C   LIG    1       -7.128  -3.330   0.637  0.00  0.00    -0.070 A 
ATOM      6  C   LIG    1       -8.406  -2.601   0.955  0.00  0.00    +0.090 C 
ATOM      7  C   LIG    1       -8.119  -1.138   1.290  0.00  0.00    +0.030 C 
ATOM      8  C   LIG    1       -7.260  -0.533   0.173  0.00  0.00    +0.280 C 
ATOM      9  N   LIG    1       -5.977  -1.250   0.155  0.00  0.00    -0.550 N 
ATOM     10  C   LIG    1       -4.816  -0.575   0.046  0.00  0.00    +0.520 C 
ATOM     11  O   LIG    1       -3.768  -1.180  -0.034  0.00  0.00    -0.500 OA
ATOM     12  C   LIG    1       -7.104  -4.711   0.731  0.00  0.00    +0.000 A 
ENDROOT
BRANCH   1  14
ATOM     13  C   LIG    1       -4.697  -7.425   0.226  0.00  0.00    +0.250 C 
ATOM     14  O   LIG    1       -5.927  -6.768   0.538  0.00  0.00    -0.320 OA
ENDBRANCH   1  14
BRANCH  10  15
ATOM     15  C   LIG    1       -4.819   0.932   0.022  0.00  0.00    +0.280 C 
BRANCH  15  16
ATOM     16  O   LIG    1       -3.452   1.419   0.017  0.00  0.00    -0.330 OA
BRANCH  16  17
ATOM     17  C   LIG    1       -3.278   2.756  -0.003  0.00  0.00    +0.540 C 
ATOM     18  O   LIG    1       -4.244   3.494  -0.016  0.00  0.00    -0.510 OA
BRANCH  17  19
ATOM     19  C   LIG    1       -1.923   3.320  -0.009  0.00  0.00    -0.230 A 
ATOM     20  C   LIG    1       -0.749   2.625   0.003  0.00  0.00    +0.340 A 
ATOM     21  N   LIG    1        0.294   3.488  -0.009  0.00  0.00    -0.570 N 
ATOM     22  H   LIG    1        1.228   3.227  -0.003  0.00  0.00    +0.420 HD
ATOM     23  C   LIG    1       -0.159   4.792  -0.030  0.00  0.00    +0.080 A 
ATOM     24  C   LIG    1        0.487   6.023  -0.049  0.00  0.00    +0.010 A 
ATOM     25  C   LIG    1       -0.252   7.186  -0.067  0.00  0.00    +0.030 A 
ATOM     26  C   LIG    1       -1.638   7.143  -0.068  0.00  0.00    +0.000 A 
ATOM     27  C   LIG    1       -2.296   5.933  -0.050  0.00  0.00    +0.060 A 
ATOM     28  C   LIG    1       -1.562   4.750  -0.031  0.00  0.00    -0.060 A 
ENDBRANCH  17  19
ENDBRANCH  16  17
ENDBRANCH  15  16
ENDBRANCH  10  15
TORSDOF 5
