REMARK  Name = ZINCrD000000CuzA.0
REMARK                            x       y       z     vdW  Elec       q    Type
REMARK                         _______ _______ _______ _____ _____    ______ ____
ROOT
ATOM      1  O   LIG    1        8.566  -0.075   0.976  0.00  0.00    -0.500 OA
ATOM      2  C   LIG    1        8.215   0.424  -0.072  0.00  0.00    +0.530 C 
ATOM      3  N   LIG    1        7.450   1.533  -0.068  0.00  0.00    -0.610 N 
ATOM      4  C   LIG    1        6.937   2.084   1.194  0.00  0.00    +0.300 C 
ATOM      5  C   LIG    1        5.417   2.241   1.082  0.00  0.00    +0.040 C 
ATOM      6  C   LIG    1        5.085   3.083  -0.152  0.00  0.00    +0.130 C 
ATOM      7  C   LIG    1        5.591   2.371  -1.409  0.00  0.00    +0.030 C 
ATOM      8  C   LIG    1        7.112   2.215  -1.325  0.00  0.00    +0.280 C 
ENDROOT
BRANCH   2   9
ATOM      9  C   LIG    1        8.634  -0.197  -1.380  0.00  0.00    +0.140 C 
ATOM     10  C   LIG    1        7.420  -0.849  -2.057  0.00  0.00    +0.250 C 
ATOM     11  O   LIG    1        7.855  -1.440  -3.286  0.00  0.00    -0.300 OA
ATOM     12  C   LIG    1        8.995  -2.181  -3.239  0.00  0.00    +0.040 A 
ATOM     13  C   LIG    1        9.281  -3.058  -4.274  0.00  0.00    +0.030 A 
ATOM     14  C   LIG    1       10.438  -3.812  -4.244  0.00  0.00    +0.020 A 
ATOM     15  C   LIG    1       11.314  -3.696  -3.181  0.00  0.00    +0.030 A 
ATOM     16  C   LIG    1       11.036  -2.824  -2.145  0.00  0.00    +0.030 A 
ATOM     17  C   LIG    1        9.876  -2.065  -2.169  0.00  0.00    +0.050 A 
ATOM     18  O   LIG    1        9.613  -1.214  -1.140  0.00  0.00    -0.280 OA
ENDBRANCH   2   9
BRANCH   6  19
ATOM     19  C   LIG    1        3.592   3.268  -0.246  0.00  0.00    +0.250 A 
ATOM     20  N   LIG    1        2.984   4.415  -0.229  0.00  0.00    -0.470 NA
ATOM     21  C   LIG    1        1.644   4.203  -0.333  0.00  0.00    +0.020 A 
ATOM     22  C   LIG    1        0.532   5.045  -0.367  0.00  0.00    +0.080 A 
ATOM     23  C   LIG    1       -0.730   4.506  -0.482  0.00  0.00    +0.020 A 
ATOM     24  C   LIG    1       -0.902   3.133  -0.570  0.00  0.00    +0.050 A 
ATOM     25  C   LIG    1        0.188   2.288  -0.533  0.00  0.00    +0.050 A 
ATOM     26  C   LIG    1        1.465   2.813  -0.417  0.00  0.00    +0.010 A 
ATOM     27  O   LIG    1        2.701   2.270  -0.359  0.00  0.00    -0.210 OA
ENDBRANCH   6  19
TORSDOF 2
