REMARK  Name = ZINCvU0000000H8p.0
REMARK                            x       y       z     vdW  Elec       q    Type
REMARK                         _______ _______ _______ _____ _____    ______ ____
ROOT
ATOM      1  C   LIG    1       -4.502  -0.392   2.878  0.00  0.00    +0.140 A 
ATOM      2  C   LIG    1       -5.641  -1.170   3.042  0.00  0.00    -0.040 A 
ATOM      3  C   LIG    1       -6.381  -1.554   1.946  0.00  0.00    +0.050 A 
ATOM      4  C   LIG    1       -5.984  -1.160   0.661  0.00  0.00    -0.110 A 
ATOM      5  C   LIG    1       -4.836  -0.370   0.498  0.00  0.00    +0.020 A 
ATOM      6  C   LIG    1       -4.100   0.005   1.602  0.00  0.00    +0.100 A 
ENDROOT
BRANCH   1   8
ATOM      7  C   LIG    1       -4.245  -0.458   5.239  0.00  0.00    +0.250 C 
ATOM      8  O   LIG    1       -3.777  -0.017   3.963  0.00  0.00    -0.300 OA
ENDBRANCH   1   8
BRANCH   4   9
ATOM      9  C   LIG    1       -6.768  -1.567  -0.507  0.00  0.00    +0.260 C 
ATOM     10  C   LIG    1       -8.124  -1.782  -0.386  0.00  0.00    -0.140 C 
BRANCH  10  11
ATOM     11  C   LIG    1       -8.884  -2.338  -1.516  0.00  0.00    +0.580 C 
ATOM     12  N   LIG    1      -10.210  -2.549  -1.397  0.00  0.00    -0.670 N 
ATOM     13  H   LIG    1      -10.676  -2.265  -0.596  0.00  0.00    +0.410 HD
ATOM     14  O   LIG    1       -8.316  -2.609  -2.557  0.00  0.00    -0.510 OA
BRANCH  12  15
ATOM     15  C   LIG    1      -10.914  -3.176  -2.431  0.00  0.00    +0.130 A 
ATOM     16  C   LIG    1      -10.562  -2.943  -3.754  0.00  0.00    +0.060 A 
ATOM     17  C   LIG    1      -11.256  -3.567  -4.773  0.00  0.00    +0.010 A 
ATOM     18  C   LIG    1      -12.307  -4.417  -4.476  0.00  0.00    +0.090 A 
ATOM     19  C   LIG    1      -12.663  -4.648  -3.157  0.00  0.00    +0.010 A 
ATOM     20  F   LIG    1      -12.988  -5.022  -5.474  0.00  0.00    -0.140 F 
ATOM     21  C   LIG    1      -11.969  -4.030  -2.136  0.00  0.00    +0.030 A 
ENDBRANCH  12  15
ENDBRANCH  10  11
BRANCH  10  22
ATOM     22  C   LIG    1       -8.793  -1.463   0.839  0.00  0.00    +0.240 C 
ATOM     23  N   LIG    1       -9.323  -1.210   1.811  0.00  0.00    -0.400 NA
ENDBRANCH  10  22
ENDBRANCH   4   9
BRANCH   6  24
ATOM     24  O   LIG    1       -2.983   0.766   1.448  0.00  0.00    -0.290 OA
BRANCH  24  25
ATOM     25  C   LIG    1       -2.630   1.136   0.113  0.00  0.00    +0.260 C 
BRANCH  25  26
ATOM     26  C   LIG    1       -1.376   1.972   0.139  0.00  0.00    -0.090 A 
ATOM     27  C   LIG    1       -0.138   1.363   0.052  0.00  0.00    +0.060 A 
ATOM     28  C   LIG    1        1.012   2.129   0.069  0.00  0.00    +0.030 A 
ATOM     29  C   LIG    1        0.924   3.505   0.180  0.00  0.00    -0.020 A 
ATOM     30  C   LIG    1       -0.315   4.114   0.273  0.00  0.00    +0.030 A 
ATOM     31 CL   LIG    1        2.369   4.468   0.202  0.00  0.00    -0.060 Cl
ATOM     32  C   LIG    1       -1.464   3.346   0.256  0.00  0.00    +0.060 A 
ENDBRANCH  25  26
ENDBRANCH  24  25
ENDBRANCH   6  24
TORSDOF 8
