REMARK  Name = ZINCpe00000MJJVO.0
REMARK                            x       y       z     vdW  Elec       q    Type
REMARK                         _______ _______ _______ _____ _____    ______ ____
ROOT
ATOM      1  C   LIG    1       -0.013   1.086   0.008  0.00  0.00    +0.360 C 
ATOM      2  N   LIG    1       -0.698   1.558   1.213  0.00  0.00    -0.360 N 
ATOM      3  N   LIG    1       -0.098   1.835   2.450  0.00  0.00    -0.290 NA
ATOM      4  C   LIG    1       -1.031   2.231   3.281  0.00  0.00    +0.250 A 
ATOM      5  C   LIG    1       -2.246   2.218   2.602  0.00  0.00    -0.260 A 
ATOM      6  C   LIG    1       -3.611   2.587   3.131  0.00  0.00    +0.360 C 
ATOM      7  N   LIG    1       -4.520   2.672   1.974  0.00  0.00    -0.980 NA
ATOM      8  C   LIG    1       -4.452   1.616   0.952  0.00  0.00    +0.330 C 
ATOM      9  C   LIG    1       -3.079   1.663   0.271  0.00  0.00    +0.110 C 
ATOM     10  C   LIG    1       -2.014   1.809   1.329  0.00  0.00    +0.110 A 
ENDROOT
BRANCH   6  11
ATOM     11  C   LIG    1       -4.094   1.527   4.088  0.00  0.00    +0.520 C 
ATOM     12  N   LIG    1       -3.385   1.249   5.199  0.00  0.00    -0.730 N 
ATOM     13  H   LIG    1       -2.564   1.731   5.384  0.00  0.00    +0.400 HD
ATOM     14  O   LIG    1       -5.121   0.924   3.857  0.00  0.00    -0.520 OA
BRANCH  12  15
ATOM     15  C   LIG    1       -3.854   0.219   6.129  0.00  0.00    +0.260 C 
BRANCH  15  16
ATOM     16  C   LIG    1       -2.875   0.102   7.298  0.00  0.00    +0.040 C 
BRANCH  16  17
ATOM     17  C   LIG    1       -3.365  -0.974   8.269  0.00  0.00    +0.010 C 
ATOM     18  C   LIG    1       -4.372  -0.453   9.308  0.00  0.00    +0.050 C 
ATOM     19  C   LIG    1       -3.649  -1.343  10.336  0.00  0.00    +0.250 C 
ATOM     20  F   LIG    1       -3.495  -0.742  11.590  0.00  0.00    -0.190 F 
ATOM     21  F   LIG    1       -4.167  -2.640  10.414  0.00  0.00    -0.180 F 
ATOM     22  C   LIG    1       -2.403  -1.230   9.442  0.00  0.00    +0.040 C 
ENDBRANCH  16  17
ENDBRANCH  15  16
ENDBRANCH  12  15
ENDBRANCH   6  11
BRANCH   7  23
ATOM     23  S   LIG    1       -5.592   3.926   1.827  0.00  0.00    +2.610 S 
ATOM     24  O   LIG    1       -5.824   4.346   3.165  0.00  0.00    -0.950 OA
ATOM     25  O   LIG    1       -6.645   3.396   1.033  0.00  0.00    -0.940 OA
ATOM     26  C   LIG    1       -4.680   5.197   0.909  0.00  0.00    -0.280 C 
ENDBRANCH   7  23
TORSDOF 5
