REMARK  Name = ZINCqH0000032GOV.0
REMARK                            x       y       z     vdW  Elec       q    Type
REMARK                         _______ _______ _______ _____ _____    ______ ____
ROOT
ATOM      1  C   LIG    1       -0.013   1.086   0.008  0.00  0.00    +0.130 C 
ATOM      2  C   LIG    1       -0.835   1.635  -1.181  0.00  0.00    +0.080 C 
ATOM      3  C   LIG    1       -2.225   1.825  -0.614  0.00  0.00    +0.520 C 
ATOM      4  N   LIG    1       -2.183   1.808   0.730  0.00  0.00    -0.620 N 
ATOM      5  O   LIG    1       -3.231   1.971  -1.275  0.00  0.00    -0.520 OA
ATOM      6  C   LIG    1       -0.811   1.621   1.217  0.00  0.00    +0.290 C 
ENDROOT
BRANCH   1  10
ATOM      7  C   LIG    1        3.493   1.860  -0.013  0.00  0.00    +0.180 A 
ATOM      8  N   LIG    1        2.941   3.036  -0.018  0.00  0.00    -0.370 NA
ATOM      9  O   LIG    1        1.732   2.933  -0.011  0.00  0.00    +0.080 OA
ATOM     10  C   LIG    1        1.388   1.641  -0.002  0.00  0.00    +0.180 A 
ATOM     11  N   LIG    1        2.502   0.950   0.002  0.00  0.00    -0.460 NA
BRANCH   7  12
ATOM     12  C   LIG    1        4.971   1.569  -0.018  0.00  0.00    +0.170 C 
BRANCH  12  14
ATOM     13  C   LIG    1        4.723   0.383   2.176  0.00  0.00    +0.030 C 
ATOM     14  C   LIG    1        5.479   1.479   1.422  0.00  0.00    -0.060 C 
ATOM     15  C   LIG    1        5.292   2.836   2.134  0.00  0.00    +0.010 C 
ATOM     16  C   LIG    1        6.545   2.968   3.034  0.00  0.00    +0.020 C 
ATOM     17  C   LIG    1        7.666   2.368   2.149  0.00  0.00    +0.010 C 
ATOM     18  C   LIG    1        6.988   1.182   1.432  0.00  0.00    +0.030 C 
ENDBRANCH  12  14
ENDBRANCH   7  12
ENDBRANCH   1  10
BRANCH   4  19
ATOM     19  C   LIG    1       -3.355   1.957   1.596  0.00  0.00    +0.300 C 
BRANCH  19  20
ATOM     20  C   LIG    1       -3.572   3.438   1.909  0.00  0.00    +0.060 C 
BRANCH  20  21
ATOM     21  C   LIG    1       -4.778   3.592   2.800  0.00  0.00    -0.080 A 
ATOM     22  C   LIG    1       -6.031   3.769   2.243  0.00  0.00    +0.010 A 
ATOM     23  C   LIG    1       -7.138   3.904   3.060  0.00  0.00    +0.000 A 
ATOM     24  C   LIG    1       -6.990   3.874   4.434  0.00  0.00    +0.000 A 
ATOM     25  C   LIG    1       -5.737   3.702   4.991  0.00  0.00    +0.000 A 
ATOM     26  C   LIG    1       -4.631   3.561   4.174  0.00  0.00    +0.000 A 
ENDBRANCH  20  21
ENDBRANCH  19  20
ENDBRANCH   4  19
TORSDOF 6
