REMARK  Name = ZINCtV000018Q8Wz.0
REMARK                            x       y       z     vdW  Elec       q    Type
REMARK                         _______ _______ _______ _____ _____    ______ ____
ROOT
ATOM      1  C   LIG    1        0.002  -0.004   0.002  0.00  0.00    +0.070 A 
ATOM      2  C   LIG    1        1.214  -0.571  -0.013  0.00  0.00    -0.110 A 
ATOM      3  S   LIG    1        2.422   0.712  -0.017  0.00  0.00    +0.190 S 
ATOM      4  C   LIG    1        1.137   1.917   0.002  0.00  0.00    +0.090 A 
ATOM      5  N   LIG    1       -0.016   1.308   0.009  0.00  0.00    -0.460 NA
ENDROOT
BRANCH   4   6
ATOM      6  C   LIG    1        1.334   3.379   0.007  0.00  0.00    -0.010 A 
ATOM      7  C   LIG    1        0.242   4.232   0.016  0.00  0.00    +0.110 A 
ATOM      8  C   LIG    1        0.418   5.610   0.025  0.00  0.00    +0.030 A 
ATOM      9  C   LIG    1        1.665   6.160   0.017  0.00  0.00    +0.060 A 
ATOM     10  C   LIG    1        2.799   5.332   0.003  0.00  0.00    -0.100 A 
ATOM     11  C   LIG    1        4.099   5.873  -0.007  0.00  0.00    +0.130 A 
ATOM     12  C   LIG    1        5.157   5.010  -0.021  0.00  0.00    -0.010 A 
ATOM     13  C   LIG    1        4.932   3.635  -0.025  0.00  0.00    +0.220 A 
ATOM     14  N   LIG    1        3.718   3.135  -0.017  0.00  0.00    -0.480 NA
ATOM     15 CL   LIG    1        6.291   2.555  -0.043  0.00  0.00    -0.020 Cl
ATOM     16  C   LIG    1        2.643   3.925  -0.003  0.00  0.00    +0.160 A 
ENDBRANCH   4   6
BRANCH   1  21
ATOM     17  C   LIG    1       -3.046  -4.398  -0.943  0.00  0.00    +0.650 C 
ATOM     18  N   LIG    1       -2.787  -3.147  -0.514  0.00  0.00    -0.600 N 
ATOM     19  C   LIG    1       -2.943  -1.998  -1.416  0.00  0.00    +0.300 C 
ATOM     20  C   LIG    1       -1.638  -1.197  -1.426  0.00  0.00    +0.030 C 
ATOM     21  C   LIG    1       -1.264  -0.822   0.010  0.00  0.00    +0.080 C 
ATOM     22  C   LIG    1       -1.044  -2.094   0.831  0.00  0.00    +0.020 C 
ATOM     23  C   LIG    1       -2.342  -2.906   0.866  0.00  0.00    +0.280 C 
ATOM     24  O   LIG    1       -3.414  -4.584  -2.086  0.00  0.00    -0.570 OA
BRANCH  17  25
ATOM     25  O   LIG    1       -2.898  -5.441  -0.105  0.00  0.00    -0.360 OA
BRANCH  25  27
ATOM     26  C   LIG    1       -2.275  -7.051  -1.823  0.00  0.00    +0.040 C 
ATOM     27  C   LIG    1       -3.196  -6.760  -0.636  0.00  0.00    +0.140 C 
ATOM     28  C   LIG    1       -4.654  -6.807  -1.098  0.00  0.00    +0.040 C 
ATOM     29  C   LIG    1       -2.972  -7.810   0.454  0.00  0.00    +0.080 C 
ENDBRANCH  25  27
ENDBRANCH  17  25
ENDBRANCH   1  21
TORSDOF 4
