REMARK  Name = ZINCpe00000MJKbp.0
REMARK                            x       y       z     vdW  Elec       q    Type
REMARK                         _______ _______ _______ _____ _____    ______ ____
ROOT
ATOM      1  C   LIG    1        1.367   1.609   2.531  0.00  0.00    +0.620 C 
ATOM      2  N   LIG    1        2.164   1.304   1.488  0.00  0.00    -0.640 N 
ATOM      3  C   LIG    1        1.996   1.155   0.034  0.00  0.00    +0.270 C 
ATOM      4  C   LIG    1        3.477   1.538  -0.119  0.00  0.00    +0.000 C 
ATOM      5  C   LIG    1        3.584   0.970   1.302  0.00  0.00    +0.290 C 
ATOM      6  O   LIG    1        1.842   1.732   3.644  0.00  0.00    -0.510 OA
ENDROOT
BRANCH   1  13
ATOM      7  C   LIG    1       -4.625   1.690   2.948  0.00  0.00    +0.070 C 
ATOM      8  C   LIG    1       -3.599   0.793   2.252  0.00  0.00    +0.260 C 
ATOM      9  O   LIG    1       -3.412  -0.411   3.009  0.00  0.00    -0.370 OA
ATOM     10  C   LIG    1       -2.335  -1.239   2.565  0.00  0.00    +0.150 C 
ATOM     11  C   LIG    1       -0.992  -0.585   2.925  0.00  0.00    +0.100 C 
ATOM     12  C   LIG    1       -1.061   0.856   2.496  0.00  0.00    -0.150 A 
ATOM     13  C   LIG    1       -0.078   1.792   2.323  0.00  0.00    -0.010 A 
ATOM     14  N   LIG    1       -0.717   2.935   1.917  0.00  0.00    -0.280 N 
ATOM     15  N   LIG    1       -1.987   2.724   1.851  0.00  0.00    -0.250 NA
ATOM     16  C   LIG    1       -0.056   4.206   1.610  0.00  0.00    +0.360 C 
ATOM     17  C   LIG    1       -2.432  -2.606   3.243  0.00  0.00    +0.060 C 
ATOM     18  C   LIG    1       -2.268   1.500   2.179  0.00  0.00    +0.000 A 
ENDBRANCH   1  13
BRANCH   4  19
ATOM     19  C   LIG    1        4.225   0.725  -1.178  0.00  0.00    +0.200 C 
BRANCH  19  20
ATOM     20  N   LIG    1        4.155   1.420  -2.470  0.00  0.00    -0.540 NA
ATOM     21  C   LIG    1        2.775   1.454  -2.975  0.00  0.00    +0.140 C 
ATOM     22  C   LIG    1        2.738   2.237  -4.290  0.00  0.00    +0.220 C 
ATOM     23  O   LIG    1        3.641   1.637  -5.222  0.00  0.00    -0.380 OA
ATOM     24  C   LIG    1        4.995   1.589  -4.762  0.00  0.00    +0.220 C 
ATOM     25  C   LIG    1        5.055   0.799  -3.452  0.00  0.00    +0.160 C 
ENDBRANCH  19  20
ENDBRANCH   4  19
TORSDOF 3
