REMARK  Name = ZINCrg00000SjSEF.0
REMARK                            x       y       z     vdW  Elec       q    Type
REMARK                         _______ _______ _______ _____ _____    ______ ____
ROOT
ATOM      1  C   LIG    1        1.785   2.197   1.497  0.00  0.00    -0.030 C 
ATOM      2  C   LIG    1        1.432   2.052  -0.001  0.00  0.00    +0.050 C 
ATOM      3  C   LIG    1       -0.019   1.525   0.010  0.00  0.00    +0.150 C 
ATOM      4  O   LIG    1       -0.560   1.943   1.284  0.00  0.00    -0.340 OA
ATOM      5  C   LIG    1        0.002  -0.004   0.002  0.00  0.00    +0.150 C 
ATOM      6  C   LIG    1        0.908  -0.545   1.111  0.00  0.00    +0.010 C 
ATOM      7  C   LIG    1        0.413  -1.977   1.439  0.00  0.00    +0.240 C 
ATOM      8  N   LIG    1       -0.561  -1.857   2.541  0.00  0.00    -0.450 N 
ATOM      9  C   LIG    1       -0.680  -0.428   2.911  0.00  0.00    +0.240 C 
ATOM     10  C   LIG    1        0.646   0.199   2.439  0.00  0.00    -0.020 C 
ATOM     11  C   LIG    1        0.510   1.698   2.220  0.00  0.00    +0.230 C 
ENDROOT
BRANCH   8  12
ATOM     12  C   LIG    1       -1.790  -2.378   2.175  0.00  0.00    +0.490 A 
ATOM     13  N   LIG    1       -2.859  -1.596   2.202  0.00  0.00    -0.550 NA
ATOM     14  C   LIG    1       -4.047  -2.061   1.854  0.00  0.00    +0.340 A 
ATOM     15  C   LIG    1       -4.167  -3.387   1.469  0.00  0.00    -0.110 A 
ATOM     16  C   LIG    1       -3.030  -4.180   1.458  0.00  0.00    +0.340 A 
ATOM     17  N   LIG    1       -1.871  -3.650   1.812  0.00  0.00    -0.530 NA
ENDBRANCH   8  12
BRANCH   1  19
ATOM     18  O   LIG    1        1.321   4.233   2.597  0.00  0.00    -0.530 OA
ATOM     19  C   LIG    1        2.062   3.638   1.843  0.00  0.00    +0.520 C 
ATOM     20  N   LIG    1        3.131   4.264   1.314  0.00  0.00    -0.730 N 
ATOM     21  H   LIG    1        3.723   3.788   0.711  0.00  0.00    +0.400 HD
BRANCH  20  22
ATOM     22  C   LIG    1        3.400   5.665   1.650  0.00  0.00    +0.340 C 
BRANCH  22  23
ATOM     23  C   LIG    1        4.644   6.123   0.934  0.00  0.00    -0.130 A 
ATOM     24  C   LIG    1        5.861   6.017   1.469  0.00  0.00    -0.020 A 
ATOM     25  S   LIG    1        7.057   6.650   0.346  0.00  0.00    +0.110 S 
ATOM     26  C   LIG    1        5.800   7.043  -0.819  0.00  0.00    -0.040 A 
ATOM     27  C   LIG    1        4.610   6.692  -0.328  0.00  0.00    +0.010 A 
ENDBRANCH  22  23
ENDBRANCH  20  22
ENDBRANCH   1  19
BRANCH   5  28
ATOM     28  O   LIG    1        0.486  -0.460  -1.263  0.00  0.00    -0.560 OA
ATOM     29  H   LIG    1       -0.050  -0.175  -2.015  0.00  0.00    +0.380 HD
ENDBRANCH   5  28
TORSDOF 5
