REMARK  Name = ZINCtV00000kIT07.0
REMARK                            x       y       z     vdW  Elec       q    Type
REMARK                         _______ _______ _______ _____ _____    ______ ____
ROOT
ATOM      1  C   LIG    1       -0.340   2.603   8.364  0.00  0.00    +0.520 C 
ATOM      2  O   LIG    1       -1.553   2.549   8.434  0.00  0.00    -0.490 OA
ENDROOT
BRANCH   1   3
ATOM      3  C   LIG    1        0.472   2.426   9.573  0.00  0.00    -0.100 A 
ATOM      4  C   LIG    1        0.831   3.539  10.361  0.00  0.00    +0.000 A 
ATOM      5  C   LIG    1        0.410   4.836  10.018  0.00  0.00    +0.000 A 
ATOM      6  C   LIG    1        0.768   5.888  10.803  0.00  0.00    +0.040 A 
ATOM      7  C   LIG    1        1.540   5.715  11.950  0.00  0.00    +0.010 A 
ATOM      8  C   LIG    1        1.973   4.487  12.340  0.00  0.00    +0.050 A 
ATOM      9  C   LIG    1        1.637   3.354  11.569  0.00  0.00    -0.060 A 
ATOM     10  C   LIG    1        2.066   2.079  11.942  0.00  0.00    +0.090 A 
ATOM     11  C   LIG    1        1.721   0.972  11.164  0.00  0.00    -0.060 A 
ATOM     12  C   LIG    1        2.142  -0.327  11.521  0.00  0.00    +0.050 A 
ATOM     13  C   LIG    1        1.788  -1.383  10.743  0.00  0.00    +0.010 A 
ATOM     14  C   LIG    1        1.016  -1.219   9.595  0.00  0.00    +0.040 A 
ATOM     15  C   LIG    1        0.580   0.006   9.197  0.00  0.00    +0.000 A 
ATOM     16  C   LIG    1        0.910   1.141   9.957  0.00  0.00    +0.000 A 
ENDBRANCH   1   3
BRANCH   1  17
ATOM     17  O   LIG    1        0.259   2.826   7.176  0.00  0.00    -0.320 OA
BRANCH  17  18
ATOM     18  C   LIG    1       -0.608   2.992   6.023  0.00  0.00    +0.160 C 
ATOM     19  C   LIG    1       -0.962   4.471   5.859  0.00  0.00    +0.080 C 
BRANCH  18  20
ATOM     20  C   LIG    1        0.103   2.506   4.786  0.00  0.00    +0.400 C 
ATOM     21  O   LIG    1        1.302   2.321   4.809  0.00  0.00    -0.420 OA
BRANCH  20  26
ATOM     22  C   LIG    1       -2.862   1.538  -0.043  0.00  0.00    +0.100 C 
ATOM     23  C   LIG    1       -2.085   1.789   1.224  0.00  0.00    -0.050 A 
ATOM     24  C   LIG    1       -2.743   2.230   2.359  0.00  0.00    +0.000 A 
ATOM     25  C   LIG    1       -2.038   2.467   3.521  0.00  0.00    +0.050 A 
ATOM     26  C   LIG    1       -0.656   2.256   3.551  0.00  0.00    -0.170 A 
ATOM     27  C   LIG    1        0.001   1.804   2.401  0.00  0.00    +0.090 A 
ATOM     28  C   LIG    1       -0.718   1.572   1.248  0.00  0.00    -0.100 A 
ATOM     29  C   LIG    1       -0.013   1.086   0.008  0.00  0.00    +0.090 C 
ENDBRANCH  20  26
ENDBRANCH  18  20
ENDBRANCH  17  18
ENDBRANCH   1  17
TORSDOF 5
