REMARK  Name = ZINCpe000000Z5tU.0
REMARK                            x       y       z     vdW  Elec       q    Type
REMARK                         _______ _______ _______ _____ _____    ______ ____
ROOT
ATOM      1  C   LIG    1       -1.707   5.088  -2.239  0.00  0.00    +0.270 C 
ENDROOT
BRANCH   1   4
ATOM      2  O   LIG    1       -2.434   7.662  -2.587  0.00  0.00    -0.530 OA
ATOM      3  C   LIG    1       -2.669   6.922  -3.523  0.00  0.00    +0.560 C 
ATOM      4  N   LIG    1       -2.344   5.616  -3.448  0.00  0.00    -0.730 N 
ATOM      5  H   LIG    1       -2.531   5.026  -4.195  0.00  0.00    +0.400 HD
BRANCH   3   6
ATOM      6  C   LIG    1       -3.311   7.454  -4.741  0.00  0.00    -0.120 A 
ATOM      7  C   LIG    1       -3.649   8.807  -4.820  0.00  0.00    +0.100 A 
ATOM      8  C   LIG    1       -4.248   9.301  -5.959  0.00  0.00    +0.030 A 
ATOM      9  C   LIG    1       -4.516   8.456  -7.028  0.00  0.00    +0.100 A 
ATOM     10  C   LIG    1       -4.181   7.107  -6.954  0.00  0.00    +0.070 A 
ATOM     11  F   LIG    1       -4.442   6.288  -7.996  0.00  0.00    -0.130 F 
ATOM     12  C   LIG    1       -3.576   6.607  -5.820  0.00  0.00    +0.030 A 
BRANCH   9  13
ATOM     13  O   LIG    1       -5.105   8.947  -8.148  0.00  0.00    -0.490 OA
ATOM     14  H   LIG    1       -4.481   9.268  -8.813  0.00  0.00    +0.400 HD
ENDBRANCH   9  13
ENDBRANCH   3   6
ENDBRANCH   1   4
BRANCH   1  15
ATOM     15  C   LIG    1       -1.445   3.591  -2.413  0.00  0.00    +0.180 C 
BRANCH  15  16
ATOM     16  N   LIG    1       -0.806   3.062  -1.200  0.00  0.00    -0.540 NA
ATOM     17  C   LIG    1       -0.754   1.593  -1.231  0.00  0.00    +0.190 C 
ATOM     18  C   LIG    1       -0.013   1.086   0.008  0.00  0.00    +0.220 C 
ATOM     19  N   LIG    1       -0.701   1.560   1.216  0.00  0.00    -0.460 N 
ATOM     20  C   LIG    1       -0.754   3.029   1.247  0.00  0.00    +0.230 C 
ATOM     21  C   LIG    1       -1.495   3.536   0.008  0.00  0.00    +0.200 C 
BRANCH  19  22
ATOM     22  C   LIG    1       -0.099   1.061   2.358  0.00  0.00    +0.490 A 
ATOM     23  N   LIG    1        0.952   0.264   2.240  0.00  0.00    -0.550 NA
ATOM     24  C   LIG    1        1.554  -0.225   3.311  0.00  0.00    +0.340 A 
ATOM     25  C   LIG    1        1.065   0.096   4.568  0.00  0.00    -0.110 A 
ATOM     26  C   LIG    1       -0.040   0.928   4.655  0.00  0.00    +0.350 A 
ATOM     27  N   LIG    1       -0.592   1.388   3.545  0.00  0.00    -0.530 NA
ENDBRANCH  19  22
ENDBRANCH  15  16
ENDBRANCH   1  15
TORSDOF 6
