REMARK  Name = ZINCqH0000051uH4.0
REMARK                            x       y       z     vdW  Elec       q    Type
REMARK                         _______ _______ _______ _____ _____    ______ ____
ROOT
ATOM      1  O   LIG    1       -4.731  -0.738   0.498  0.00  0.00    -0.520 OA
ATOM      2  C   LIG    1       -4.915   0.463   0.448  0.00  0.00    +0.570 C 
ATOM      3  N   LIG    1       -6.166   0.957   0.523  0.00  0.00    -0.630 N 
ATOM      4  H   LIG    1       -6.313   1.915   0.483  0.00  0.00    +0.410 HD
ENDROOT
BRANCH   2   5
ATOM      5  C   LIG    1       -3.765   1.381   0.305  0.00  0.00    -0.140 A 
ATOM      6  C   LIG    1       -3.974   2.761   0.248  0.00  0.00    +0.080 A 
ATOM      7  C   LIG    1       -2.901   3.621   0.115  0.00  0.00    +0.000 A 
ATOM      8  C   LIG    1       -1.615   3.123   0.037  0.00  0.00    +0.110 A 
ATOM      9  C   LIG    1       -1.392   1.745   0.093  0.00  0.00    -0.170 A 
ATOM     10  C   LIG    1       -2.470   0.872   0.222  0.00  0.00    +0.150 A 
BRANCH   9  11
ATOM     11  C   LIG    1       -0.014   1.213   0.009  0.00  0.00    +0.480 C 
ATOM     12  O   LIG    1        0.915   1.965  -0.218  0.00  0.00    -0.430 OA
BRANCH  11  13
ATOM     13  C   LIG    1        0.232  -0.217   0.204  0.00  0.00    -0.110 A 
ATOM     14  C   LIG    1        1.446  -0.857   0.076  0.00  0.00    +0.050 A 
ATOM     15  C   LIG    1        1.214  -2.212   0.355  0.00  0.00    -0.070 A 
ATOM     16  C   LIG    1       -0.104  -2.345   0.626  0.00  0.00    +0.220 A 
ATOM     17  O   LIG    1       -0.691  -1.145   0.535  0.00  0.00    -0.150 OA
ENDBRANCH  11  13
ENDBRANCH   9  11
ENDBRANCH   2   5
BRANCH   3  18
ATOM     18  C   LIG    1       -7.258   0.085   0.658  0.00  0.00    +0.210 A 
ATOM     19  C   LIG    1       -7.196  -1.264   0.726  0.00  0.00    +0.150 A 
ATOM     20  N   LIG    1       -8.487  -1.712   0.855  0.00  0.00    -0.450 N 
ATOM     21  C   LIG    1       -9.289  -0.627   0.861  0.00  0.00    +0.410 A 
ATOM     22  N   LIG    1       -8.550   0.444   0.750  0.00  0.00    -0.510 NA
BRANCH  20  23
ATOM     23  C   LIG    1       -8.914  -3.109   0.965  0.00  0.00    +0.310 C 
BRANCH  23  24
ATOM     24  C   LIG    1       -8.947  -3.518   2.439  0.00  0.00    -0.030 C 
ATOM     25  C   LIG    1       -7.600  -4.044   2.962  0.00  0.00    +0.010 C 
ATOM     26  C   LIG    1       -8.403  -5.101   3.737  0.00  0.00    +0.010 C 
ATOM     27  C   LIG    1       -9.501  -4.933   2.674  0.00  0.00    +0.030 C 
ENDBRANCH  23  24
ENDBRANCH  20  23
ENDBRANCH   3  18
TORSDOF 6
