REMARK  Name = ZINCvU0000000HCc.0
REMARK                            x       y       z     vdW  Elec       q    Type
REMARK                         _______ _______ _______ _____ _____    ______ ____
ROOT
ATOM      1  C   LIG    1        2.489   1.041  -0.045  0.00  0.00    +0.140 C 
ENDROOT
BRANCH   1   2
ATOM      2  C   LIG    1        1.177   1.782  -0.021  0.00  0.00    -0.050 A 
ATOM      3  C   LIG    1       -0.013   1.076  -0.015  0.00  0.00    +0.040 A 
ATOM      4  C   LIG    1       -1.218   1.748   0.001  0.00  0.00    +0.050 A 
ATOM      5  C   LIG    1       -1.234   3.143   0.023  0.00  0.00    -0.130 A 
ATOM      6  C   LIG    1       -0.031   3.850   0.017  0.00  0.00    +0.090 A 
ATOM      7  C   LIG    1        1.167   3.165  -0.004  0.00  0.00    +0.040 A 
BRANCH   5   8
ATOM      8  C   LIG    1       -2.522   3.870   0.046  0.00  0.00    +0.560 C 
ATOM      9  N   LIG    1       -3.682   3.185   0.051  0.00  0.00    -0.670 N 
ATOM     10  H   LIG    1       -3.675   2.218  -0.027  0.00  0.00    +0.410 HD
ATOM     11  O   LIG    1       -2.533   5.085   0.060  0.00  0.00    -0.510 OA
BRANCH   9  12
ATOM     12  C   LIG    1       -4.897   3.868   0.171  0.00  0.00    +0.140 A 
ATOM     13  C   LIG    1       -5.952   3.295   0.870  0.00  0.00    -0.010 A 
ATOM     14  C   LIG    1       -7.148   3.974   0.991  0.00  0.00    +0.030 A 
ATOM     15  C   LIG    1       -7.300   5.219   0.407  0.00  0.00    -0.010 A 
ATOM     16  C   LIG    1       -6.253   5.790  -0.294  0.00  0.00    +0.030 A 
ATOM     17  C   LIG    1       -5.053   5.118  -0.413  0.00  0.00    +0.020 A 
ENDBRANCH   9  12
ENDBRANCH   5   8
ENDBRANCH   1   2
BRANCH   1  18
ATOM     18  S   LIG    1        2.995   0.764  -1.764  0.00  0.00    +0.050 S 
BRANCH  18  21
ATOM     19  C   LIG    1        6.351  -1.128  -2.122  0.00  0.00    +0.300 A 
ATOM     20  N   LIG    1        5.291  -0.528  -2.600  0.00  0.00    -0.510 NA
ATOM     21  C   LIG    1        4.522  -0.099  -1.594  0.00  0.00    +0.210 A 
ATOM     22  N   LIG    1        5.095  -0.422  -0.458  0.00  0.00    -0.310 NA
ATOM     23  N   LIG    1        6.283  -1.096  -0.781  0.00  0.00    -0.460 N 
ATOM     24  H   LIG    1        6.930  -1.464  -0.158  0.00  0.00    +0.450 HD
BRANCH  19  25
ATOM     25  C   LIG    1        7.457  -1.748  -2.936  0.00  0.00    +0.360 C 
BRANCH  25  26
ATOM     26  O   LIG    1        8.439  -2.305  -2.060  0.00  0.00    -0.320 OA
BRANCH  26  33
ATOM     27  C   LIG    1       10.398  -3.403  -0.344  0.00  0.00    +0.100 C 
ATOM     28  C   LIG    1       10.506  -3.465  -1.846  0.00  0.00    -0.110 A 
ATOM     29  C   LIG    1       11.592  -4.081  -2.436  0.00  0.00    +0.050 A 
ATOM     30  C   LIG    1       11.695  -4.133  -3.814  0.00  0.00    -0.020 A 
ATOM     31  C   LIG    1       10.709  -3.573  -4.605  0.00  0.00    +0.050 A 
ATOM     32  C   LIG    1        9.617  -2.961  -4.020  0.00  0.00    -0.070 A 
ATOM     33  C   LIG    1        9.512  -2.907  -2.638  0.00  0.00    +0.130 A 
ENDBRANCH  26  33
ENDBRANCH  25  26
ENDBRANCH  19  25
ENDBRANCH  18  21
ENDBRANCH   1  18
TORSDOF 8
