REMARK  Name = ZINCqH0000006O8m.0
REMARK                            x       y       z     vdW  Elec       q    Type
REMARK                         _______ _______ _______ _____ _____    ______ ____
ROOT
ATOM      1  N   LIG    1       -1.974   2.548   3.429  0.00  0.00    -0.660 N 
ATOM      2  H   LIG    1       -1.971   1.590   3.277  0.00  0.00    +0.420 HD
ATOM      3  C   LIG    1       -2.507   3.050   4.561  0.00  0.00    +0.530 C 
ATOM      4  O   LIG    1       -2.602   4.250   4.706  0.00  0.00    -0.510 OA
ENDROOT
BRANCH   1  12
ATOM      5  C   LIG    1       -1.341   3.014   1.139  0.00  0.00    +0.110 A 
ATOM      6  C   LIG    1       -0.800   3.873   0.196  0.00  0.00    -0.040 A 
ATOM      7  C   LIG    1       -0.337   5.119   0.580  0.00  0.00    -0.020 A 
ATOM      8  C   LIG    1       -0.413   5.511   1.904  0.00  0.00    -0.090 A 
ATOM      9  C   LIG    1       -0.952   4.659   2.850  0.00  0.00    +0.070 A 
ATOM     10  C   LIG    1        0.093   6.869   2.317  0.00  0.00    +0.100 C 
ATOM     11 CL   LIG    1        0.340   6.194  -0.604  0.00  0.00    -0.060 Cl
ATOM     12  C   LIG    1       -1.422   3.411   2.472  0.00  0.00    +0.130 A 
BRANCH   5  14
ATOM     13  C   LIG    1       -1.685   1.452  -0.621  0.00  0.00    +0.260 C 
ATOM     14  O   LIG    1       -1.796   1.789   0.763  0.00  0.00    -0.320 OA
ENDBRANCH   5  14
ENDBRANCH   1  12
BRANCH   3  15
ATOM     15  C   LIG    1       -2.987   2.119   5.644  0.00  0.00    +0.010 C 
ATOM     16  C   LIG    1       -1.823   1.261   6.192  0.00  0.00    +0.090 C 
ATOM     17  C   LIG    1       -2.108   1.149   7.673  0.00  0.00    +0.530 C 
ATOM     18  N   LIG    1       -3.006   2.079   8.042  0.00  0.00    -0.580 N 
ATOM     19  O   LIG    1       -1.601   0.339   8.420  0.00  0.00    -0.510 OA
ATOM     20  C   LIG    1       -3.414   2.908   6.902  0.00  0.00    +0.310 C 
BRANCH  18  21
ATOM     21  C   LIG    1       -3.490   2.237   9.347  0.00  0.00    +0.110 A 
ATOM     22  C   LIG    1       -2.834   3.077  10.235  0.00  0.00    +0.060 A 
ATOM     23  C   LIG    1       -3.317   3.235  11.520  0.00  0.00    +0.020 A 
ATOM     24  C   LIG    1       -4.447   2.548  11.926  0.00  0.00    +0.060 A 
ATOM     25  C   LIG    1       -5.100   1.705  11.046  0.00  0.00    -0.010 A 
ATOM     26  C   LIG    1       -4.626   1.547   9.757  0.00  0.00    +0.110 A 
ATOM     27  F   LIG    1       -5.265   0.723   8.897  0.00  0.00    -0.130 F 
ENDBRANCH  18  21
ENDBRANCH   3  15
TORSDOF 4
