REMARK  Name = ZINCrH000004rkJE.0
REMARK                            x       y       z     vdW  Elec       q    Type
REMARK                         _______ _______ _______ _____ _____    ______ ____
ROOT
ATOM      1  N   LIG    1        5.263   7.282  -0.703  0.00  0.00    -0.550 N 
ATOM      2  C   LIG    1        5.622   6.475  -1.702  0.00  0.00    +0.530 C 
ATOM      3  C   LIG    1        4.967   5.152  -1.976  0.00  0.00    +0.080 C 
ATOM      4  C   LIG    1        3.613   5.084  -1.265  0.00  0.00    +0.080 C 
ATOM      5  C   LIG    1        3.809   5.519   0.193  0.00  0.00    +0.010 C 
ATOM      6  O   LIG    1        6.526   6.830  -2.429  0.00  0.00    -0.530 OA
ATOM      7  C   LIG    1        4.164   7.006   0.220  0.00  0.00    +0.350 C 
ENDROOT
BRANCH   1  12
ATOM      8  C   LIG    1        8.188  12.089   0.018  0.00  0.00    +0.100 C 
ATOM      9  C   LIG    1        7.411  10.812  -0.173  0.00  0.00    -0.090 A 
ATOM     10  C   LIG    1        8.075   9.600  -0.217  0.00  0.00    +0.010 A 
ATOM     11  C   LIG    1        7.366   8.428  -0.392  0.00  0.00    +0.040 A 
ATOM     12  C   LIG    1        5.984   8.467  -0.525  0.00  0.00    +0.140 A 
ATOM     13  C   LIG    1        5.321   9.687  -0.487  0.00  0.00    +0.000 A 
ATOM     14  C   LIG    1        6.035  10.855  -0.306  0.00  0.00    +0.010 A 
ENDBRANCH   1  12
BRANCH   7  15
ATOM     15  C   LIG    1        4.571   7.395   1.618  0.00  0.00    -0.230 A 
ATOM     16  C   LIG    1        3.831   8.119   2.460  0.00  0.00    +0.030 A 
ATOM     17  C   LIG    1        4.413   8.351   3.695  0.00  0.00    +0.000 A 
ATOM     18  C   LIG    1        5.625   7.817   3.854  0.00  0.00    -0.070 A 
ATOM     19  S   LIG    1        6.089   6.959   2.391  0.00  0.00    +0.190 S 
ENDBRANCH   7  15
BRANCH   5  20
ATOM     20  C   LIG    1        4.927   4.721   0.813  0.00  0.00    +0.520 C 
ATOM     21  N   LIG    1        4.645   3.667   1.604  0.00  0.00    -0.630 N 
ATOM     22  H   LIG    1        3.722   3.422   1.774  0.00  0.00    +0.420 HD
ATOM     23  O   LIG    1        6.081   5.027   0.600  0.00  0.00    -0.460 OA
BRANCH  21  24
ATOM     24  C   LIG    1        5.670   2.935   2.172  0.00  0.00    +0.390 C 
ATOM     25  N   LIG    1        5.512   1.917   2.937  0.00  0.00    -0.570 NA
ATOM     26  C   LIG    1        6.667   1.232   3.473  0.00  0.00    +0.260 C 
ATOM     27  C   LIG    1        7.973   1.888   2.998  0.00  0.00    +0.060 C 
ATOM     28  S   LIG    1        7.393   3.262   1.952  0.00  0.00    -0.080 S 
ENDBRANCH  21  24
ENDBRANCH   5  20
TORSDOF 4
