REMARK  Name = ZINCrg00000BdBl3.0
REMARK                            x       y       z     vdW  Elec       q    Type
REMARK                         _______ _______ _______ _____ _____    ______ ____
ROOT
ATOM      1  S   LIG    1        2.995   2.117   2.226  0.00  0.00    +2.610 S 
ATOM      2  O   LIG    1        3.052   1.236   3.340  0.00  0.00    -0.940 OA
ATOM      3  O   LIG    1        2.295   3.351   2.304  0.00  0.00    -0.940 OA
ENDROOT
BRANCH   1   9
ATOM      4  O   LIG    1       -1.282  -0.141  -1.770  0.00  0.00    -0.540 OA
ATOM      5  C   LIG    1       -0.662  -0.725  -0.906  0.00  0.00    +0.550 C 
ATOM      6  N   LIG    1        0.000  -0.026   0.037  0.00  0.00    -0.610 N 
ATOM      7  C   LIG    1       -0.020   1.443   0.031  0.00  0.00    +0.290 C 
ATOM      8  C   LIG    1        1.427   1.953   0.014  0.00  0.00    +0.290 C 
ATOM      9  N   LIG    1        2.181   1.259   1.067  0.00  0.00    -1.000 NA
ATOM     10  C   LIG    1        2.201  -0.211   1.073  0.00  0.00    +0.290 C 
ATOM     11  C   LIG    1        0.755  -0.720   1.090  0.00  0.00    +0.280 C 
BRANCH   5  12
ATOM     12  C   LIG    1       -0.633  -2.231  -0.888  0.00  0.00    -0.070 C 
ATOM     13  C   LIG    1        0.127  -2.937  -2.013  0.00  0.00    +0.060 C 
ATOM     14  C   LIG    1       -1.403  -2.966  -1.987  0.00  0.00    +0.070 C 
ENDBRANCH   5  12
ENDBRANCH   1   9
BRANCH   1  15
ATOM     15  C   LIG    1        4.650   2.367   1.527  0.00  0.00    -0.470 C 
ATOM     16  C   LIG    1        4.537   3.149   0.216  0.00  0.00    +0.070 C 
ATOM     17  C   LIG    1        5.930   3.332  -0.392  0.00  0.00    +0.030 C 
ATOM     18  C   LIG    1        6.804   4.135   0.576  0.00  0.00    +0.270 C 
ATOM     19  N   LIG    1        6.800   3.465   1.884  0.00  0.00    -0.610 N 
ATOM     20  C   LIG    1        7.957   3.136   2.491  0.00  0.00    +0.520 C 
ATOM     21  O   LIG    1        7.943   2.660   3.607  0.00  0.00    -0.530 OA
ATOM     22  C   LIG    1        5.509   3.159   2.517  0.00  0.00    +0.320 C 
BRANCH  20  23
ATOM     23  C   LIG    1        9.269   3.360   1.784  0.00  0.00    -0.010 C 
ATOM     24  C   LIG    1        9.619   2.132   0.919  0.00  0.00    +0.030 C 
ATOM     25  C   LIG    1       11.156   1.998   1.053  0.00  0.00    +0.020 C 
ATOM     26  C   LIG    1       11.403   2.369   2.537  0.00  0.00    +0.020 C 
ATOM     27  C   LIG    1       10.403   3.511   2.813  0.00  0.00    +0.030 C 
ENDBRANCH  20  23
ENDBRANCH   1  15
TORSDOF 4
