REMARK  Name = ZINCpe00000MJHYv.0
REMARK                            x       y       z     vdW  Elec       q    Type
REMARK                         _______ _______ _______ _____ _____    ______ ____
ROOT
ATOM      1  C   LIG    1       -2.469  -2.754   0.624  0.00  0.00    +0.100 C 
ATOM      2  C   LIG    1       -2.595  -4.134  -0.057  0.00  0.00    +0.280 C 
ATOM      3  N   LIG    1       -1.822  -4.076  -1.306  0.00  0.00    -0.620 N 
ATOM      4  C   LIG    1       -1.247  -2.726  -1.445  0.00  0.00    +0.250 C 
ATOM      5  C   LIG    1       -1.665  -5.090  -2.180  0.00  0.00    +0.560 C 
ATOM      6  O   LIG    1       -2.186  -6.164  -1.963  0.00  0.00    -0.530 OA
ATOM      7  C   LIG    1       -1.169  -2.178   0.002  0.00  0.00    +0.250 C 
ENDROOT
BRANCH   1  12
ATOM      8  C   LIG    1       -1.374  -4.553   5.180  0.00  0.00    +0.330 C 
ATOM      9  N   LIG    1       -1.846  -3.690   4.095  0.00  0.00    -0.460 N 
ATOM     10  C   LIG    1       -2.432  -2.481   4.229  0.00  0.00    +0.400 A 
ATOM     11  N   LIG    1       -2.714  -2.018   3.041  0.00  0.00    -0.480 NA
ATOM     12  C   LIG    1       -2.323  -2.907   2.116  0.00  0.00    +0.000 A 
ATOM     13  C   LIG    1       -1.783  -3.963   2.755  0.00  0.00    +0.130 A 
ENDBRANCH   1  12
BRANCH   5  14
ATOM     14  C   LIG    1       -0.843  -4.890  -3.426  0.00  0.00    -0.080 C 
ATOM     15  C   LIG    1       -1.580  -4.888  -4.767  0.00  0.00    +0.060 C 
ATOM     16  C   LIG    1       -0.702  -6.080  -4.379  0.00  0.00    +0.070 C 
ENDBRANCH   5  14
BRANCH   7  17
ATOM     17  N   LIG    1       -1.189  -0.713   0.010  0.00  0.00    -0.680 N 
ATOM     18  H   LIG    1       -2.035  -0.239   0.021  0.00  0.00    +0.420 HD
BRANCH  17  19
ATOM     19  C   LIG    1        0.002  -0.004   0.002  0.00  0.00    +0.390 A 
ATOM     20  C   LIG    1        1.221  -0.687  -0.013  0.00  0.00    +0.170 A 
ATOM     21  N   LIG    1        2.352  -0.015  -0.021  0.00  0.00    -0.360 NA
ATOM     22  C   LIG    1        2.336   1.317  -0.014  0.00  0.00    +0.060 A 
ATOM     23  C   LIG    1        1.118   1.999   0.002  0.00  0.00    +0.350 A 
ATOM     24  N   LIG    1       -0.016   1.324   0.009  0.00  0.00    -0.500 NA
BRANCH  22  25
ATOM     25  C   LIG    1        3.567   2.049  -0.022  0.00  0.00    +0.270 C 
ATOM     26  N   LIG    1        4.543   2.630  -0.029  0.00  0.00    -0.390 NA
ENDBRANCH  22  25
ENDBRANCH  17  19
ENDBRANCH   7  17
TORSDOF 5
