REMARK  Name = ZINCqH00000396SO.0
REMARK                            x       y       z     vdW  Elec       q    Type
REMARK                         _______ _______ _______ _____ _____    ______ ____
ROOT
ATOM      1  C   LIG    1        7.815   2.757  -2.100  0.00  0.00    +0.050 C 
ATOM      2  C   LIG    1        6.698   2.737  -3.146  0.00  0.00    +0.020 C 
ATOM      3  C   LIG    1        5.907   4.047  -3.067  0.00  0.00    +0.270 C 
ATOM      4  N   LIG    1        5.438   4.233  -1.687  0.00  0.00    -0.620 N 
ATOM      5  C   LIG    1        6.419   4.185  -0.595  0.00  0.00    +0.270 C 
ATOM      6  C   LIG    1        4.133   4.450  -1.429  0.00  0.00    +0.510 C 
ATOM      7  O   LIG    1        3.333   4.493  -2.339  0.00  0.00    -0.530 OA
ATOM      8  C   LIG    1        7.204   2.869  -0.701  0.00  0.00    +0.020 C 
ENDROOT
BRANCH   1  12
ATOM      9  C   LIG    1        9.997  -0.856  -2.358  0.00  0.00    +0.400 A 
ATOM     10  C   LIG    1       10.675   0.342  -2.562  0.00  0.00    -0.110 A 
ATOM     11  C   LIG    1        9.975   1.532  -2.481  0.00  0.00    +0.100 A 
ATOM     12  C   LIG    1        8.617   1.485  -2.198  0.00  0.00    -0.190 A 
ATOM     13  C   LIG    1        8.009   0.261  -2.001  0.00  0.00    +0.310 A 
ATOM     14  N   LIG    1        8.700  -0.860  -2.090  0.00  0.00    -0.540 NA
BRANCH   9  15
ATOM     15  N   LIG    1       10.688  -2.060  -2.436  0.00  0.00    -0.850 N 
ATOM     16  H   LIG    1       10.220  -2.898  -2.295  0.00  0.00    +0.400 HD
ATOM     17  H   LIG    1       11.638  -2.062  -2.632  0.00  0.00    +0.410 HD
ENDBRANCH   9  15
ENDBRANCH   1  12
BRANCH   6  18
ATOM     18  C   LIG    1        3.668   4.640  -0.008  0.00  0.00    +0.140 C 
BRANCH  18  19
ATOM     19  C   LIG    1        2.178   4.864   0.007  0.00  0.00    -0.150 A 
ATOM     20  C   LIG    1        1.548   6.050   0.019  0.00  0.00    +0.240 A 
ATOM     21  N   LIG    1        0.194   5.859   0.031  0.00  0.00    -0.590 N 
ATOM     22  H   LIG    1       -0.469   6.567   0.040  0.00  0.00    +0.420 HD
ATOM     23  C   LIG    1       -0.090   4.511   0.026  0.00  0.00    +0.100 A 
ATOM     24  C   LIG    1       -1.275   3.783   0.034  0.00  0.00    +0.010 A 
ATOM     25  C   LIG    1       -1.236   2.406   0.021  0.00  0.00    +0.050 A 
ATOM     26  C   LIG    1       -0.021   1.732   0.012  0.00  0.00    -0.060 A 
ATOM     27  C   LIG    1        1.164   2.433   0.004  0.00  0.00    +0.070 A 
ATOM     28 CL   LIG    1        0.002  -0.004   0.002  0.00  0.00    -0.070 Cl
ATOM     29  C   LIG    1        1.141   3.829   0.011  0.00  0.00    -0.080 A 
ENDBRANCH  18  19
ENDBRANCH   6  18
TORSDOF 4
