REMARK  Name = ZINCnE00000hdbrO.0
REMARK                            x       y       z     vdW  Elec       q    Type
REMARK                         _______ _______ _______ _____ _____    ______ ____
ROOT
ATOM      1  N   LIG    1        0.356   7.020   4.865  0.00  0.00    -0.390 N 
ATOM      2  N   LIG    1       -0.455   6.176   5.630  0.00  0.00    -0.240 NA
ATOM      3  C   LIG    1       -0.842   5.158   4.916  0.00  0.00    +0.280 A 
ATOM      4  C   LIG    1       -0.266   5.308   3.584  0.00  0.00    -0.230 A 
ATOM      5  C   LIG    1       -0.323   4.557   2.405  0.00  0.00    +0.150 A 
ATOM      6  C   LIG    1        0.367   5.014   1.313  0.00  0.00    -0.150 A 
ATOM      7  C   LIG    1        1.086   6.197   1.401  0.00  0.00    +0.340 A 
ATOM      8  N   LIG    1        1.127   6.897   2.514  0.00  0.00    -0.510 NA
ATOM      9  C   LIG    1        0.483   6.502   3.605  0.00  0.00    +0.300 A 
ENDROOT
BRANCH   1  11
ATOM     10  C   LIG    1       -0.120   9.235   5.787  0.00  0.00    +0.040 C 
ATOM     11  C   LIG    1        0.972   8.262   5.338  0.00  0.00    +0.270 C 
ATOM     12  C   LIG    1        1.899   7.956   6.516  0.00  0.00    +0.040 C 
ENDBRANCH   1  11
BRANCH   6  13
ATOM     13  C   LIG    1        0.342   4.237   0.021  0.00  0.00    +0.260 C 
BRANCH  13  14
ATOM     14  N   LIG    1        1.449   3.279   0.005  0.00  0.00    -0.610 NA
ATOM     15  C   LIG    1        1.202   1.992   0.001  0.00  0.00    +0.330 A 
ATOM     16  N   LIG    1       -0.017   1.373   0.010  0.00  0.00    -0.490 NA
ATOM     17  N   LIG    1        0.002  -0.004   0.002  0.00  0.00    -0.190 NA
ATOM     18  C   LIG    1        1.138  -0.611  -0.012  0.00  0.00    -0.170 A 
ATOM     19  S   LIG    1        2.374   0.659  -0.017  0.00  0.00    -0.090 S 
BRANCH  18  20
ATOM     20  C   LIG    1        1.369  -2.100  -0.022  0.00  0.00    +0.580 C 
ATOM     21  F   LIG    1        2.103  -2.466   1.111  0.00  0.00    -0.180 F 
ATOM     22  F   LIG    1        2.082  -2.454  -1.173  0.00  0.00    -0.180 F 
ATOM     23  F   LIG    1        0.138  -2.764  -0.015  0.00  0.00    -0.170 F 
ENDBRANCH  18  20
ENDBRANCH  13  14
ENDBRANCH   6  13
TORSDOF 4
