REMARK  Name = ZINCrD00000F5LrL.0
REMARK                            x       y       z     vdW  Elec       q    Type
REMARK                         _______ _______ _______ _____ _____    ______ ____
ROOT
ATOM      1  N   LIG    1       -0.343   0.407  -2.482  0.00  0.00    -0.610 N 
ATOM      2  C   LIG    1        0.034  -0.518  -3.373  0.00  0.00    +0.510 C 
ATOM      3  C   LIG    1        0.894   0.440  -4.141  0.00  0.00    +0.160 C 
ATOM      4  O   LIG    1       -0.226  -1.695  -3.509  0.00  0.00    -0.480 OA
ATOM      5  C   LIG    1        0.438   1.465  -3.110  0.00  0.00    +0.320 C 
ENDROOT
BRANCH   5   6
ATOM      6  C   LIG    1       -0.406   2.568  -3.693  0.00  0.00    -0.070 A 
ATOM      7  C   LIG    1        0.151   3.810  -3.934  0.00  0.00    +0.060 A 
ATOM      8  C   LIG    1       -0.621   4.824  -4.469  0.00  0.00    +0.030 A 
ATOM      9  C   LIG    1       -1.954   4.597  -4.763  0.00  0.00    +0.080 A 
ATOM     10  C   LIG    1       -2.513   3.351  -4.522  0.00  0.00    +0.070 A 
ATOM     11  F   LIG    1       -3.814   3.126  -4.809  0.00  0.00    -0.130 F 
ATOM     12  F   LIG    1       -2.709   5.587  -5.287  0.00  0.00    -0.130 F 
ATOM     13  C   LIG    1       -1.736   2.336  -3.992  0.00  0.00    +0.050 A 
ENDBRANCH   5   6
BRANCH   1  14
ATOM     14  C   LIG    1       -1.221   0.370  -1.310  0.00  0.00    +0.310 C 
BRANCH  14  15
ATOM     15  C   LIG    1       -0.401   0.013  -0.069  0.00  0.00    +0.020 C 
BRANCH  15  16
ATOM     16  C   LIG    1       -1.318  -0.025   1.155  0.00  0.00    +0.160 C 
BRANCH  16  18
ATOM     17  C   LIG    1       -1.317  -0.422   3.519  0.00  0.00    +0.200 C 
ATOM     18  O   LIG    1       -0.552  -0.360   2.315  0.00  0.00    -0.390 OA
ENDBRANCH  16  18
ENDBRANCH  15  16
ENDBRANCH  14  15
ENDBRANCH   1  14
BRANCH   3  19
ATOM     19  O   LIG    1        0.427   0.708  -5.465  0.00  0.00    -0.260 OA
BRANCH  19  20
ATOM     20  C   LIG    1        0.862  -0.120  -6.453  0.00  0.00    +0.090 A 
ATOM     21  C   LIG    1        1.631  -1.228  -6.141  0.00  0.00    -0.020 A 
ATOM     22  C   LIG    1        2.073  -2.069  -7.146  0.00  0.00    +0.010 A 
ATOM     23  C   LIG    1        1.748  -1.805  -8.463  0.00  0.00    +0.020 A 
ATOM     24  C   LIG    1        0.980  -0.700  -8.782  0.00  0.00    -0.040 A 
ATOM     25  C   LIG    1        0.530   0.142  -7.779  0.00  0.00    +0.110 A 
BRANCH  25  26
ATOM     26  O   LIG    1       -0.230   1.226  -8.090  0.00  0.00    -0.310 OA
ATOM     27  C   LIG    1       -0.532   1.433  -9.471  0.00  0.00    +0.250 C 
ENDBRANCH  25  26
ENDBRANCH  19  20
ENDBRANCH   3  19
TORSDOF 8
