REMARK  Name = ZINCvU0000000E3g.0
REMARK                            x       y       z     vdW  Elec       q    Type
REMARK                         _______ _______ _______ _____ _____    ______ ____
ROOT
ATOM      1  C   LIG    1       -2.516  -2.914   0.245  0.00  0.00    -0.140 A 
ATOM      2  C   LIG    1       -3.121  -3.295   1.397  0.00  0.00    +0.120 A 
ATOM      3  N   LIG    1       -4.322  -3.900   1.109  0.00  0.00    -0.590 N 
ATOM      4  H   LIG    1       -4.940  -4.256   1.767  0.00  0.00    +0.420 HD
ATOM      5  C   LIG    1       -4.514  -3.930  -0.255  0.00  0.00    +0.110 A 
ATOM      6  C   LIG    1       -5.533  -4.421  -1.064  0.00  0.00    -0.010 A 
ATOM      7  C   LIG    1       -5.438  -4.301  -2.434  0.00  0.00    +0.040 A 
ATOM      8  C   LIG    1       -4.334  -3.697  -3.017  0.00  0.00    -0.030 A 
ATOM      9  C   LIG    1       -3.320  -3.207  -2.243  0.00  0.00    +0.050 A 
ATOM     10  C   LIG    1       -3.395  -3.317  -0.852  0.00  0.00    -0.100 A 
ENDROOT
BRANCH   2  11
ATOM     11  C   LIG    1       -2.575  -3.087   2.756  0.00  0.00    -0.050 A 
ATOM     12  C   LIG    1       -1.235  -3.374   3.023  0.00  0.00    +0.080 A 
ATOM     13  C   LIG    1       -0.730  -3.174   4.291  0.00  0.00    -0.010 A 
ATOM     14  C   LIG    1       -1.552  -2.700   5.300  0.00  0.00    +0.110 A 
ATOM     15  C   LIG    1       -2.884  -2.419   5.042  0.00  0.00    -0.010 A 
ATOM     16  F   LIG    1       -1.053  -2.510   6.542  0.00  0.00    -0.140 F 
ATOM     17  C   LIG    1       -3.398  -2.610   3.776  0.00  0.00    +0.050 A 
ENDBRANCH   2  11
BRANCH   1  18
ATOM     18  C   LIG    1       -1.186  -2.216   0.118  0.00  0.00    +0.130 C 
BRANCH  18  19
ATOM     19  C   LIG    1       -1.402  -0.701   0.140  0.00  0.00    +0.070 C 
BRANCH  19  22
ATOM     20  N   LIG    1       -0.016   1.344   0.009  0.00  0.00    -0.660 N 
ATOM     21  H   LIG    1       -0.835   1.863   0.003  0.00  0.00    +0.420 HD
ATOM     22  C   LIG    1       -0.072  -0.003   0.013  0.00  0.00    +0.510 C 
ATOM     23  O   LIG    1        0.947  -0.653  -0.086  0.00  0.00    -0.510 OA
BRANCH  20  28
ATOM     24  C   LIG    1        3.574   1.995   0.509  0.00  0.00    +0.120 A 
ATOM     25  C   LIG    1        3.680   3.283   0.005  0.00  0.00    -0.060 A 
ATOM     26  C   LIG    1        2.564   3.927  -0.495  0.00  0.00    -0.010 A 
ATOM     27  C   LIG    1        1.336   3.287  -0.496  0.00  0.00    +0.060 A 
ATOM     28  C   LIG    1        1.225   1.993   0.008  0.00  0.00    +0.160 A 
ATOM     29  C   LIG    1        2.345   1.351   0.515  0.00  0.00    +0.030 A 
BRANCH  24  31
ATOM     30  C   LIG    1        5.905   2.089   0.968  0.00  0.00    +0.240 C 
ATOM     31  O   LIG    1        4.673   1.365   1.001  0.00  0.00    -0.310 OA
ENDBRANCH  24  31
BRANCH  27  32
ATOM     32  O   LIG    1        0.237   3.922  -0.988  0.00  0.00    -0.320 OA
ATOM     33  C   LIG    1        0.424   5.247  -1.489  0.00  0.00    +0.250 C 
ENDBRANCH  27  32
ENDBRANCH  20  28
ENDBRANCH  19  22
ENDBRANCH  18  19
ENDBRANCH   1  18
TORSDOF 7
