REMARK  Name = ZINCtj00001n1jA2.0
REMARK                            x       y       z     vdW  Elec       q    Type
REMARK                         _______ _______ _______ _____ _____    ______ ____
ROOT
ATOM      1  C   LIG    1       -1.177   6.297   0.145  0.00  0.00    +0.310 C 
ATOM      2  N   LIG    1       -2.453   5.578   0.153  0.00  0.00    -0.600 N 
ATOM      3  C   LIG    1       -2.493   4.272  -0.178  0.00  0.00    +0.580 C 
ATOM      4  O   LIG    1       -3.557   3.685  -0.208  0.00  0.00    -0.520 OA
ENDROOT
BRANCH   2   5
ATOM      5  C   LIG    1       -3.687   6.278   0.520  0.00  0.00    +0.250 C 
ATOM      6  C   LIG    1       -3.919   7.446  -0.443  0.00  0.00    +0.050 C 
ATOM      7  C   LIG    1       -5.164   8.220  -0.005  0.00  0.00    +0.270 C 
ATOM      8  N   LIG    1       -4.971   8.737   1.355  0.00  0.00    -0.380 N 
ATOM      9  C   LIG    1       -4.819   7.620   2.295  0.00  0.00    +0.270 C 
ATOM     10  H   LIG    1       -4.142   9.311   1.380  0.00  0.00    +0.420 HD
ATOM     11  C   LIG    1       -3.561   6.822   1.946  0.00  0.00    +0.060 C 
BRANCH   8  12
ATOM     12  C   LIG    1       -6.136   9.544   1.740  0.00  0.00    +0.260 C 
BRANCH  12  13
ATOM     13  C   LIG    1       -6.223  10.777   0.838  0.00  0.00    +0.330 C 
BRANCH  13  14
ATOM     14  N   LIG    1       -7.385  11.582   1.223  0.00  0.00    -0.390 N 
ATOM     15  C   LIG    1       -7.369  12.890   1.558  0.00  0.00    +0.240 A 
ATOM     16  C   LIG    1       -8.639  13.257   1.845  0.00  0.00    -0.090 A 
ATOM     17  C   LIG    1       -9.460  12.136   1.680  0.00  0.00    +0.260 A 
ATOM     18  N   LIG    1       -8.710  11.133   1.301  0.00  0.00    -0.300 NA
ENDBRANCH  13  14
ENDBRANCH  12  13
ENDBRANCH   8  12
ENDBRANCH   2   5
BRANCH   3  19
ATOM     19  C   LIG    1       -1.240   3.552  -0.504  0.00  0.00    +0.090 A 
ATOM     20  C   LIG    1       -1.267   2.175  -0.697  0.00  0.00    +0.020 A 
ATOM     21  C   LIG    1       -0.077   1.512  -1.000  0.00  0.00    +0.160 A 
ATOM     22  C   LIG    1        1.091   2.265  -1.105  0.00  0.00    -0.050 A 
ATOM     23  C   LIG    1        1.036   3.632  -0.903  0.00  0.00    +0.290 A 
ATOM     24  N   LIG    1       -0.102   4.229  -0.615  0.00  0.00    -0.480 NA
BRANCH  21  25
ATOM     25  N   LIG    1       -0.059   0.135  -1.197  0.00  0.00    -0.480 N 
ATOM     26  C   LIG    1       -0.598  -0.572  -0.026  0.00  0.00    +0.180 C 
ATOM     27  C   LIG    1       -0.615  -2.077  -0.308  0.00  0.00    +0.240 C 
ATOM     28  O   LIG    1        0.708  -2.509  -0.640  0.00  0.00    -0.380 OA
ATOM     29  C   LIG    1        1.264  -1.842  -1.776  0.00  0.00    +0.240 C 
ATOM     30  C   LIG    1        1.299  -0.335  -1.508  0.00  0.00    +0.170 C 
ENDBRANCH  21  25
ENDBRANCH   3  19
TORSDOF 6
