REMARK  Name = ZINCtV000002AAAm.0
REMARK                            x       y       z     vdW  Elec       q    Type
REMARK                         _______ _______ _______ _____ _____    ______ ____
ROOT
ATOM      1  C   LIG    1       -6.169  -0.259   0.470  0.00  0.00    +0.200 A 
ATOM      2  N   LIG    1       -7.291   0.430   0.483  0.00  0.00    -0.440 NA
ATOM      3  C   LIG    1       -7.312   1.761   0.390  0.00  0.00    +0.130 A 
ATOM      4  C   LIG    1       -8.527   2.470   0.406  0.00  0.00    +0.050 A 
ATOM      5  C   LIG    1       -8.517   3.828   0.310  0.00  0.00    +0.040 A 
ATOM      6  C   LIG    1       -7.321   4.532   0.195  0.00  0.00    +0.030 A 
ATOM      7  C   LIG    1       -6.124   3.878   0.176  0.00  0.00    +0.050 A 
ATOM      8  C   LIG    1       -6.098   2.483   0.273  0.00  0.00    -0.060 A 
ATOM      9  C   LIG    1       -4.837   1.739   0.256  0.00  0.00    -0.070 A 
ATOM     10  C   LIG    1       -4.913   0.356   0.352  0.00  0.00    +0.070 A 
ENDROOT
BRANCH   1  14
ATOM     11  C   LIG    1       -6.358  -4.496   0.778  0.00  0.00    +0.150 A 
ATOM     12  C   LIG    1       -7.528  -3.747   0.789  0.00  0.00    -0.020 A 
ATOM     13  C   LIG    1       -7.470  -2.373   0.690  0.00  0.00    +0.110 A 
ATOM     14  C   LIG    1       -6.235  -1.735   0.578  0.00  0.00    -0.100 A 
ATOM     15  C   LIG    1       -5.062  -2.490   0.561  0.00  0.00    +0.080 A 
ATOM     16  C   LIG    1       -5.127  -3.863   0.667  0.00  0.00    -0.080 A 
BRANCH  11  18
ATOM     17  C   LIG    1       -5.178  -6.557   0.859  0.00  0.00    +0.240 C 
ATOM     18  O   LIG    1       -6.419  -5.849   0.877  0.00  0.00    -0.310 OA
ENDBRANCH  11  18
ENDBRANCH   1  14
BRANCH   9  19
ATOM     19  C   LIG    1       -3.538   2.431   0.136  0.00  0.00    +0.520 C 
ATOM     20  O   LIG    1       -3.491   3.645   0.161  0.00  0.00    -0.470 OA
BRANCH  19  21
ATOM     21  O   LIG    1       -2.404   1.717  -0.001  0.00  0.00    -0.280 OA
BRANCH  21  22
ATOM     22  C   LIG    1       -1.234   2.409   0.004  0.00  0.00    +0.090 A 
ATOM     23  C   LIG    1       -0.604   2.716  -1.193  0.00  0.00    +0.060 A 
ATOM     24  C   LIG    1        0.588   3.414  -1.186  0.00  0.00    +0.060 A 
ATOM     25  C   LIG    1        1.152   3.812   0.013  0.00  0.00    -0.020 A 
ATOM     26  C   LIG    1        0.523   3.513   1.209  0.00  0.00    +0.060 A 
ATOM     27 CL   LIG    1        2.650   4.689   0.018  0.00  0.00    -0.040 Cl
ATOM     28  C   LIG    1       -0.670   2.814   1.207  0.00  0.00    -0.030 A 
ATOM     29 CL   LIG    1       -1.460   2.439   2.706  0.00  0.00    -0.040 Cl
ENDBRANCH  21  22
ENDBRANCH  19  21
ENDBRANCH   9  19
TORSDOF 5
