REMARK  Name = ZINCrD000000ALMt.0
REMARK                            x       y       z     vdW  Elec       q    Type
REMARK                         _______ _______ _______ _____ _____    ______ ____
ROOT
ATOM      1  O   LIG    1        7.484   2.256   1.216  0.00  0.00    -0.530 OA
ATOM      2  C   LIG    1        6.731   3.004   0.623  0.00  0.00    +0.570 C 
ATOM      3  N   LIG    1        5.668   2.506  -0.039  0.00  0.00    -0.720 N 
ATOM      4  H   LIG    1        5.067   3.103  -0.512  0.00  0.00    +0.400 HD
ENDROOT
BRANCH   2   5
ATOM      5  C   LIG    1        6.981   4.458   0.629  0.00  0.00    -0.220 A 
ATOM      6  C   LIG    1        8.084   4.988   1.315  0.00  0.00    +0.160 A 
ATOM      7  C   LIG    1        8.277   6.343   1.293  0.00  0.00    -0.050 A 
ATOM      8  C   LIG    1        7.381   7.151   0.596  0.00  0.00    +0.340 A 
ATOM      9  N   LIG    1        6.345   6.624  -0.045  0.00  0.00    -0.520 NA
ATOM     10  C   LIG    1        6.126   5.326  -0.053  0.00  0.00    +0.330 A 
BRANCH   8  11
ATOM     11  N   LIG    1        7.573   8.521   0.572  0.00  0.00    -0.480 N 
ATOM     12  C   LIG    1        7.631   9.069   1.934  0.00  0.00    +0.180 C 
ATOM     13  C   LIG    1        7.904  10.574   1.863  0.00  0.00    +0.240 C 
ATOM     14  O   LIG    1        6.891  11.200   1.070  0.00  0.00    -0.380 OA
ATOM     15  C   LIG    1        6.807  10.691  -0.264  0.00  0.00    +0.230 C 
ATOM     16  C   LIG    1        6.523   9.187  -0.213  0.00  0.00    +0.190 C 
ENDBRANCH   8  11
ENDBRANCH   2   5
BRANCH   3  17
ATOM     17  C   LIG    1        5.420   1.062  -0.044  0.00  0.00    +0.240 C 
ATOM     18  C   LIG    1        4.611   0.688  -1.288  0.00  0.00    +0.020 C 
ATOM     19  C   LIG    1        3.275   1.435  -1.271  0.00  0.00    +0.020 C 
ATOM     20  C   LIG    1        2.490   1.048  -0.016  0.00  0.00    +0.030 C 
ATOM     21  C   LIG    1        3.299   1.421   1.228  0.00  0.00    +0.020 C 
ATOM     22  C   LIG    1        4.635   0.674   1.211  0.00  0.00    +0.010 C 
BRANCH  20  23
ATOM     23  C   LIG    1        1.175   1.783   0.000  0.00  0.00    -0.080 A 
ATOM     24  C   LIG    1       -0.013   1.076   0.008  0.00  0.00    +0.000 A 
ATOM     25  C   LIG    1       -1.219   1.751   0.017  0.00  0.00    +0.000 A 
ATOM     26  C   LIG    1       -1.238   3.133   0.030  0.00  0.00    +0.000 A 
ATOM     27  C   LIG    1       -0.050   3.840   0.022  0.00  0.00    +0.000 A 
ATOM     28  C   LIG    1        1.156   3.165   0.008  0.00  0.00    +0.000 A 
ENDBRANCH  20  23
ENDBRANCH   3  17
TORSDOF 4
