REMARK  Name = ZINCc70000002FKS.0
REMARK                            x       y       z     vdW  Elec       q    Type
REMARK                         _______ _______ _______ _____ _____    ______ ____
ROOT
ATOM      1  N   LIG    1        3.553   3.495  -0.012  0.00  0.00    -0.390 N 
ATOM      2  C   LIG    1        2.334   4.095   0.002  0.00  0.00    +0.550 A 
ATOM      3  N   LIG    1        1.215   3.437   0.009  0.00  0.00    -0.510 NA
ATOM      4  C   LIG    1        1.187   2.081   0.002  0.00  0.00    +0.140 A 
ATOM      5  C   LIG    1       -0.017   1.373   0.010  0.00  0.00    +0.030 A 
ATOM      6  C   LIG    1        0.002  -0.004   0.002  0.00  0.00    +0.070 A 
ATOM      7  C   LIG    1        1.204  -0.699  -0.013  0.00  0.00    +0.010 A 
ATOM      8  C   LIG    1        2.405  -0.023  -0.021  0.00  0.00    +0.100 A 
ATOM      9  C   LIG    1        2.408   1.370  -0.014  0.00  0.00    -0.190 A 
ATOM     10  C   LIG    1        3.657   2.145  -0.021  0.00  0.00    +0.550 A 
ATOM     11  O   LIG    1        4.743   1.595  -0.035  0.00  0.00    -0.500 OA
ENDROOT
BRANCH   1  12
ATOM     12  N   LIG    1        4.684   4.261  -0.018  0.00  0.00    -0.600 N 
ATOM     13  H   LIG    1        5.286   4.024   0.756  0.00  0.00    +0.370 HD
ATOM     14  H   LIG    1        4.455   5.244  -0.011  0.00  0.00    +0.370 HD
ENDBRANCH   1  12
TORSDOF 1
