REMARK  Name = ZINCqH0000004ZS0.0
REMARK                            x       y       z     vdW  Elec       q    Type
REMARK                         _______ _______ _______ _____ _____    ______ ____
ROOT
ATOM      1  C   LIG    1       -1.150   7.856   0.022  0.00  0.00    +0.310 C 
ATOM      2  N   LIG    1        0.276   7.523  -0.000  0.00  0.00    -0.550 N 
ATOM      3  C   LIG    1        0.679   6.266   0.271  0.00  0.00    +0.600 C 
ATOM      4  O   LIG    1        1.867   6.010   0.344  0.00  0.00    -0.500 OA
ENDROOT
BRANCH   3   5
ATOM      5  C   LIG    1       -0.313   5.207   0.478  0.00  0.00    -0.300 A 
ATOM      6  C   LIG    1       -0.094   3.821   0.366  0.00  0.00    +0.330 A 
ATOM      7  N   LIG    1        0.987   3.100   0.065  0.00  0.00    -0.450 NA
ATOM      8  C   LIG    1        0.933   1.787   0.025  0.00  0.00    +0.380 A 
ATOM      9  C   LIG    1       -0.269   1.125   0.300  0.00  0.00    -0.040 A 
ATOM     10  C   LIG    1       -1.375   1.852   0.603  0.00  0.00    +0.360 A 
ATOM     11  N   LIG    1       -1.286   3.212   0.642  0.00  0.00    -0.310 N 
ATOM     12  N   LIG    1       -2.229   4.207   0.919  0.00  0.00    -0.310 NA
ATOM     13  C   LIG    1       -1.664   5.382   0.825  0.00  0.00    +0.340 A 
ENDBRANCH   3   5
BRANCH   2  14
ATOM     14  C   LIG    1        1.221   8.512  -0.303  0.00  0.00    +0.160 A 
ATOM     15  C   LIG    1        2.576   8.240  -0.172  0.00  0.00    +0.040 A 
ATOM     16  C   LIG    1        3.508   9.213  -0.476  0.00  0.00    +0.030 A 
ATOM     17  C   LIG    1        3.089  10.466  -0.902  0.00  0.00    +0.050 A 
ATOM     18  C   LIG    1        1.735  10.739  -1.029  0.00  0.00    +0.030 A 
ATOM     19  C   LIG    1        0.803   9.765  -0.731  0.00  0.00    -0.010 A 
BRANCH  17  20
ATOM     20  O   LIG    1        4.006  11.425  -1.196  0.00  0.00    -0.260 OA
BRANCH  20  21
ATOM     21  C   LIG    1        4.664  11.337  -2.382  0.00  0.00    +0.120 A 
ATOM     22  C   LIG    1        4.312  10.359  -3.301  0.00  0.00    -0.060 A 
ATOM     23  C   LIG    1        4.979  10.274  -4.507  0.00  0.00    +0.040 A 
ATOM     24  C   LIG    1        6.004  11.156  -4.795  0.00  0.00    -0.030 A 
ATOM     25  C   LIG    1        6.360  12.129  -3.880  0.00  0.00    +0.050 A 
ATOM     26  C   LIG    1        5.693  12.221  -2.674  0.00  0.00    -0.020 A 
ENDBRANCH  20  21
ENDBRANCH  17  20
ENDBRANCH   2  14
TORSDOF 4
