REMARK  Name = ZINCpk00000l6Kni.0
REMARK                            x       y       z     vdW  Elec       q    Type
REMARK                         _______ _______ _______ _____ _____    ______ ____
ROOT
ATOM      1  C   LIG    1       -6.352   2.370   0.867  0.00  0.00    +0.240 C 
ATOM      2  C   LIG    1       -5.687   1.081   1.378  0.00  0.00    +0.020 C 
ATOM      3  C   LIG    1       -4.949   1.021   0.031  0.00  0.00    +0.240 C 
ATOM      4  C   LIG    1       -6.115   1.835  -0.555  0.00  0.00    +0.040 C 
ENDROOT
BRANCH   1   7
ATOM      5  O   LIG    1       -7.337   4.059   2.724  0.00  0.00    -0.530 OA
ATOM      6  C   LIG    1       -8.160   3.359   2.168  0.00  0.00    +0.560 C 
ATOM      7  N   LIG    1       -7.769   2.480   1.223  0.00  0.00    -0.720 N 
ATOM      8  H   LIG    1       -8.426   1.921   0.780  0.00  0.00    +0.400 HD
BRANCH   6   9
ATOM      9  C   LIG    1       -9.590   3.470   2.527  0.00  0.00    -0.130 A 
ATOM     10  C   LIG    1      -10.538   2.671   1.887  0.00  0.00    +0.040 A 
ATOM     11  C   LIG    1      -11.870   2.777   2.230  0.00  0.00    +0.020 A 
ATOM     12  C   LIG    1      -12.268   3.680   3.200  0.00  0.00    -0.070 A 
ATOM     13  C   LIG    1      -11.334   4.478   3.835  0.00  0.00    +0.020 A 
ATOM     14  C   LIG    1       -9.998   4.379   3.505  0.00  0.00    +0.080 A 
BRANCH  12  15
ATOM     15  C   LIG    1      -13.725   3.794   3.565  0.00  0.00    +0.230 C 
BRANCH  15  16
ATOM     16  O   LIG    1      -14.349   4.775   2.734  0.00  0.00    -0.570 OA
ATOM     17  H   LIG    1      -15.291   4.902   2.914  0.00  0.00    +0.380 HD
ENDBRANCH  15  16
ENDBRANCH  12  15
ENDBRANCH   6   9
ENDBRANCH   1   7
BRANCH   3  18
ATOM     18  N   LIG    1       -3.672   1.739   0.029  0.00  0.00    -0.710 N 
ATOM     19  H   LIG    1       -3.661   2.709   0.034  0.00  0.00    +0.400 HD
ATOM     20  C   LIG    1       -2.512   1.053   0.019  0.00  0.00    +0.570 C 
ATOM     21  O   LIG    1       -2.526  -0.163   0.013  0.00  0.00    -0.520 OA
BRANCH  20  22
ATOM     22  C   LIG    1       -1.224   1.778   0.017  0.00  0.00    -0.160 A 
ATOM     23  C   LIG    1       -1.195   3.172   0.031  0.00  0.00    +0.300 A 
ATOM     24  N   LIG    1       -0.048   3.820   0.023  0.00  0.00    -0.460 NA
ATOM     25  C   LIG    1        1.109   3.187   0.009  0.00  0.00    +0.280 A 
ATOM     26  C   LIG    1        1.167   1.803   0.001  0.00  0.00    +0.050 A 
ATOM     27  F   LIG    1        2.360   1.169  -0.014  0.00  0.00    -0.120 F 
ATOM     28  C   LIG    1       -0.013   1.076   0.008  0.00  0.00    +0.110 A 
ENDBRANCH  20  22
ENDBRANCH   3  18
TORSDOF 6
