REMARK  Name = ZINCrH000004tb1q.0
REMARK                            x       y       z     vdW  Elec       q    Type
REMARK                         _______ _______ _______ _____ _____    ______ ____
ROOT
ATOM      1  C   LIG    1       -0.827   3.140   1.322  0.00  0.00    -0.050 C 
ATOM      2  C   LIG    1       -1.269   2.009   0.777  0.00  0.00    -0.010 C 
ATOM      3  C   LIG    1       -0.745   1.577  -0.578  0.00  0.00    +0.270 C 
ATOM      4  C   LIG    1       -1.462   2.459  -1.635  0.00  0.00    +0.050 C 
ATOM      5  C   LIG    1       -0.628   3.757  -1.671  0.00  0.00    +0.030 C 
ATOM      6  C   LIG    1        0.558   3.496  -0.723  0.00  0.00    +0.270 C 
ATOM      7  N   LIG    1        0.670   2.019  -0.653  0.00  0.00    -0.630 N 
ATOM      8  C   LIG    1        1.785   1.262  -0.656  0.00  0.00    +0.730 C 
ATOM      9  N   LIG    1        1.689  -0.080  -0.585  0.00  0.00    -0.740 N 
ATOM     10  H   LIG    1        0.817  -0.502  -0.531  0.00  0.00    +0.390 HD
ATOM     11  O   LIG    1        2.878   1.790  -0.724  0.00  0.00    -0.590 OA
ATOM     12  C   LIG    1        0.225   4.003   0.682  0.00  0.00    +0.070 C 
ENDROOT
BRANCH   1  18
ATOM     13  C   LIG    1       -0.044   5.670   2.941  0.00  0.00    +0.350 C 
ATOM     14  N   LIG    1       -1.036   4.666   3.334  0.00  0.00    -0.370 N 
ATOM     15  N   LIG    1       -1.802   4.678   4.506  0.00  0.00    -0.290 NA
ATOM     16  C   LIG    1       -2.572   3.620   4.517  0.00  0.00    +0.240 A 
ATOM     17  C   LIG    1       -2.340   2.886   3.354  0.00  0.00    -0.110 A 
ATOM     18  C   LIG    1       -1.380   3.554   2.623  0.00  0.00    +0.110 A 
ENDBRANCH   1  18
BRANCH   9  19
ATOM     19  C   LIG    1        2.901  -0.903  -0.589  0.00  0.00    +0.290 C 
BRANCH  19  20
ATOM     20  C   LIG    1        2.515  -2.381  -0.499  0.00  0.00    -0.030 C 
ATOM     21  C   LIG    1        1.642  -2.753  -1.700  0.00  0.00    +0.040 C 
ATOM     22  C   LIG    1        1.735  -2.627   0.794  0.00  0.00    +0.040 C 
BRANCH  20  23
ATOM     23  C   LIG    1        3.761  -3.227  -0.503  0.00  0.00    -0.070 A 
ATOM     24  C   LIG    1        5.004  -2.627  -0.586  0.00  0.00    +0.010 A 
ATOM     25  C   LIG    1        6.148  -3.403  -0.584  0.00  0.00    +0.000 A 
ATOM     26  C   LIG    1        6.049  -4.780  -0.511  0.00  0.00    +0.000 A 
ATOM     27  C   LIG    1        4.806  -5.380  -0.434  0.00  0.00    +0.000 A 
ATOM     28  C   LIG    1        3.663  -4.604  -0.430  0.00  0.00    +0.010 A 
ENDBRANCH  20  23
ENDBRANCH  19  20
ENDBRANCH   9  19
TORSDOF 4
