REMARK  Name = ZINCrg00000SjSrA.0
REMARK                            x       y       z     vdW  Elec       q    Type
REMARK                         _______ _______ _______ _____ _____    ______ ____
ROOT
ATOM      1  C   LIG    1       -1.561   3.371   2.676  0.00  0.00    +0.170 C 
ATOM      2  C   LIG    1       -0.740   2.974   3.911  0.00  0.00    +0.290 C 
ATOM      3  N   LIG    1       -1.427   3.517   5.095  0.00  0.00    -0.550 N 
ATOM      4  C   LIG    1       -1.948   4.820   5.008  0.00  0.00    +0.070 A 
ATOM      5  C   LIG    1       -2.349   5.486   6.155  0.00  0.00    +0.050 A 
ATOM      6  C   LIG    1       -2.866   6.765   6.064  0.00  0.00    +0.000 A 
ATOM      7  C   LIG    1       -2.984   7.378   4.830  0.00  0.00    +0.030 A 
ATOM      8  C   LIG    1       -2.584   6.718   3.683  0.00  0.00    +0.020 A 
ATOM      9  C   LIG    1       -2.062   5.436   3.765  0.00  0.00    +0.100 A 
ATOM     10  C   LIG    1       -1.553   2.790   6.223  0.00  0.00    +0.520 C 
ATOM     11  O   LIG    1       -2.055   3.284   7.210  0.00  0.00    -0.480 OA
ATOM     12  O   LIG    1       -1.669   4.796   2.632  0.00  0.00    -0.280 OA
ENDROOT
BRANCH   1  16
ATOM     13  C   LIG    1       -0.075   1.077  -0.005  0.00  0.00    +0.310 C 
ATOM     14  N   LIG    1       -0.747   1.556   1.206  0.00  0.00    -0.730 N 
ATOM     15  H   LIG    1       -1.103   0.920   1.846  0.00  0.00    +0.400 HD
ATOM     16  C   LIG    1       -0.869   2.879   1.430  0.00  0.00    +0.520 C 
ATOM     17  O   LIG    1       -0.423   3.674   0.630  0.00  0.00    -0.500 OA
ENDBRANCH   1  16
BRANCH  10  18
ATOM     18  C   LIG    1       -1.070   1.363   6.257  0.00  0.00    +0.270 C 
BRANCH  18  19
ATOM     19  O   LIG    1       -1.421   0.763   7.532  0.00  0.00    -0.330 OA
BRANCH  19  20
ATOM     20  C   LIG    1       -1.058  -0.520   7.725  0.00  0.00    +0.520 C 
ATOM     21  O   LIG    1       -0.465  -1.122   6.852  0.00  0.00    -0.500 OA
BRANCH  20  22
ATOM     22  C   LIG    1       -1.381  -1.195   8.996  0.00  0.00    -0.140 A 
ATOM     23  C   LIG    1       -2.059  -0.503  10.004  0.00  0.00    +0.110 A 
ATOM     24  C   LIG    1       -2.364  -1.138  11.187  0.00  0.00    -0.020 A 
ATOM     25  C   LIG    1       -1.989  -2.462  11.384  0.00  0.00    +0.150 A 
ATOM     26  C   LIG    1       -1.310  -3.152  10.386  0.00  0.00    -0.020 A 
ATOM     27  C   LIG    1       -1.006  -2.526   9.198  0.00  0.00    +0.110 A 
BRANCH  25  28
ATOM     28  O   LIG    1       -2.287  -3.083  12.553  0.00  0.00    -0.500 OA
ATOM     29  H   LIG    1       -1.602  -2.994  13.231  0.00  0.00    +0.400 HD
ENDBRANCH  25  28
ENDBRANCH  20  22
ENDBRANCH  19  20
ENDBRANCH  18  19
ENDBRANCH  10  18
TORSDOF 6
