REMARK  Name = ZINCrD000000B9wQ.0
REMARK                            x       y       z     vdW  Elec       q    Type
REMARK                         _______ _______ _______ _____ _____    ______ ____
ROOT
ATOM      1  O   LIG    1       -1.567   3.686  -0.765  0.00  0.00    -0.540 OA
ATOM      2  C   LIG    1       -1.448   2.477  -0.692  0.00  0.00    +0.560 C 
ATOM      3  N   LIG    1       -2.526   1.709  -0.434  0.00  0.00    -0.720 N 
ATOM      4  H   LIG    1       -2.432   0.746  -0.376  0.00  0.00    +0.410 HD
ENDROOT
BRANCH   2   5
ATOM      5  C   LIG    1       -0.138   1.858  -0.882  0.00  0.00    -0.230 C 
ATOM      6  C   LIG    1        0.947   2.627  -1.146  0.00  0.00    +0.160 C 
ATOM      7  C   LIG    1        2.236   1.950  -1.355  0.00  0.00    -0.140 A 
ATOM      8  C   LIG    1        3.442   2.647  -1.301  0.00  0.00    +0.100 A 
ATOM      9  C   LIG    1        4.629   1.970  -1.501  0.00  0.00    -0.070 A 
ATOM     10  C   LIG    1        4.623   0.608  -1.755  0.00  0.00    +0.090 A 
ATOM     11  C   LIG    1        3.432  -0.093  -1.811  0.00  0.00    +0.020 A 
ATOM     12 CL   LIG    1        6.136   2.830  -1.435  0.00  0.00    -0.060 Cl
ATOM     13  C   LIG    1        2.234   0.568  -1.614  0.00  0.00    +0.150 A 
ATOM     14  O   LIG    1        1.050  -0.091  -1.663  0.00  0.00    -0.300 OA
ATOM     15  C   LIG    1        0.012   0.361  -0.791  0.00  0.00    +0.310 C 
ENDBRANCH   2   5
BRANCH   3  16
ATOM     16  C   LIG    1       -3.839   2.330  -0.244  0.00  0.00    +0.280 C 
BRANCH  16  17
ATOM     17  C   LIG    1       -4.881   1.244   0.032  0.00  0.00    +0.250 C 
BRANCH  17  18
ATOM     18  N   LIG    1       -4.854   0.252  -1.052  0.00  0.00    -0.520 NA
ATOM     19  C   LIG    1       -4.853   0.909  -2.367  0.00  0.00    +0.140 C 
ATOM     20  C   LIG    1       -4.764  -0.156  -3.463  0.00  0.00    +0.230 C 
ATOM     21  O   LIG    1       -5.850  -1.075  -3.317  0.00  0.00    -0.380 OA
ATOM     22  C   LIG    1       -5.880  -1.733  -2.048  0.00  0.00    +0.220 C 
ATOM     23  C   LIG    1       -5.981  -0.684  -0.937  0.00  0.00    +0.160 C 
ENDBRANCH  17  18
BRANCH  17  24
ATOM     24  C   LIG    1       -6.250   1.869   0.106  0.00  0.00    -0.220 A 
ATOM     25  C   LIG    1       -6.978   1.998   1.217  0.00  0.00    +0.030 A 
ATOM     26  C   LIG    1       -8.208   2.606   1.041  0.00  0.00    +0.000 A 
ATOM     27  C   LIG    1       -8.481   2.971  -0.212  0.00  0.00    -0.060 A 
ATOM     28  S   LIG    1       -7.131   2.547  -1.257  0.00  0.00    +0.120 S 
ENDBRANCH  17  24
ENDBRANCH  16  17
ENDBRANCH   3  16
TORSDOF 5
