REMARK  Name = ZINCnE000001N9cq.0
REMARK                            x       y       z     vdW  Elec       q    Type
REMARK                         _______ _______ _______ _____ _____    ______ ____
ROOT
ATOM      1  C   LIG    1        0.793   6.427   1.117  0.00  0.00    +0.040 C 
ATOM      2  C   LIG    1       -0.032   5.764   0.013  0.00  0.00    +0.270 C 
ATOM      3  C   LIG    1       -1.492   6.098   0.190  0.00  0.00    -0.090 A 
ATOM      4  C   LIG    1       -2.155   7.313   0.193  0.00  0.00    +0.040 A 
ATOM      5  C   LIG    1       -3.522   7.356   0.386  0.00  0.00    +0.010 A 
ATOM      6  C   LIG    1       -4.229   6.184   0.576  0.00  0.00    +0.010 A 
ATOM      7  C   LIG    1       -3.568   4.970   0.574  0.00  0.00    +0.020 A 
ATOM      8  C   LIG    1       -2.198   4.927   0.380  0.00  0.00    -0.100 A 
ATOM      9  C   LIG    1       -1.238   3.766   0.331  0.00  0.00    +0.300 C 
ATOM     10  N   LIG    1        0.105   4.306   0.097  0.00  0.00    -0.610 N 
ATOM     11  C   LIG    1        1.247   3.600  -0.013  0.00  0.00    +0.590 C 
ATOM     12  O   LIG    1        2.312   4.177  -0.114  0.00  0.00    -0.510 OA
ENDROOT
BRANCH  11  13
ATOM     13  C   LIG    1        1.205   2.122  -0.011  0.00  0.00    -0.130 A 
ATOM     14  C   LIG    1        0.292   1.446  -0.822  0.00  0.00    +0.030 A 
ATOM     15  C   LIG    1        0.257   0.066  -0.815  0.00  0.00    -0.020 A 
ATOM     16  C   LIG    1        1.125  -0.646  -0.007  0.00  0.00    +0.020 A 
ATOM     17  C   LIG    1        2.033   0.018   0.798  0.00  0.00    +0.000 A 
ATOM     18  C   LIG    1        2.078   1.397   0.801  0.00  0.00    -0.010 A 
BRANCH  18  19
ATOM     19  C   LIG    1        3.068   2.118   1.679  0.00  0.00    +0.090 C 
BRANCH  19  20
ATOM     20  C   LIG    1        2.372   2.577   2.962  0.00  0.00    -0.070 C 
BRANCH  20  21
ATOM     21  C   LIG    1        3.362   3.299   3.840  0.00  0.00    +0.490 C 
ATOM     22  O   LIG    1        3.007   3.748   4.916  0.00  0.00    -0.710 OA
ATOM     23  O   LIG    1        4.517   3.434   3.473  0.00  0.00    -0.690 OA
ENDBRANCH  20  21
ENDBRANCH  19  20
ENDBRANCH  18  19
ENDBRANCH  11  13
TORSDOF 4
