REMARK  Name = ZINCpe000015lFRd.0
REMARK                            x       y       z     vdW  Elec       q    Type
REMARK                         _______ _______ _______ _____ _____    ______ ____
ROOT
ATOM      1  N   LIG    1       -1.940  -1.160  -1.568  0.00  0.00    -1.000 NA
ATOM      2  C   LIG    1       -2.795  -0.192  -2.268  0.00  0.00    +0.300 C 
ATOM      3  C   LIG    1       -3.994  -0.927  -2.864  0.00  0.00    +0.030 C 
ATOM      4  C   LIG    1       -3.500  -2.079  -3.742  0.00  0.00    +0.100 C 
ATOM      5  C   LIG    1       -2.701  -3.066  -2.888  0.00  0.00    +0.040 C 
ATOM      6  C   LIG    1       -1.483  -2.353  -2.294  0.00  0.00    +0.300 C 
ENDROOT
BRANCH   4   7
ATOM      7  C   LIG    1       -4.681  -2.786  -4.355  0.00  0.00    +0.310 A 
ATOM      8  N   LIG    1       -4.720  -3.320  -5.550  0.00  0.00    -0.560 NA
ATOM      9  C   LIG    1       -5.923  -3.862  -5.763  0.00  0.00    +0.480 A 
ATOM     10  N   LIG    1       -6.665  -3.676  -4.698  0.00  0.00    -0.370 NA
ATOM     11  N   LIG    1       -5.873  -2.982  -3.768  0.00  0.00    -0.480 N 
ATOM     12  H   LIG    1       -6.136  -2.698  -2.879  0.00  0.00    +0.440 HD
BRANCH   9  13
ATOM     13  N   LIG    1       -6.323  -4.518  -6.928  0.00  0.00    -0.600 N 
ATOM     14  C   LIG    1       -7.677  -5.068  -7.031  0.00  0.00    +0.300 C 
ATOM     15  C   LIG    1       -5.390  -4.657  -8.049  0.00  0.00    +0.300 C 
ENDBRANCH   9  13
ENDBRANCH   4   7
BRANCH   1  16
ATOM     16  S   LIG    1       -1.506  -0.915   0.011  0.00  0.00    +2.700 S 
ATOM     17  O   LIG    1       -2.491  -0.056   0.569  0.00  0.00    -0.950 OA
ATOM     18  O   LIG    1       -1.198  -2.195   0.546  0.00  0.00    -0.950 OA
BRANCH  16  22
ATOM     19  C   LIG    1        2.288   1.473  -0.012  0.00  0.00    +0.370 A 
ATOM     20  C   LIG    1        2.382   0.088  -0.020  0.00  0.00    -0.060 A 
ATOM     21  C   LIG    1        1.222  -0.666  -0.013  0.00  0.00    +0.220 A 
ATOM     22  C   LIG    1        0.002  -0.004   0.002  0.00  0.00    -0.780 A 
ATOM     23  C   LIG    1       -0.017   1.377   0.010  0.00  0.00    +0.430 A 
ATOM     24  N   LIG    1        1.107   2.068   0.003  0.00  0.00    -0.550 NA
BRANCH  19  26
ATOM     25  C   LIG    1        3.255   3.643  -0.009  0.00  0.00    +0.250 C 
ATOM     26  O   LIG    1        3.418   2.224  -0.019  0.00  0.00    -0.300 OA
ENDBRANCH  19  26
ENDBRANCH  16  22
ENDBRANCH   1  16
TORSDOF 5
