REMARK  Name = ZINCrg000000rM1o.0
REMARK                            x       y       z     vdW  Elec       q    Type
REMARK                         _______ _______ _______ _____ _____    ______ ____
ROOT
ATOM      1  N   LIG    1       -1.083   3.523   0.026  0.00  0.00    -0.360 N 
ATOM      2  C   LIG    1       -1.573   4.422  -0.866  0.00  0.00    +0.200 A 
ATOM      3  C   LIG    1       -1.110   5.648  -0.508  0.00  0.00    +0.010 A 
ATOM      4  C   LIG    1       -0.315   5.489   0.636  0.00  0.00    +0.260 A 
ATOM      5  N   LIG    1       -0.304   4.221   0.958  0.00  0.00    -0.250 NA
ENDROOT
BRANCH   3   6
ATOM      6  N   LIG    1       -1.380   6.861  -1.169  0.00  0.00    -0.640 N 
ATOM      7  H   LIG    1       -1.945   6.868  -1.958  0.00  0.00    +0.410 HD
ATOM      8  C   LIG    1       -0.855   8.012  -0.706  0.00  0.00    +0.510 C 
ATOM      9  O   LIG    1       -0.148   8.003   0.281  0.00  0.00    -0.470 OA
BRANCH   8  10
ATOM     10  C   LIG    1       -1.144   9.311  -1.413  0.00  0.00    +0.180 C 
ATOM     11  C   LIG    1       -2.652   9.567  -1.412  0.00  0.00    +0.070 C 
ATOM     12  C   LIG    1       -0.641   9.229  -2.856  0.00  0.00    +0.080 C 
BRANCH  10  13
ATOM     13  N   LIG    1       -0.462  10.407  -0.719  0.00  0.00    -0.370 N 
ATOM     14  C   LIG    1       -0.253  11.647  -1.208  0.00  0.00    +0.220 A 
ATOM     15  C   LIG    1        0.406  12.357  -0.263  0.00  0.00    -0.120 A 
ATOM     16  C   LIG    1        0.608  11.521   0.840  0.00  0.00    +0.210 A 
ATOM     17  N   LIG    1        0.083  10.354   0.570  0.00  0.00    -0.240 NA
ENDBRANCH  10  13
ENDBRANCH   8  10
ENDBRANCH   3   6
BRANCH   1  18
ATOM     18  C   LIG    1       -1.331   2.079   0.020  0.00  0.00    +0.370 C 
BRANCH  18  26
ATOM     19  C   LIG    1        1.199  -1.065  -2.494  0.00  0.00    +0.020 C 
ATOM     20  C   LIG    1        1.216  -1.781  -1.142  0.00  0.00    +0.200 C 
ATOM     21  C   LIG    1        1.274  -0.744  -0.014  0.00  0.00    +0.260 C 
ATOM     22  N   LIG    1        0.002  -0.004   0.002  0.00  0.00    -0.620 N 
ATOM     23  C   LIG    1       -1.249  -0.779   0.016  0.00  0.00    +0.250 C 
ATOM     24  C   LIG    1       -1.184  -1.814  -1.119  0.00  0.00    +0.140 C 
ATOM     25  C   LIG    1       -2.383  -2.759  -1.014  0.00  0.00    +0.060 C 
ATOM     26  C   LIG    1       -0.016   1.344   0.009  0.00  0.00    +0.500 C 
ATOM     27  O   LIG    1        1.026   1.964   0.003  0.00  0.00    -0.500 OA
ATOM     28  O   LIG    1        0.027  -2.563  -1.001  0.00  0.00    -0.370 OA
ENDBRANCH  18  26
ENDBRANCH   1  18
TORSDOF 5
