REMARK  Name = ZINCrD0000074Zg8.0
REMARK                            x       y       z     vdW  Elec       q    Type
REMARK                         _______ _______ _______ _____ _____    ______ ____
ROOT
ATOM      1  C   LIG    1        3.133   4.724  -0.002  0.00  0.00    +0.210 C 
ATOM      2  C   LIG    1        2.593   3.317  -0.005  0.00  0.00    +0.250 A 
ATOM      3  N   LIG    1        3.316   2.229  -0.018  0.00  0.00    -0.300 NA
ATOM      4  N   LIG    1        2.424   1.144  -0.009  0.00  0.00    -0.360 N 
ATOM      5  C   LIG    1        1.180   1.675  -0.000  0.00  0.00    +0.510 A 
ATOM      6  N   LIG    1        1.302   2.985   0.006  0.00  0.00    -0.510 NA
ENDROOT
BRANCH   4   7
ATOM      7  C   LIG    1        2.756  -0.215  -0.013  0.00  0.00    +0.180 A 
ATOM      8  C   LIG    1        1.970  -1.123   0.687  0.00  0.00    -0.010 A 
ATOM      9  C   LIG    1        2.291  -2.462   0.682  0.00  0.00    +0.110 A 
ATOM     10  C   LIG    1        3.414  -2.907  -0.021  0.00  0.00    -0.030 A 
ATOM     11  C   LIG    1        4.205  -1.991  -0.719  0.00  0.00    +0.110 A 
ATOM     12  C   LIG    1        3.875  -0.653  -0.713  0.00  0.00    +0.050 A 
BRANCH  10  13
ATOM     13  C   LIG    1        3.754  -4.298  -0.025  0.00  0.00    +0.250 C 
ATOM     14  N   LIG    1        4.023  -5.402  -0.028  0.00  0.00    -0.400 NA
ENDBRANCH  10  13
ENDBRANCH   4   7
BRANCH   5  15
ATOM     15  N   LIG    1       -0.011   0.966   0.007  0.00  0.00    -0.640 N 
ATOM     16  H   LIG    1        0.002  -0.004   0.002  0.00  0.00    +0.420 HD
ATOM     17  C   LIG    1       -1.187   1.624   0.017  0.00  0.00    +0.570 C 
ATOM     18  O   LIG    1       -1.204   2.840   0.023  0.00  0.00    -0.450 OA
BRANCH  17  19
ATOM     19  C   LIG    1       -2.455   0.869   0.018  0.00  0.00    -0.160 A 
ATOM     20  C   LIG    1       -2.438  -0.529   0.005  0.00  0.00    +0.080 A 
ATOM     21  C   LIG    1       -3.623  -1.230   0.012  0.00  0.00    -0.060 A 
ATOM     22  C   LIG    1       -4.835  -0.549   0.021  0.00  0.00    +0.140 A 
ATOM     23  C   LIG    1       -4.856   0.841   0.029  0.00  0.00    +0.010 A 
ATOM     24  C   LIG    1       -3.676   1.549   0.028  0.00  0.00    +0.140 A 
BRANCH  22  25
ATOM     25  O   LIG    1       -6.001  -1.244   0.022  0.00  0.00    -0.310 OA
BRANCH  25  26
ATOM     26  C   LIG    1       -5.907  -2.669   0.013  0.00  0.00    +0.600 C 
ATOM     27  F   LIG    1       -5.214  -3.098   1.150  0.00  0.00    -0.200 F 
ATOM     28  F   LIG    1       -5.223  -3.085  -1.134  0.00  0.00    -0.200 F 
ENDBRANCH  25  26
ENDBRANCH  22  25
ENDBRANCH  17  19
ENDBRANCH   5  15
TORSDOF 6
