REMARK  Name = ZINCqH0000005qd6.0
REMARK                            x       y       z     vdW  Elec       q    Type
REMARK                         _______ _______ _______ _____ _____    ______ ____
ROOT
ATOM      1  S   LIG    1        3.842   2.258  -0.950  0.00  0.00    +0.080 S 
ENDROOT
BRANCH   1   4
ATOM      2  C   LIG    1        0.078   1.287  -1.468  0.00  0.00    +0.490 A 
ATOM      3  N   LIG    1        1.219   1.946  -1.336  0.00  0.00    -0.580 NA
ATOM      4  C   LIG    1        2.366   1.308  -1.114  0.00  0.00    +0.340 A 
ATOM      5  N   LIG    1        2.445  -0.005  -1.012  0.00  0.00    -0.570 NA
ATOM      6  C   LIG    1        1.345  -0.763  -1.131  0.00  0.00    +0.200 A 
ATOM      7  C   LIG    1        1.392  -2.159  -1.028  0.00  0.00    +0.020 A 
ATOM      8  C   LIG    1        0.244  -2.883  -1.157  0.00  0.00    +0.060 A 
ATOM      9  C   LIG    1       -0.977  -2.257  -1.390  0.00  0.00    -0.010 A 
ATOM     10  C   LIG    1       -1.058  -0.898  -1.496  0.00  0.00    +0.070 A 
ATOM     11  C   LIG    1        0.102  -0.127  -1.368  0.00  0.00    -0.200 A 
BRANCH   2  13
ATOM     12  C   LIG    1       -1.106   3.421  -1.804  0.00  0.00    +0.310 C 
ATOM     13  N   LIG    1       -1.102   1.959  -1.704  0.00  0.00    -0.700 N 
ATOM     14  H   LIG    1       -1.931   1.465  -1.803  0.00  0.00    +0.410 HD
ENDBRANCH   2  13
ENDBRANCH   1   4
BRANCH   1  15
ATOM     15  C   LIG    1        5.040   0.930  -0.673  0.00  0.00    +0.080 C 
BRANCH  15  16
ATOM     16  C   LIG    1        6.415   1.523  -0.500  0.00  0.00    +0.440 C 
ATOM     17  O   LIG    1        6.569   2.726  -0.558  0.00  0.00    -0.430 OA
BRANCH  16  18
ATOM     18  C   LIG    1        7.527   0.677  -0.269  0.00  0.00    -0.100 A 
ATOM     19  C   LIG    1        8.831   1.086  -0.094  0.00  0.00    -0.010 A 
ATOM     20  C   LIG    1        9.601  -0.083   0.106  0.00  0.00    -0.260 A 
ATOM     21  C   LIG    1        8.730  -1.161   0.045  0.00  0.00    +0.120 A 
ATOM     22  C   LIG    1        9.113  -2.610   0.205  0.00  0.00    +0.160 C 
ATOM     23  C   LIG    1        9.338   2.504  -0.114  0.00  0.00    +0.140 C 
ATOM     24  N   LIG    1        7.492  -0.699  -0.174  0.00  0.00    -0.520 N 
ATOM     25  H   LIG    1        6.695  -1.247  -0.255  0.00  0.00    +0.420 HD
BRANCH  20  26
ATOM     26  C   LIG    1       11.048  -0.143   0.336  0.00  0.00    +0.430 C 
ATOM     27  O   LIG    1       11.810  -0.201  -0.607  0.00  0.00    -0.450 OA
ATOM     28  C   LIG    1       11.589  -0.133   1.742  0.00  0.00    +0.060 C 
ENDBRANCH  20  26
ENDBRANCH  16  18
ENDBRANCH  15  16
ENDBRANCH   1  15
TORSDOF 6
