REMARK  Name = ZINCBI0000000k1C.0
REMARK                            x       y       z     vdW  Elec       q    Type
REMARK                         _______ _______ _______ _____ _____    ______ ____
ROOT
ATOM      1  C   LIG    1        1.600   1.079  -0.239  0.00  0.00    +0.140 C 
ATOM      2  C   LIG    1        1.256   1.006  -1.704  0.00  0.00    +0.150 A 
ATOM      3  C   LIG    1        2.086   1.597  -2.639  0.00  0.00    -0.720 A 
ATOM      4  C   LIG    1        1.777   1.526  -3.985  0.00  0.00    +0.210 A 
ATOM      5  C   LIG    1        0.635   0.870  -4.400  0.00  0.00    -0.070 A 
ATOM      6  C   LIG    1       -0.204   0.280  -3.463  0.00  0.00    +0.310 A 
ATOM      7  C   LIG    1        0.109   0.352  -2.111  0.00  0.00    -0.130 A 
ENDROOT
BRANCH   3   8
ATOM      8  S   LIG    1        3.544   2.435  -2.114  0.00  0.00    +2.690 S 
ATOM      9  O   LIG    1        4.234   1.540  -1.253  0.00  0.00    -0.950 OA
ATOM     10  O   LIG    1        4.128   2.994  -3.283  0.00  0.00    -0.930 OA
BRANCH   8  11
ATOM     11  N   LIG    1        3.064   3.712  -1.175  0.00  0.00    -1.090 NA
ATOM     12  H   LIG    1        3.346   3.766  -0.249  0.00  0.00    +0.420 HD
BRANCH  11  13
ATOM     13  C   LIG    1        2.213   4.760  -1.744  0.00  0.00    +0.240 C 
ATOM     14  C   LIG    1        1.943   5.821  -0.679  0.00  0.00    +0.060 C 
ATOM     15  C   LIG    1        3.250   6.573  -0.402  0.00  0.00    +0.030 C 
ATOM     16  C   LIG    1        3.584   7.424  -1.626  0.00  0.00    +0.070 C 
ATOM     17  C   LIG    1        3.539   6.590  -2.880  0.00  0.00    -0.040 A 
ATOM     18  C   LIG    1        4.165   7.092  -4.013  0.00  0.00    -0.020 A 
ATOM     19  C   LIG    1        4.157   6.377  -5.193  0.00  0.00    +0.020 A 
ATOM     20  C   LIG    1        3.511   5.156  -5.251  0.00  0.00    -0.010 A 
ATOM     21  C   LIG    1        2.892   4.654  -4.125  0.00  0.00    +0.060 A 
ATOM     22  C   LIG    1        2.904   5.370  -2.935  0.00  0.00    -0.130 A 
BRANCH  13  23
ATOM     23  C   LIG    1        0.885   4.145  -2.190  0.00  0.00    +0.170 C 
BRANCH  23  24
ATOM     24  O   LIG    1        0.279   3.467  -1.088  0.00  0.00    -0.550 OA
ATOM     25  H   LIG    1       -0.568   3.052  -1.299  0.00  0.00    +0.380 HD
ENDBRANCH  23  24
ENDBRANCH  13  23
ENDBRANCH  11  13
ENDBRANCH   8  11
ENDBRANCH   3   8
BRANCH   7  26
ATOM     26  N   LIG    1       -0.782  -0.275  -1.110  0.00  0.00    +0.020 N 
ATOM     27  O   LIG    1       -1.747   0.336  -0.686  0.00  0.00    -0.130 OA
ATOM     28  O   LIG    1       -0.550  -1.401  -0.709  0.00  0.00    -0.130 OA
ENDBRANCH   7  26
BRANCH   6  29
ATOM     29  N   LIG    1       -1.360  -0.385  -3.878  0.00  0.00    -0.740 N 
ATOM     30  H   LIG    1       -1.945  -0.796  -3.223  0.00  0.00    +0.410 HD
BRANCH  29  31
ATOM     31  C   LIG    1       -1.689  -0.460  -5.304  0.00  0.00    +0.260 C 
BRANCH  31  32
ATOM     32  C   LIG    1       -2.995  -1.236  -5.486  0.00  0.00    +0.070 C 
BRANCH  32  33
ATOM     33  C   LIG    1       -3.339  -1.315  -6.975  0.00  0.00    +0.060 C 
ATOM     34  C   LIG    1       -4.682  -2.040  -7.188  0.00  0.00    +0.100 C 
ATOM     35  C   LIG    1       -5.682  -0.837  -7.342  0.00  0.00    +0.080 C 
ATOM     36  C   LIG    1       -4.819   0.193  -8.111  0.00  0.00    +0.260 C 
ATOM     37  C   LIG    1       -2.233  -2.055  -7.753  0.00  0.00    +0.090 C 
ATOM     38  C   LIG    1       -1.381  -0.895  -8.332  0.00  0.00    +0.070 C 
ATOM     39  C   LIG    1       -2.466   0.161  -8.652  0.00  0.00    +0.270 C 
ATOM     40  N   LIG    1       -3.455   0.039  -7.559  0.00  0.00    -0.390 N 
ATOM     41  H   LIG    1       -3.274   0.740  -6.856  0.00  0.00    +0.420 HD
ENDBRANCH  32  33
ENDBRANCH  31  32
ENDBRANCH  29  31
ENDBRANCH   6  29
TORSDOF 10
