REMARK  Name = ZINCtV00000L6l7m.0
REMARK                            x       y       z     vdW  Elec       q    Type
REMARK                         _______ _______ _______ _____ _____    ______ ____
ROOT
ATOM      1  C   LIG    1        1.058   7.433   0.245  0.00  0.00    +0.060 C 
ENDROOT
BRANCH   1   2
ATOM      2  C   LIG    1        0.879   7.816   1.691  0.00  0.00    -0.100 A 
ATOM      3  C   LIG    1        1.809   7.417   2.633  0.00  0.00    +0.040 A 
ATOM      4  C   LIG    1        1.647   7.773   3.958  0.00  0.00    +0.010 A 
ATOM      5  C   LIG    1        0.550   8.521   4.344  0.00  0.00    +0.020 A 
ATOM      6  C   LIG    1       -0.383   8.915   3.403  0.00  0.00    +0.010 A 
ATOM      7  C   LIG    1       -0.218   8.563   2.077  0.00  0.00    +0.060 A 
ENDBRANCH   1   2
BRANCH   1   8
ATOM      8  C   LIG    1        1.085   5.931   0.123  0.00  0.00    +0.540 C 
ATOM      9  N   LIG    1       -0.069   5.242   0.029  0.00  0.00    -0.660 N 
ATOM     10  H   LIG    1       -0.914   5.715  -0.026  0.00  0.00    +0.410 HD
ATOM     11  O   LIG    1        2.146   5.342   0.111  0.00  0.00    -0.500 OA
BRANCH   9  12
ATOM     12  C   LIG    1       -0.049   3.842   0.011  0.00  0.00    +0.140 A 
ATOM     13  C   LIG    1        0.996   3.169  -0.607  0.00  0.00    +0.020 A 
ATOM     14  C   LIG    1        1.013   1.788  -0.623  0.00  0.00    -0.070 A 
ATOM     15  C   LIG    1       -0.010   1.076  -0.024  0.00  0.00    -0.010 A 
ATOM     16  C   LIG    1       -1.055   1.744   0.589  0.00  0.00    +0.030 A 
ATOM     17  C   LIG    1        2.146   1.057  -1.294  0.00  0.00    +0.090 C 
ATOM     18  C   LIG    1       -1.075   3.124   0.613  0.00  0.00    -0.110 A 
ATOM     19  C   LIG    1       -2.211   3.851   1.285  0.00  0.00    +0.080 C 
ENDBRANCH   9  12
ENDBRANCH   1   8
BRANCH   1  20
ATOM     20  S   LIG    1        2.621   8.117  -0.373  0.00  0.00    +0.110 S 
BRANCH  20  24
ATOM     21  C   LIG    1        2.363  12.354  -0.335  0.00  0.00    +0.020 A 
ATOM     22  N   LIG    1        1.271  11.807   0.098  0.00  0.00    -0.280 NA
ATOM     23  N   LIG    1        1.262  10.429   0.116  0.00  0.00    -0.270 NA
ATOM     24  C   LIG    1        2.350   9.856  -0.293  0.00  0.00    +0.010 A 
ATOM     25  S   LIG    1        3.513  11.092  -0.764  0.00  0.00    +0.150 S 
BRANCH  21  26
ATOM     26  S   LIG    1        2.652  14.087  -0.473  0.00  0.00    +0.030 S 
BRANCH  26  27
ATOM     27  C   LIG    1        1.097  14.808   0.122  0.00  0.00    +0.140 C 
BRANCH  27  29
ATOM     28  C   LIG    1        0.555  16.970  -0.875  0.00  0.00    +0.060 C 
ATOM     29  C   LIG    1        1.186  16.311   0.065  0.00  0.00    -0.130 C 
ATOM     30  C   LIG    1        2.002  17.057   1.090  0.00  0.00    +0.090 C 
ENDBRANCH  27  29
ENDBRANCH  26  27
ENDBRANCH  21  26
ENDBRANCH  20  24
ENDBRANCH   1  20
TORSDOF 8
