REMARK  Name = ZINCpk00000ea4x2.0
REMARK                            x       y       z     vdW  Elec       q    Type
REMARK                         _______ _______ _______ _____ _____    ______ ____
ROOT
ATOM      1  C   LIG    1       -1.412  -0.526   0.013  0.00  0.00    +0.520 C 
ATOM      2  N   LIG    1       -1.640  -1.854   0.008  0.00  0.00    -0.730 N 
ATOM      3  H   LIG    1       -0.894  -2.474  -0.003  0.00  0.00    +0.400 HD
ATOM      4  O   LIG    1       -2.344   0.250   0.026  0.00  0.00    -0.530 OA
ENDROOT
BRANCH   1   8
ATOM      5  C   LIG    1        2.157   1.548   1.239  0.00  0.00    +0.030 C 
ATOM      6  C   LIG    1        1.417   2.055  -0.000  0.00  0.00    +0.040 C 
ATOM      7  C   LIG    1       -0.019   1.526   0.010  0.00  0.00    +0.060 C 
ATOM      8  C   LIG    1        0.002  -0.004   0.002  0.00  0.00    -0.010 C 
ATOM      9  C   LIG    1        0.742  -0.511   1.242  0.00  0.00    +0.030 C 
ATOM     10  C   LIG    1        2.178   0.019   1.231  0.00  0.00    +0.060 C 
BRANCH   5  11
ATOM     11  C   LIG    1        3.571   2.070   1.228  0.00  0.00    +0.460 C 
ATOM     12  O   LIG    1        4.499   1.298   1.215  0.00  0.00    -0.510 OA
BRANCH  11  14
ATOM     13  C   LIG    1        5.184   3.824   1.222  0.00  0.00    +0.250 C 
ATOM     14  O   LIG    1        3.798   3.393   1.233  0.00  0.00    -0.360 OA
ENDBRANCH  11  14
ENDBRANCH   5  11
ENDBRANCH   1   8
BRANCH   2  15
ATOM     15  C   LIG    1       -3.014  -2.361   0.018  0.00  0.00    +0.250 C 
ATOM     16  C   LIG    1       -3.523  -2.430   1.461  0.00  0.00    +0.010 C 
ATOM     17  C   LIG    1       -4.937  -3.017   1.468  0.00  0.00    +0.050 C 
ATOM     18  C   LIG    1       -4.914  -4.399   0.811  0.00  0.00    +0.180 C 
ATOM     19  N   LIG    1       -4.421  -4.280  -0.567  0.00  0.00    -0.460 N 
ATOM     20  C   LIG    1       -3.047  -3.762  -0.597  0.00  0.00    +0.190 C 
BRANCH  19  21
ATOM     21  C   LIG    1       -4.510  -5.497  -1.236  0.00  0.00    +0.240 A 
ATOM     22  C   LIG    1       -5.164  -5.725  -2.408  0.00  0.00    -0.090 A 
ATOM     23  C   LIG    1       -5.006  -7.076  -2.730  0.00  0.00    +0.240 A 
ATOM     24  N   LIG    1       -4.288  -7.641  -1.794  0.00  0.00    -0.290 NA
ATOM     25  N   LIG    1       -3.957  -6.667  -0.843  0.00  0.00    -0.390 N 
ATOM     26  C   LIG    1       -3.157  -6.880   0.366  0.00  0.00    +0.340 C 
ENDBRANCH  19  21
ENDBRANCH   2  15
TORSDOF 5
