REMARK  Name = ZINCkj000005jjL2.0
REMARK                            x       y       z     vdW  Elec       q    Type
REMARK                         _______ _______ _______ _____ _____    ______ ____
ROOT
ATOM      1  C   LIG    1       -2.162   1.043   1.178  0.00  0.00    +0.100 C 
ATOM      2  C   LIG    1       -0.695   1.477   1.218  0.00  0.00    +0.170 C 
ATOM      3  C   LIG    1       -0.615   3.005   1.286  0.00  0.00    +0.320 C 
ATOM      4  N   LIG    1       -1.154   3.555   0.033  0.00  0.00    -0.640 N 
ATOM      5  C   LIG    1       -0.640   3.019  -1.237  0.00  0.00    +0.330 C 
ATOM      6  C   LIG    1       -0.718   1.490  -1.185  0.00  0.00    +0.160 C 
ATOM      7  C   LIG    1       -0.066   0.902  -2.438  0.00  0.00    +0.100 C 
ATOM      8  C   LIG    1       -2.091   4.524   0.048  0.00  0.00    +0.520 C 
ATOM      9  O   LIG    1       -2.523   4.966  -0.996  0.00  0.00    -0.490 OA
ATOM     10  N   LIG    1       -0.012   1.005   0.008  0.00  0.00    -0.500 N 
ATOM     11  H   LIG    1        0.935   1.353   0.000  0.00  0.00    +0.430 HD
ATOM     12  H   LIG    1        0.002  -0.004   0.002  0.00  0.00    +0.430 HD
ENDROOT
BRANCH   8  13
ATOM     13  C   LIG    1       -2.601   5.058   1.361  0.00  0.00    +0.220 C 
BRANCH  13  14
ATOM     14  N   LIG    1       -3.608   6.098   1.109  0.00  0.00    -0.520 NA
ATOM     15  C   LIG    1       -4.805   5.529   0.474  0.00  0.00    +0.190 C 
BRANCH  14  16
ATOM     16  C   LIG    1       -3.956   6.806   2.348  0.00  0.00    +0.240 C 
BRANCH  16  17
ATOM     17  C   LIG    1       -4.796   8.013   2.018  0.00  0.00    -0.090 A 
ATOM     18  C   LIG    1       -4.189   9.230   1.772  0.00  0.00    +0.020 A 
ATOM     19  C   LIG    1       -4.959  10.337   1.464  0.00  0.00    +0.000 A 
ATOM     20  C   LIG    1       -6.336  10.228   1.413  0.00  0.00    +0.010 A 
ATOM     21  C   LIG    1       -6.943   9.012   1.664  0.00  0.00    +0.000 A 
ATOM     22  C   LIG    1       -6.173   7.904   1.967  0.00  0.00    +0.010 A 
ENDBRANCH  16  17
ENDBRANCH  14  16
ENDBRANCH  13  14
ENDBRANCH   8  13
TORSDOF 4
