REMARK  Name = ZINCvU0000000IK8.0
REMARK                            x       y       z     vdW  Elec       q    Type
REMARK                         _______ _______ _______ _____ _____    ______ ____
ROOT
ATOM      1  C   LIG    1       -3.115   4.814   3.367  0.00  0.00    +0.520 C 
ATOM      2  N   LIG    1       -3.719   3.778   2.752  0.00  0.00    -0.600 N 
ATOM      3  C   LIG    1       -4.512   2.825   3.532  0.00  0.00    +0.290 C 
ATOM      4  O   LIG    1       -2.458   5.604   2.721  0.00  0.00    -0.530 OA
ENDROOT
BRANCH   1   5
ATOM      5  C   LIG    1       -3.255   4.992   4.857  0.00  0.00    +0.070 C 
BRANCH   5   6
ATOM      6  C   LIG    1       -2.489   6.241   5.296  0.00  0.00    +0.200 C 
BRANCH   6  11
ATOM      7  C   LIG    1        2.290   7.566   5.102  0.00  0.00    +0.160 C 
ATOM      8  C   LIG    1        1.124   6.639   4.875  0.00  0.00    +0.070 A 
ATOM      9  C   LIG    1        1.256   5.436   4.309  0.00  0.00    -0.070 A 
ATOM     10  S   LIG    1       -0.338   4.689   4.242  0.00  0.00    +0.180 S 
ATOM     11  C   LIG    1       -1.026   6.072   4.975  0.00  0.00    -0.010 A 
ATOM     12  N   LIG    1       -0.110   6.947   5.220  0.00  0.00    -0.430 NA
ENDBRANCH   6  11
BRANCH   6  13
ATOM     13  C   LIG    1       -2.661   6.442   6.803  0.00  0.00    +0.480 C 
ATOM     14  F   LIG    1       -4.024   6.498   7.113  0.00  0.00    -0.170 F 
ATOM     15  F   LIG    1       -2.046   7.638   7.187  0.00  0.00    -0.150 F 
ATOM     16  F   LIG    1       -2.071   5.373   7.486  0.00  0.00    -0.170 F 
ENDBRANCH   6  13
BRANCH   6  17
ATOM     17  O   LIG    1       -2.999   7.381   4.602  0.00  0.00    -0.520 OA
ATOM     18  H   LIG    1       -2.923   7.323   3.640  0.00  0.00    +0.410 HD
ENDBRANCH   6  17
ENDBRANCH   5   6
ENDBRANCH   1   5
BRANCH   2  19
ATOM     19  C   LIG    1       -3.583   3.606   1.303  0.00  0.00    +0.290 C 
BRANCH  19  20
ATOM     20  C   LIG    1       -2.360   2.737   1.006  0.00  0.00    -0.020 C 
ATOM     21  C   LIG    1       -2.586   1.329   1.561  0.00  0.00    +0.030 C 
BRANCH  20  22
ATOM     22  C   LIG    1       -2.145   2.659  -0.507  0.00  0.00    +0.070 C 
BRANCH  22  23
ATOM     23  C   LIG    1       -0.871   1.907  -0.796  0.00  0.00    -0.080 A 
ATOM     24  C   LIG    1        0.327   2.589  -0.899  0.00  0.00    +0.010 A 
ATOM     25  C   LIG    1        1.494   1.900  -1.170  0.00  0.00    +0.000 A 
ATOM     26  C   LIG    1        1.463   0.528  -1.337  0.00  0.00    -0.070 A 
ATOM     27  C   LIG    1        0.265  -0.155  -1.234  0.00  0.00    +0.010 A 
ATOM     28  C   LIG    1       -0.902   0.535  -0.963  0.00  0.00    +0.010 A 
BRANCH  26  29
ATOM     29  C   LIG    1        2.735  -0.224  -1.633  0.00  0.00    -0.030 C 
ATOM     30  C   LIG    1        2.990  -1.251  -0.528  0.00  0.00    +0.040 C 
ATOM     31  C   LIG    1        3.906   0.759  -1.695  0.00  0.00    +0.030 C 
ATOM     32  C   LIG    1        2.602  -0.943  -2.977  0.00  0.00    +0.040 C 
ENDBRANCH  26  29
ENDBRANCH  22  23
ENDBRANCH  20  22
ENDBRANCH  19  20
ENDBRANCH   2  19
TORSDOF 10
