REMARK  Name = ZINCtV00000L6kgr.0
REMARK                            x       y       z     vdW  Elec       q    Type
REMARK                         _______ _______ _______ _____ _____    ______ ____
ROOT
ATOM      1  O   LIG    1       -7.662   4.711   0.062  0.00  0.00    -0.490 OA
ATOM      2  C   LIG    1       -8.164   3.606   0.055  0.00  0.00    +0.520 C 
ATOM      3  N   LIG    1       -9.505   3.475   0.067  0.00  0.00    -0.670 N 
ATOM      4  H   LIG    1       -9.907   2.595  -0.004  0.00  0.00    +0.420 HD
ENDROOT
BRANCH   3   5
ATOM      5  C   LIG    1      -10.318   4.608   0.183  0.00  0.00    +0.160 A 
ATOM      6  C   LIG    1       -9.931   5.805  -0.404  0.00  0.00    +0.100 A 
ATOM      7  C   LIG    1      -10.738   6.921  -0.292  0.00  0.00    -0.160 A 
ATOM      8  C   LIG    1      -11.926   6.850   0.411  0.00  0.00    +0.080 A 
ATOM      9  C   LIG    1      -12.313   5.660   1.002  0.00  0.00    +0.060 A 
ATOM     10  C   LIG    1      -11.513   4.539   0.890  0.00  0.00    -0.030 A 
ATOM     11 CL   LIG    1      -11.998   3.047   1.633  0.00  0.00    -0.040 Cl
BRANCH   7  12
ATOM     12  C   LIG    1      -10.320   8.219  -0.934  0.00  0.00    +0.510 C 
ATOM     13  F   LIG    1      -10.192   8.036  -2.315  0.00  0.00    -0.170 F 
ATOM     14  F   LIG    1       -9.094   8.629  -0.402  0.00  0.00    -0.170 F 
ATOM     15  F   LIG    1      -11.289   9.197  -0.681  0.00  0.00    -0.170 F 
ENDBRANCH   7  12
ENDBRANCH   3   5
BRANCH   2  16
ATOM     16  C   LIG    1       -7.287   2.381   0.032  0.00  0.00    +0.280 C 
BRANCH  16  17
ATOM     17  O   LIG    1       -5.892   2.784   0.022  0.00  0.00    -0.330 OA
BRANCH  17  18
ATOM     18  C   LIG    1       -4.970   1.800   0.002  0.00  0.00    +0.540 C 
ATOM     19  O   LIG    1       -5.323   0.636  -0.007  0.00  0.00    -0.470 OA
BRANCH  18  20
ATOM     20  C   LIG    1       -3.543   2.132  -0.009  0.00  0.00    -0.230 A 
ATOM     21  C   LIG    1       -2.551   1.232  -0.029  0.00  0.00    +0.050 A 
ATOM     22  C   LIG    1       -1.251   1.765  -0.036  0.00  0.00    -0.100 A 
ATOM     23  C   LIG    1       -0.012   1.080  -0.057  0.00  0.00    +0.130 A 
ATOM     24  C   LIG    1        1.158   1.771  -0.066  0.00  0.00    +0.000 A 
ATOM     25  C   LIG    1        1.162   3.162  -0.051  0.00  0.00    +0.150 A 
ATOM     26  C   LIG    1       -0.028   3.856  -0.025  0.00  0.00    +0.020 A 
ATOM     27  F   LIG    1        2.334   3.834  -0.061  0.00  0.00    -0.120 F 
ATOM     28  C   LIG    1       -1.243   3.166  -0.015  0.00  0.00    -0.110 A 
ATOM     29 CL   LIG    1       -2.852  -0.477  -0.045  0.00  0.00    -0.000 Cl
ATOM     30  S   LIG    1       -2.898   3.764   0.016  0.00  0.00    +0.240 S 
ENDBRANCH  18  20
ENDBRANCH  17  18
ENDBRANCH  16  17
ENDBRANCH   2  16
TORSDOF 6
