REMARK  Name = ZINCtV000002q4dO.0
REMARK                            x       y       z     vdW  Elec       q    Type
REMARK                         _______ _______ _______ _____ _____    ______ ____
ROOT
ATOM      1  C   LIG    1       -1.280   5.922  -0.059  0.00  0.00    +0.270 A 
ATOM      2  N   LIG    1       -1.402   7.209  -0.156  0.00  0.00    -0.460 NA
ATOM      3  C   LIG    1       -2.629   7.689  -0.233  0.00  0.00    +0.100 A 
ATOM      4  C   LIG    1       -3.590   6.763  -0.200  0.00  0.00    -0.070 A 
ATOM      5  S   LIG    1       -2.821   5.183  -0.067  0.00  0.00    +0.160 S 
ENDROOT
BRANCH   1   8
ATOM      6  C   LIG    1        2.402   5.197   0.110  0.00  0.00    +0.120 C 
ATOM      7  C   LIG    1        1.085   5.929   0.126  0.00  0.00    +0.510 C 
ATOM      8  N   LIG    1       -0.070   5.241   0.032  0.00  0.00    -0.480 N 
ATOM      9  O   LIG    1        1.065   7.138   0.225  0.00  0.00    -0.460 OA
BRANCH   8  10
ATOM     10  C   LIG    1       -0.052   3.841   0.025  0.00  0.00    +0.100 A 
ATOM     11  C   LIG    1        0.450   3.157  -1.074  0.00  0.00    +0.030 A 
ATOM     12  C   LIG    1        0.465   1.776  -1.078  0.00  0.00    +0.040 A 
ATOM     13  C   LIG    1       -0.018   1.074   0.011  0.00  0.00    +0.030 A 
ATOM     14  C   LIG    1       -0.524   1.752   1.105  0.00  0.00    +0.040 A 
ATOM     15  C   LIG    1       -0.537   3.133   1.117  0.00  0.00    +0.020 A 
ENDBRANCH   8  10
ENDBRANCH   1   8
BRANCH   3  16
ATOM     16  C   LIG    1       -2.922   9.162  -0.349  0.00  0.00    +0.180 C 
BRANCH  16  17
ATOM     17  S   LIG    1       -2.980   9.629  -2.097  0.00  0.00    +0.010 S 
BRANCH  17  18
ATOM     18  C   LIG    1       -3.327  11.350  -1.943  0.00  0.00    +0.210 A 
ATOM     19  C   LIG    1       -3.461  12.165  -3.097  0.00  0.00    -0.160 A 
ATOM     20  C   LIG    1       -3.742  13.520  -2.902  0.00  0.00    +0.100 A 
ATOM     21  S   LIG    1       -3.871  14.326  -4.458  0.00  0.00    +0.170 S 
ATOM     22  C   LIG    1       -3.555  12.838  -5.330  0.00  0.00    -0.170 A 
ATOM     23  C   LIG    1       -3.502  12.728  -6.832  0.00  0.00    +0.150 C 
ATOM     24  N   LIG    1       -3.861  13.987  -1.652  0.00  0.00    -0.500 NA
ATOM     25  C   LIG    1       -3.723  13.193  -0.616  0.00  0.00    +0.350 A 
ATOM     26  C   LIG    1       -3.867  13.770   0.769  0.00  0.00    +0.190 C 
ATOM     27  C   LIG    1       -3.370  11.826  -4.504  0.00  0.00    -0.070 A 
ATOM     28  C   LIG    1       -3.080  10.428  -4.985  0.00  0.00    +0.140 C 
ATOM     29  N   LIG    1       -3.463  11.905  -0.747  0.00  0.00    -0.530 NA
ENDBRANCH  17  18
ENDBRANCH  16  17
ENDBRANCH   3  16
TORSDOF 5
