REMARK  Name = ZINCvU0000000DwD.0
REMARK                            x       y       z     vdW  Elec       q    Type
REMARK                         _______ _______ _______ _____ _____    ______ ____
ROOT
ATOM      1  C   LIG    1       -0.456  -1.607  -0.916  0.00  0.00    +0.290 A 
ATOM      2  N   LIG    1       -1.135  -0.539  -0.614  0.00  0.00    -0.480 NA
ATOM      3  C   LIG    1       -0.345   0.557  -0.746  0.00  0.00    +0.050 A 
ATOM      4  C   LIG    1       -0.555   1.925  -0.555  0.00  0.00    +0.070 A 
ATOM      5  C   LIG    1        0.464   2.808  -0.775  0.00  0.00    +0.000 A 
ATOM      6  C   LIG    1        1.711   2.360  -1.188  0.00  0.00    +0.030 A 
ATOM      7  C   LIG    1        1.941   1.015  -1.383  0.00  0.00    +0.010 A 
ATOM      8  C   LIG    1        0.917   0.103  -1.164  0.00  0.00    +0.060 A 
ATOM      9  N   LIG    1        0.815  -1.270  -1.262  0.00  0.00    -0.480 N 
ENDROOT
BRANCH   1  12
ATOM     10  N   LIG    1       -3.126  -4.079  -1.183  0.00  0.00    -0.570 N 
ATOM     11  C   LIG    1       -2.194  -3.165  -1.853  0.00  0.00    +0.300 C 
ATOM     12  C   LIG    1       -0.999  -3.012  -0.885  0.00  0.00    +0.090 C 
ATOM     13  C   LIG    1       -1.657  -3.322   0.479  0.00  0.00    +0.090 C 
ATOM     14  C   LIG    1       -2.851  -4.182   0.129  0.00  0.00    +0.530 C 
ATOM     15  O   LIG    1       -3.470  -4.866   0.917  0.00  0.00    -0.510 OA
BRANCH  10  21
ATOM     16  C   LIG    1       -5.389  -4.127  -2.026  0.00  0.00    -0.070 A 
ATOM     17  C   LIG    1       -6.414  -4.798  -2.663  0.00  0.00    +0.020 A 
ATOM     18  C   LIG    1       -6.226  -6.096  -3.102  0.00  0.00    +0.020 A 
ATOM     19  C   LIG    1       -5.011  -6.726  -2.905  0.00  0.00    +0.010 A 
ATOM     20  C   LIG    1       -3.979  -6.058  -2.274  0.00  0.00    +0.010 A 
ATOM     21  C   LIG    1       -4.167  -4.757  -1.827  0.00  0.00    +0.140 A 
BRANCH  16  23
ATOM     22  C   LIG    1       -6.040  -2.729  -0.084  0.00  0.00    +0.030 C 
ATOM     23  C   LIG    1       -5.595  -2.713  -1.548  0.00  0.00    +0.050 C 
ENDBRANCH  16  23
ENDBRANCH  10  21
ENDBRANCH   1  12
BRANCH   9  24
ATOM     24  C   LIG    1        1.879  -2.193  -1.665  0.00  0.00    +0.350 C 
BRANCH  24  25
ATOM     25  C   LIG    1        2.647  -2.636  -0.446  0.00  0.00    -0.120 A 
ATOM     26  C   LIG    1        3.752  -1.920  -0.028  0.00  0.00    +0.020 A 
ATOM     27  C   LIG    1        4.455  -2.324   1.093  0.00  0.00    +0.020 A 
ATOM     28  C   LIG    1        4.057  -3.450   1.788  0.00  0.00    +0.020 A 
ATOM     29  C   LIG    1        2.954  -4.170   1.367  0.00  0.00    -0.080 A 
ATOM     30  C   LIG    1        2.521  -5.397   2.125  0.00  0.00    +0.090 C 
ATOM     31  C   LIG    1        2.250  -3.763   0.249  0.00  0.00    +0.020 A 
ENDBRANCH  24  25
ENDBRANCH   9  24
TORSDOF 5
