REMARK  Name = ZINCpe00000zgGoW.0
REMARK                            x       y       z     vdW  Elec       q    Type
REMARK                         _______ _______ _______ _____ _____    ______ ____
ROOT
ATOM      1  N   LIG    1       -0.499   3.223  -1.423  0.00  0.00    -0.430 N 
ATOM      2  C   LIG    1        0.041   1.870  -1.612  0.00  0.00    +0.180 C 
ATOM      3  C   LIG    1        0.966   1.521  -0.443  0.00  0.00    +0.050 C 
ATOM      4  C   LIG    1        0.177   1.597   0.867  0.00  0.00    +0.010 C 
ATOM      5  C   LIG    1       -0.416   3.001   1.016  0.00  0.00    +0.310 C 
ATOM      6  C   LIG    1       -1.301   3.307  -0.195  0.00  0.00    +0.180 C 
ENDROOT
BRANCH   5   7
ATOM      7  N   LIG    1       -1.221   3.065   2.238  0.00  0.00    -0.980 NA
ATOM      8  C   LIG    1       -2.392   2.241   2.544  0.00  0.00    +0.230 C 
ATOM      9  C   LIG    1       -2.995   2.516   3.925  0.00  0.00    +0.090 C 
ATOM     10  C   LIG    1       -2.650   3.994   4.264  0.00  0.00    -0.310 C 
ATOM     11  S   LIG    1       -0.962   4.088   3.536  0.00  0.00    +2.560 S 
ATOM     12  O   LIG    1       -0.712   5.366   2.966  0.00  0.00    -0.950 OA
ATOM     13  O   LIG    1       -0.004   3.427   4.352  0.00  0.00    -0.940 OA
ENDBRANCH   5   7
BRANCH   1  17
ATOM     14  C   LIG    1       -2.786   3.814  -4.054  0.00  0.00    +0.260 A 
ATOM     15  N   LIG    1       -1.814   4.668  -4.288  0.00  0.00    -0.290 NA
ATOM     16  N   LIG    1       -0.904   4.553  -3.388  0.00  0.00    -0.250 NA
ATOM     17  C   LIG    1       -1.236   3.621  -2.525  0.00  0.00    +0.350 A 
ATOM     18  N   LIG    1       -2.442   3.113  -2.920  0.00  0.00    -0.490 N 
ATOM     19  C   LIG    1       -3.209   2.047  -2.271  0.00  0.00    +0.340 C 
BRANCH  14  25
ATOM     20  C   LIG    1       -3.389   5.153  -6.779  0.00  0.00    +0.340 C 
ATOM     21  N   LIG    1       -4.275   4.230  -6.066  0.00  0.00    -0.420 N 
ATOM     22  C   LIG    1       -5.503   3.818  -6.490  0.00  0.00    +0.180 A 
ATOM     23  C   LIG    1       -6.015   2.973  -5.567  0.00  0.00    -0.060 A 
ATOM     24  C   LIG    1       -5.074   2.848  -4.534  0.00  0.00    -0.030 A 
ATOM     25  C   LIG    1       -4.008   3.637  -4.856  0.00  0.00    +0.070 A 
ENDBRANCH  14  25
ENDBRANCH   1  17
TORSDOF 3
