REMARK  Name = ZINCrH000004sOAm.0
REMARK                            x       y       z     vdW  Elec       q    Type
REMARK                         _______ _______ _______ _____ _____    ______ ____
ROOT
ATOM      1  C   LIG    1        1.179   1.784   0.005  0.00  0.00    +0.130 A 
ATOM      2  C   LIG    1       -0.004   1.082   0.192  0.00  0.00    +0.050 A 
ATOM      3  C   LIG    1       -1.210   1.753   0.207  0.00  0.00    +0.000 A 
ATOM      4  C   LIG    1       -1.240   3.131   0.046  0.00  0.00    +0.150 A 
ATOM      5  C   LIG    1       -0.056   3.834  -0.140  0.00  0.00    -0.100 A 
ATOM      6  C   LIG    1       -0.092   5.329  -0.320  0.00  0.00    +0.090 C 
ATOM      7  C   LIG    1       -1.362   5.723  -1.074  0.00  0.00    +0.070 C 
ATOM      8  C   LIG    1       -2.557   5.054  -0.450  0.00  0.00    +0.520 C 
ATOM      9  O   LIG    1       -3.619   5.639  -0.411  0.00  0.00    -0.520 OA
ATOM     10  N   LIG    1       -2.461   3.815   0.066  0.00  0.00    -0.550 N 
ATOM     11  C   LIG    1        1.150   3.163  -0.161  0.00  0.00    +0.020 A 
ENDROOT
BRANCH   1  13
ATOM     12  C   LIG    1        2.469  -0.147  -0.517  0.00  0.00    +0.520 C 
ATOM     13  N   LIG    1        2.403   1.102  -0.016  0.00  0.00    -0.670 N 
ATOM     14  H   LIG    1        3.202   1.529   0.330  0.00  0.00    +0.410 HD
ATOM     15  O   LIG    1        1.493  -0.645  -1.036  0.00  0.00    -0.500 OA
BRANCH  12  16
ATOM     16  C   LIG    1        3.757  -0.925  -0.432  0.00  0.00    +0.080 C 
ATOM     17  C   LIG    1        4.860  -0.169  -1.176  0.00  0.00    +0.070 C 
BRANCH  16  24
ATOM     18  C   LIG    1        2.899  -1.592  -3.490  0.00  0.00    +0.160 C 
ATOM     19  C   LIG    1        3.193  -2.580  -2.391  0.00  0.00    +0.050 A 
ATOM     20  N   LIG    1        3.155  -3.878  -2.479  0.00  0.00    -0.370 NA
ATOM     21  O   LIG    1        3.436  -4.405  -1.427  0.00  0.00    +0.100 OA
ATOM     22  C   LIG    1        3.708  -3.497  -0.479  0.00  0.00    -0.020 A 
ATOM     23  C   LIG    1        4.095  -3.774   0.950  0.00  0.00    +0.190 C 
ATOM     24  C   LIG    1        3.567  -2.282  -1.060  0.00  0.00    -0.190 A 
ENDBRANCH  16  24
ENDBRANCH  12  16
ENDBRANCH   1  13
BRANCH  10  25
ATOM     25  C   LIG    1       -3.643   3.178   0.652  0.00  0.00    +0.320 C 
BRANCH  25  26
ATOM     26  C   LIG    1       -3.719   3.517   2.142  0.00  0.00    -0.060 C 
ATOM     27  C   LIG    1       -3.595   2.361   3.137  0.00  0.00    +0.010 C 
ATOM     28  C   LIG    1       -4.950   3.038   2.914  0.00  0.00    +0.030 C 
ENDBRANCH  25  26
ENDBRANCH  10  25
TORSDOF 5
