REMARK  Name = ZINCb80000001ycR.0
REMARK                            x       y       z     vdW  Elec       q    Type
REMARK                         _______ _______ _______ _____ _____    ______ ____
ROOT
ATOM      1  C   LIG    1       -1.896   1.157   3.340  0.00  0.00    +0.290 C 
ENDROOT
BRANCH   1   2
ATOM      2  C   LIG    1       -2.352  -0.044   4.171  0.00  0.00    +0.070 C 
ATOM      3  C   LIG    1       -3.208   0.415   5.383  0.00  0.00    +0.030 C 
ATOM      4  C   LIG    1       -4.102  -0.831   5.601  0.00  0.00    +0.220 C 
ATOM      5  O   LIG    1       -4.379  -1.329   4.283  0.00  0.00    -0.370 OA
ATOM      6  F   LIG    1       -1.254  -0.803   4.591  0.00  0.00    -0.190 F 
ATOM      7  C   LIG    1       -3.350  -0.914   3.377  0.00  0.00    +0.200 C 
ENDBRANCH   1   2
BRANCH   1  10
ATOM      8  C   LIG    1       -0.013   1.086   0.008  0.00  0.00    +0.110 C 
ATOM      9  C   LIG    1       -0.718   1.572   1.248  0.00  0.00    +0.510 C 
ATOM     10  N   LIG    1       -1.210   0.684   2.135  0.00  0.00    -0.730 N 
ATOM     11  H   LIG    1       -1.110  -0.267   1.976  0.00  0.00    +0.400 HD
ATOM     12  O   LIG    1       -0.843   2.761   1.447  0.00  0.00    -0.540 OA
ENDBRANCH   1  10
TORSDOF 2
