REMARK  Name = ZINCrg00000fSsCC.0
REMARK                            x       y       z     vdW  Elec       q    Type
REMARK                         _______ _______ _______ _____ _____    ______ ____
ROOT
ATOM      1  C   LIG    1       -0.721   2.005  -1.239  0.00  0.00    +0.360 C 
ENDROOT
BRANCH   1   2
ATOM      2  C   LIG    1       -0.018   1.469   0.010  0.00  0.00    +0.210 C 
ATOM      3  N   LIG    1        0.002  -0.004   0.002  0.00  0.00    -0.720 N 
ATOM      4  H   LIG    1       -0.768  -0.594   0.007  0.00  0.00    +0.450 HD
ATOM      5  C   LIG    1        1.296  -0.371  -0.012  0.00  0.00    +0.700 C 
ATOM      6  N   LIG    1        2.125   0.679  -0.015  0.00  0.00    -0.680 N 
ATOM      7  H   LIG    1        3.093   0.609  -0.024  0.00  0.00    +0.440 HD
ATOM      8  O   LIG    1        1.670  -1.528  -0.022  0.00  0.00    -0.520 OA
ATOM      9  C   LIG    1        1.450   1.845  -0.002  0.00  0.00    +0.530 C 
ATOM     10  O   LIG    1        1.920   2.963  -0.001  0.00  0.00    -0.430 OA
BRANCH   2  16
ATOM     11  C   LIG    1        0.861   0.921   2.930  0.00  0.00    +0.320 C 
ATOM     12  N   LIG    1       -0.288   1.734   2.525  0.00  0.00    -0.440 N 
ATOM     13  C   LIG    1       -1.159   2.382   3.358  0.00  0.00    +0.160 A 
ATOM     14  C   LIG    1       -2.060   3.005   2.574  0.00  0.00    +0.160 A 
ATOM     15  N   LIG    1       -1.744   2.748   1.296  0.00  0.00    -0.450 NA
ATOM     16  C   LIG    1       -0.687   1.983   1.259  0.00  0.00    +0.180 A 
ENDBRANCH   2  16
ENDBRANCH   1   2
BRANCH   1  17
ATOM     17  N   LIG    1       -0.093   1.437  -2.434  0.00  0.00    -0.740 N 
ATOM     18  H   LIG    1        0.652   0.822  -2.345  0.00  0.00    +0.390 HD
ATOM     19  C   LIG    1       -0.550   1.769  -3.658  0.00  0.00    +0.590 C 
ATOM     20  O   LIG    1       -1.484   2.540  -3.770  0.00  0.00    -0.500 OA
BRANCH  19  21
ATOM     21  C   LIG    1        0.081   1.200  -4.858  0.00  0.00    +0.010 A 
ATOM     22  C   LIG    1       -0.289   1.457  -6.139  0.00  0.00    +0.070 A 
ATOM     23  C   LIG    1        0.564   0.716  -6.992  0.00  0.00    -0.120 A 
ATOM     24  C   LIG    1        0.657   0.586  -8.384  0.00  0.00    +0.100 A 
ATOM     25  C   LIG    1        1.609  -0.225  -8.928  0.00  0.00    +0.000 A 
ATOM     26  C   LIG    1        2.491  -0.927  -8.114  0.00  0.00    +0.000 A 
ATOM     27  C   LIG    1        2.420  -0.816  -6.742  0.00  0.00    +0.000 A 
ATOM     28 CL   LIG    1        3.693  -1.953  -8.832  0.00  0.00    -0.060 Cl
ATOM     29  C   LIG    1        1.457   0.006  -6.164  0.00  0.00    +0.130 A 
ATOM     30  N   LIG    1        1.148   0.321  -4.862  0.00  0.00    -0.580 N 
ATOM     31  H   LIG    1        1.602  -0.019  -4.075  0.00  0.00    +0.420 HD
ENDBRANCH  19  21
ENDBRANCH   1  17
TORSDOF 4
