REMARK  Name = ZINCvU0000000F4g.0
REMARK                            x       y       z     vdW  Elec       q    Type
REMARK                         _______ _______ _______ _____ _____    ______ ____
ROOT
ATOM      1  C   LIG    1        6.891   1.099  -1.792  0.00  0.00    +0.090 C 
ATOM      2  C   LIG    1        5.607   1.089  -2.207  0.00  0.00    -0.070 C 
ATOM      3  C   LIG    1        5.289   0.687  -3.616  0.00  0.00    +0.080 C 
ATOM      4  C   LIG    1        3.834   0.869  -3.999  0.00  0.00    +0.020 C 
ATOM      5  C   LIG    1        2.868   0.636  -2.840  0.00  0.00    +0.050 C 
ATOM      6  C   LIG    1        3.145   1.691  -1.767  0.00  0.00    +0.010 C 
ATOM      7  C   LIG    1        2.340   1.423  -0.484  0.00  0.00    +0.260 C 
ATOM      8  N   LIG    1        3.347   1.702   0.565  0.00  0.00    -0.470 N 
ATOM      9  C   LIG    1        3.091   2.023   1.849  0.00  0.00    +0.550 C 
ATOM     10  O   LIG    1        1.945   2.105   2.237  0.00  0.00    -0.490 OA
ATOM     11  N   LIG    1        4.614   1.573  -0.018  0.00  0.00    -0.240 NA
ATOM     12  C   LIG    1        4.580   1.471  -1.303  0.00  0.00    +0.160 C 
ENDROOT
BRANCH   1  16
ATOM     13  C   LIG    1        9.943  -0.455  -4.297  0.00  0.00    +0.140 A 
ATOM     14  C   LIG    1       10.146   0.740  -3.618  0.00  0.00    -0.020 A 
ATOM     15  C   LIG    1        9.159   1.249  -2.804  0.00  0.00    +0.070 A 
ATOM     16  C   LIG    1        7.949   0.560  -2.661  0.00  0.00    -0.110 A 
ATOM     17  C   LIG    1        7.752  -0.646  -3.342  0.00  0.00    +0.070 A 
ATOM     18  C   LIG    1        8.744  -1.143  -4.158  0.00  0.00    -0.080 A 
BRANCH  13  20
ATOM     19  C   LIG    1       10.646  -2.186  -5.767  0.00  0.00    +0.250 C 
ATOM     20  O   LIG    1       10.920  -0.953  -5.098  0.00  0.00    -0.320 OA
ENDBRANCH  13  20
ENDBRANCH   1  16
BRANCH   7  21
ATOM     21  C   LIG    1        1.170   2.367  -0.373  0.00  0.00    -0.120 A 
ATOM     22  C   LIG    1       -0.106   1.922  -0.665  0.00  0.00    +0.070 A 
ATOM     23  C   LIG    1       -1.179   2.786  -0.570  0.00  0.00    -0.080 A 
ATOM     24  C   LIG    1       -0.977   4.099  -0.171  0.00  0.00    +0.140 A 
ATOM     25  C   LIG    1        0.304   4.544   0.121  0.00  0.00    -0.020 A 
ATOM     26  C   LIG    1        1.375   3.677   0.020  0.00  0.00    +0.070 A 
BRANCH  24  27
ATOM     27  O   LIG    1       -2.032   4.951  -0.072  0.00  0.00    -0.320 OA
ATOM     28  C   LIG    1       -3.322   4.425  -0.389  0.00  0.00    +0.250 C 
ENDBRANCH  24  27
ENDBRANCH   7  21
BRANCH   9  29
ATOM     29  C   LIG    1        4.229   2.279   2.803  0.00  0.00    +0.110 C 
ATOM     30 CL   LIG    1        4.373   4.051   3.104  0.00  0.00    -0.140 Cl
ATOM     31  C   LIG    1        3.960   1.557   4.125  0.00  0.00    +0.090 C 
ENDBRANCH   9  29
TORSDOF 5
