REMARK  Name = ZINCnE000001Ogc3.0
REMARK                            x       y       z     vdW  Elec       q    Type
REMARK                         _______ _______ _______ _____ _____    ______ ____
ROOT
ATOM      1  C   LIG    1       -1.000   7.969  -1.226  0.00  0.00    +0.040 C 
ATOM      2  C   LIG    1       -1.444   7.438   0.138  0.00  0.00    +0.270 C 
ATOM      3  C   LIG    1       -2.914   7.708   0.335  0.00  0.00    -0.090 A 
ATOM      4  C   LIG    1       -3.627   8.893   0.367  0.00  0.00    +0.040 A 
ATOM      5  C   LIG    1       -4.993   8.875   0.573  0.00  0.00    +0.010 A 
ATOM      6  C   LIG    1       -5.649   7.671   0.748  0.00  0.00    +0.010 A 
ATOM      7  C   LIG    1       -4.937   6.487   0.717  0.00  0.00    +0.030 A 
ATOM      8  C   LIG    1       -3.569   6.505   0.510  0.00  0.00    -0.100 A 
ATOM      9  C   LIG    1       -2.562   5.385   0.430  0.00  0.00    +0.300 C 
ATOM     10  N   LIG    1       -1.246   5.986   0.194  0.00  0.00    -0.610 N 
ATOM     11  C   LIG    1       -0.076   5.329   0.060  0.00  0.00    +0.590 C 
ATOM     12  O   LIG    1        0.963   5.952  -0.039  0.00  0.00    -0.510 OA
ENDROOT
BRANCH  11  13
ATOM     13  C   LIG    1       -0.057   3.851   0.032  0.00  0.00    -0.130 A 
ATOM     14  C   LIG    1       -0.954   3.154  -0.778  0.00  0.00    +0.030 A 
ATOM     15  C   LIG    1       -0.927   1.774  -0.802  0.00  0.00    -0.020 A 
ATOM     16  C   LIG    1       -0.022   1.083  -0.018  0.00  0.00    +0.020 A 
ATOM     17  C   LIG    1        0.870   1.768   0.788  0.00  0.00    +0.000 A 
ATOM     18  C   LIG    1        0.858   3.147   0.817  0.00  0.00    -0.010 A 
BRANCH  18  19
ATOM     19  C   LIG    1        1.830   3.892   1.696  0.00  0.00    +0.090 C 
BRANCH  19  20
ATOM     20  C   LIG    1        1.120   4.342   2.974  0.00  0.00    -0.070 C 
BRANCH  20  21
ATOM     21  C   LIG    1        2.091   5.087   3.853  0.00  0.00    +0.490 C 
ATOM     22  O   LIG    1        1.724   5.533   4.926  0.00  0.00    -0.710 OA
ATOM     23  O   LIG    1        3.245   5.244   3.490  0.00  0.00    -0.690 OA
ENDBRANCH  20  21
ENDBRANCH  19  20
ENDBRANCH  18  19
ENDBRANCH  11  13
TORSDOF 4
