REMARK  Name = ZINCnE00000hdbB8.0
REMARK                            x       y       z     vdW  Elec       q    Type
REMARK                         _______ _______ _______ _____ _____    ______ ____
ROOT
ATOM      1  C   LIG    1       -1.235   5.895  -0.239  0.00  0.00    +0.540 C 
ATOM      2  N   LIG    1       -0.088   5.242   0.032  0.00  0.00    -0.560 N 
ATOM      3  C   LIG    1        1.148   5.986   0.311  0.00  0.00    +0.270 C 
ATOM      4  C   LIG    1        2.285   5.318  -0.474  0.00  0.00    +0.020 C 
ATOM      5  C   LIG    1        2.470   3.891   0.041  0.00  0.00    +0.080 C 
ATOM      6  C   LIG    1        1.153   3.159   0.052  0.00  0.00    -0.120 A 
ATOM      7  C   LIG    1        1.157   1.775   0.067  0.00  0.00    +0.020 A 
ATOM      8  C   LIG    1       -0.034   1.075   0.085  0.00  0.00    -0.030 A 
ATOM      9  C   LIG    1       -1.239   1.754   0.083  0.00  0.00    +0.020 A 
ATOM     10  C   LIG    1       -1.251   3.134   0.073  0.00  0.00    +0.020 A 
ATOM     11  C   LIG    1       -0.054   3.840   0.053  0.00  0.00    +0.160 A 
ATOM     12  O   LIG    1       -2.221   5.275  -0.575  0.00  0.00    -0.490 OA
ENDROOT
BRANCH   1  13
ATOM     13  C   LIG    1       -1.292   7.397  -0.124  0.00  0.00    -0.010 C 
BRANCH  13  14
ATOM     14  S   LIG    1       -2.992   7.958  -0.389  0.00  0.00    +0.110 S 
BRANCH  14  20
ATOM     15  C   LIG    1       -3.870  10.566  -0.338  0.00  0.00    -0.120 A 
ATOM     16  C   LIG    1       -3.681  11.944  -0.183  0.00  0.00    +0.060 A 
ATOM     17  C   LIG    1       -2.425  12.438   0.089  0.00  0.00    -0.030 A 
ATOM     18  C   LIG    1       -1.344  11.578   0.216  0.00  0.00    +0.000 A 
ATOM     19  C   LIG    1       -1.513  10.217   0.072  0.00  0.00    -0.050 A 
ATOM     20  C   LIG    1       -2.773   9.697  -0.203  0.00  0.00    -0.090 A 
BRANCH  15  22
ATOM     21  O   LIG    1       -6.158  10.792  -0.751  0.00  0.00    -0.680 OA
ATOM     22  C   LIG    1       -5.206  10.031  -0.634  0.00  0.00    +0.520 C 
ATOM     23  O   LIG    1       -5.368   8.825  -0.765  0.00  0.00    -0.650 OA
ENDBRANCH  15  22
ENDBRANCH  14  20
ENDBRANCH  13  14
ENDBRANCH   1  13
TORSDOF 4
