REMARK  Name = ZINCrD000000AKs0.0
REMARK                            x       y       z     vdW  Elec       q    Type
REMARK                         _______ _______ _______ _____ _____    ______ ____
ROOT
ATOM      1  O   LIG    1        2.950   6.100  -4.066  0.00  0.00    -0.510 OA
ATOM      2  C   LIG    1        2.008   5.474  -4.505  0.00  0.00    +0.530 C 
ATOM      3  N   LIG    1        1.526   5.755  -5.732  0.00  0.00    -0.710 N 
ATOM      4  H   LIG    1        0.819   5.210  -6.112  0.00  0.00    +0.410 HD
ENDROOT
BRANCH   2   5
ATOM      5  C   LIG    1        1.378   4.383  -3.679  0.00  0.00    +0.000 C 
ATOM      6  C   LIG    1       -0.104   4.704  -3.375  0.00  0.00    +0.070 C 
ATOM      7  C   LIG    1       -0.310   4.200  -1.964  0.00  0.00    +0.520 C 
ATOM      8  N   LIG    1        0.876   3.999  -1.366  0.00  0.00    -0.620 N 
ATOM      9  O   LIG    1       -1.390   4.005  -1.448  0.00  0.00    -0.510 OA
ATOM     10  C   LIG    1        1.989   4.346  -2.259  0.00  0.00    +0.290 C 
BRANCH   8  11
ATOM     11  C   LIG    1        1.039   3.505   0.003  0.00  0.00    +0.380 C 
BRANCH  11  12
ATOM     12  C   LIG    1        1.115   2.000  -0.012  0.00  0.00    +0.100 A 
ATOM     13  C   LIG    1        2.348   1.378  -0.034  0.00  0.00    -0.030 A 
ATOM     14  C   LIG    1        2.407  -0.007  -0.048  0.00  0.00    +0.060 A 
ATOM     15  C   LIG    1        1.217  -0.718  -0.039  0.00  0.00    -0.030 A 
ATOM     16  C   LIG    1        0.020  -0.027  -0.017  0.00  0.00    +0.260 A 
ATOM     17  N   LIG    1        0.002   1.291  -0.004  0.00  0.00    -0.460 NA
ENDBRANCH  11  12
ENDBRANCH   8  11
ENDBRANCH   2   5
BRANCH   3  18
ATOM     18  C   LIG    1        2.069   6.884  -6.492  0.00  0.00    +0.190 C 
ATOM     19  C   LIG    1        1.752   6.823  -7.996  0.00  0.00    +0.050 C 
ATOM     20  C   LIG    1        3.053   6.019  -8.157  0.00  0.00    +0.020 C 
ATOM     21  C   LIG    1        3.548   6.713  -6.877  0.00  0.00    +0.040 C 
BRANCH  18  22
ATOM     22  C   LIG    1        1.759   8.217  -5.862  0.00  0.00    -0.070 A 
ATOM     23  C   LIG    1        0.786   8.310  -4.885  0.00  0.00    +0.030 A 
ATOM     24  C   LIG    1        0.502   9.533  -4.305  0.00  0.00    +0.020 A 
ATOM     25  C   LIG    1        1.192  10.663  -4.702  0.00  0.00    +0.040 A 
ATOM     26  C   LIG    1        2.167  10.570  -5.680  0.00  0.00    -0.090 A 
ATOM     27 BR   LIG    1        3.111  12.115  -6.223  0.00  0.00    -0.050 Br
ATOM     28  C   LIG    1        2.454   9.346  -6.256  0.00  0.00    +0.050 A 
ENDBRANCH  18  22
ENDBRANCH   3  18
TORSDOF 5
