REMARK  Name = ZINCpk00000y4DzF.0
REMARK                            x       y       z     vdW  Elec       q    Type
REMARK                         _______ _______ _______ _____ _____    ______ ____
ROOT
ATOM      1  C   LIG    1       -0.351   1.345   2.479  0.00  0.00    +0.580 C 
ATOM      2  N   LIG    1       -0.749   1.534   1.205  0.00  0.00    -0.620 N 
ATOM      3  C   LIG    1       -0.065   1.020   0.009  0.00  0.00    +0.250 C 
ATOM      4  C   LIG    1       -0.860   1.505  -1.221  0.00  0.00    +0.050 C 
ATOM      5  C   LIG    1       -1.630   2.737  -0.674  0.00  0.00    +0.140 C 
ATOM      6  C   LIG    1       -1.944   2.288   0.775  0.00  0.00    +0.280 C 
ATOM      7  O   LIG    1       -0.937   1.903   3.387  0.00  0.00    -0.540 OA
ENDROOT
BRANCH   1  11
ATOM      8  C   LIG    1        2.945  -1.197   3.321  0.00  0.00    +0.150 A 
ATOM      9  C   LIG    1        2.183  -0.681   4.363  0.00  0.00    -0.020 A 
ATOM     10  C   LIG    1        1.114   0.144   4.094  0.00  0.00    +0.120 A 
ATOM     11  C   LIG    1        0.794   0.462   2.772  0.00  0.00    -0.170 A 
ATOM     12  C   LIG    1        1.558  -0.064   1.726  0.00  0.00    +0.080 A 
ATOM     13  C   LIG    1        2.630  -0.884   2.003  0.00  0.00    -0.090 A 
BRANCH   8  15
ATOM     14  C   LIG    1        4.737  -2.505   2.471  0.00  0.00    +0.240 C 
ATOM     15  O   LIG    1        3.998  -2.009   3.590  0.00  0.00    -0.310 OA
ENDBRANCH   8  15
ENDBRANCH   1  11
BRANCH   5  16
ATOM     16  N   LIG    1       -2.866   2.965  -1.434  0.00  0.00    -0.520 NA
ATOM     17  C   LIG    1       -2.582   3.116  -2.868  0.00  0.00    +0.190 C 
BRANCH  16  18
ATOM     18  C   LIG    1       -3.595   4.131  -0.917  0.00  0.00    +0.290 C 
BRANCH  18  19
ATOM     19  C   LIG    1       -4.961   4.190  -1.548  0.00  0.00    +0.370 A 
ATOM     20  N   LIG    1       -5.120   4.864  -2.669  0.00  0.00    -0.560 NA
ATOM     21  C   LIG    1       -6.305   4.937  -3.260  0.00  0.00    +0.350 A 
ATOM     22  C   LIG    1       -7.386   4.304  -2.682  0.00  0.00    -0.160 A 
ATOM     23  C   LIG    1       -7.185   3.603  -1.491  0.00  0.00    +0.440 A 
ATOM     24  N   LIG    1       -5.966   3.571  -0.961  0.00  0.00    -0.560 NA
BRANCH  23  25
ATOM     25  N   LIG    1       -8.239   2.951  -0.871  0.00  0.00    -0.840 N 
ATOM     26  H   LIG    1       -9.125   2.979  -1.264  0.00  0.00    +0.410 HD
ATOM     27  H   LIG    1       -8.090   2.466  -0.044  0.00  0.00    +0.410 HD
ENDBRANCH  23  25
ENDBRANCH  18  19
ENDBRANCH  16  18
ENDBRANCH   5  16
TORSDOF 6
