REMARK  Name = ZINCrH000004mnvz.0
REMARK                            x       y       z     vdW  Elec       q    Type
REMARK                         _______ _______ _______ _____ _____    ______ ____
ROOT
ATOM      1  C   LIG    1        2.431   3.933  -0.001  0.00  0.00    +0.150 A 
ATOM      2  C   LIG    1        3.630   3.324  -0.010  0.00  0.00    -0.120 A 
ATOM      3  S   LIG    1        4.879   4.568  -0.021  0.00  0.00    +0.190 S 
ATOM      4  C   LIG    1        3.636   5.816  -0.002  0.00  0.00    +0.270 A 
ATOM      5  N   LIG    1        2.466   5.257   0.007  0.00  0.00    -0.480 NA
ENDROOT
BRANCH   1   9
ATOM      6  C   LIG    1       -1.225   1.752   0.017  0.00  0.00    +0.180 A 
ATOM      7  C   LIG    1       -0.013   1.076   0.008  0.00  0.00    -0.120 A 
ATOM      8  C   LIG    1        1.174   1.780   0.000  0.00  0.00    +0.120 A 
ATOM      9  C   LIG    1        1.157   3.173   0.008  0.00  0.00    -0.100 A 
ATOM     10  C   LIG    1       -0.065   3.853   0.023  0.00  0.00    +0.200 A 
ATOM     11  C   LIG    1       -1.251   3.139   0.031  0.00  0.00    -0.110 A 
BRANCH   6  13
ATOM     12  C   LIG    1       -2.292  -0.373   0.010  0.00  0.00    +0.250 C 
ATOM     13  O   LIG    1       -2.390   1.052   0.019  0.00  0.00    -0.320 OA
ENDBRANCH   6  13
BRANCH  10  14
ATOM     14  O   LIG    1       -0.089   5.212   0.031  0.00  0.00    -0.270 OA
ATOM     15  C   LIG    1       -1.373   5.838   0.047  0.00  0.00    +0.240 C 
ENDBRANCH  10  14
ENDBRANCH   1   9
BRANCH   4  16
ATOM     16  N   LIG    1        3.873   7.185   0.004  0.00  0.00    -0.620 N 
ATOM     17  H   LIG    1        3.128   7.806   0.015  0.00  0.00    +0.420 HD
ATOM     18  C   LIG    1        5.138   7.650  -0.006  0.00  0.00    +0.510 C 
ATOM     19  O   LIG    1        6.069   6.874  -0.019  0.00  0.00    -0.480 OA
BRANCH  18  20
ATOM     20  C   LIG    1        5.395   9.135   0.000  0.00  0.00    +0.220 C 
BRANCH  20  21
ATOM     21  N   LIG    1        6.843   9.382  -0.012  0.00  0.00    -0.520 NA
ATOM     22  C   LIG    1        7.468   8.909   1.229  0.00  0.00    +0.170 C 
ATOM     23  C   LIG    1        8.988   9.048   1.121  0.00  0.00    -0.010 C 
ATOM     24  C   LIG    1        9.345  10.516   0.875  0.00  0.00    +0.020 C 
ATOM     25  C   LIG    1        8.643  10.998  -0.397  0.00  0.00    -0.020 C 
ATOM     26  C   LIG    1        9.145  10.189  -1.595  0.00  0.00    +0.030 C 
ATOM     27  C   LIG    1        9.638   8.575   2.424  0.00  0.00    +0.020 C 
ATOM     28  C   LIG    1        7.133  10.802  -0.245  0.00  0.00    +0.180 C 
ENDBRANCH  20  21
ENDBRANCH  18  20
ENDBRANCH   4  16
TORSDOF 6
