REMARK  Name = ZINCpk00000KfKHE.0
REMARK                            x       y       z     vdW  Elec       q    Type
REMARK                         _______ _______ _______ _____ _____    ______ ____
ROOT
ATOM      1  N   LIG    1       -0.017   1.397   0.010  0.00  0.00    -0.570 N 
ATOM      2  H   LIG    1        0.816   1.893   0.004  0.00  0.00    +0.410 HD
ATOM      3  C   LIG    1       -1.193   2.055   0.019  0.00  0.00    +0.540 C 
ATOM      4  O   LIG    1       -2.235   1.434   0.020  0.00  0.00    -0.450 OA
ENDROOT
BRANCH   1  17
ATOM      5  O   LIG    1        2.772   1.126  -0.018  0.00  0.00    -0.500 OA
ATOM      6  C   LIG    1        2.503  -0.060  -0.022  0.00  0.00    +0.550 C 
ATOM      7  N   LIG    1        3.387  -1.072  -0.036  0.00  0.00    -0.640 N 
ATOM      8  H   LIG    1        4.350  -0.956  -0.044  0.00  0.00    +0.430 HD
ATOM      9  C   LIG    1        2.746  -2.308  -0.037  0.00  0.00    +0.150 A 
ATOM     10  C   LIG    1        3.244  -3.606  -0.049  0.00  0.00    +0.050 A 
ATOM     11  C   LIG    1        2.378  -4.681  -0.047  0.00  0.00    +0.050 A 
ATOM     12  C   LIG    1        1.006  -4.482  -0.032  0.00  0.00    +0.080 A 
ATOM     13  C   LIG    1        0.494  -3.198  -0.021  0.00  0.00    +0.080 A 
ATOM     14  F   LIG    1        0.170  -5.543  -0.030  0.00  0.00    -0.130 F 
ATOM     15  C   LIG    1        1.359  -2.110  -0.016  0.00  0.00    -0.070 A 
ATOM     16  C   LIG    1        1.146  -0.644  -0.012  0.00  0.00    +0.070 C 
ATOM     17  N   LIG    1        0.002  -0.004   0.002  0.00  0.00    -0.110 NA
ENDBRANCH   1  17
BRANCH   3  18
ATOM     18  C   LIG    1       -1.214   3.562   0.027  0.00  0.00    +0.160 C 
ATOM     19  C   LIG    1       -0.604   4.080   1.337  0.00  0.00    +0.250 C 
ATOM     20  O   LIG    1       -0.651   5.511   1.317  0.00  0.00    -0.300 OA
ATOM     21  C   LIG    1       -1.825   6.079   0.927  0.00  0.00    +0.040 A 
ATOM     22  C   LIG    1       -2.067   7.412   1.221  0.00  0.00    +0.030 A 
ATOM     23  C   LIG    1       -3.253   8.004   0.828  0.00  0.00    +0.030 A 
ATOM     24  C   LIG    1       -4.201   7.268   0.142  0.00  0.00    +0.030 A 
ATOM     25  C   LIG    1       -3.967   5.938  -0.152  0.00  0.00    +0.030 A 
ATOM     26  C   LIG    1       -2.779   5.339   0.239  0.00  0.00    +0.050 A 
ATOM     27  O   LIG    1       -2.565   4.027  -0.053  0.00  0.00    -0.280 OA
ENDBRANCH   3  18
TORSDOF 2
