REMARK  Name = ZINCpe000000TpuZ.0
REMARK                            x       y       z     vdW  Elec       q    Type
REMARK                         _______ _______ _______ _____ _____    ______ ____
ROOT
ATOM      1  N   LIG    1        0.372   1.662   1.519  0.00  0.00    -0.540 N 
ATOM      2  C   LIG    1        0.861   2.379   2.547  0.00  0.00    +0.710 A 
ATOM      3  N   LIG    1        0.259   3.509   2.957  0.00  0.00    -0.660 N 
ATOM      4  H   LIG    1        0.631   4.008   3.701  0.00  0.00    +0.430 HD
ATOM      5  C   LIG    1       -0.860   3.953   2.352  0.00  0.00    +0.560 A 
ATOM      6  C   LIG    1       -1.397   3.230   1.269  0.00  0.00    -0.150 A 
ATOM      7  O   LIG    1       -1.402   4.975   2.736  0.00  0.00    -0.500 OA
ATOM      8  O   LIG    1        1.867   1.998   3.115  0.00  0.00    -0.530 OA
ATOM      9  C   LIG    1       -0.764   2.073   0.862  0.00  0.00    +0.470 A 
ENDROOT
BRANCH   6  10
ATOM     10  N   LIG    1       -2.564   3.678   0.616  0.00  0.00    -0.520 N 
ATOM     11  C   LIG    1       -2.557   4.851  -0.047  0.00  0.00    +0.580 C 
ATOM     12  O   LIG    1       -3.538   5.201  -0.674  0.00  0.00    -0.510 OA
BRANCH  11  13
ATOM     13  C   LIG    1       -1.356   5.713  -0.011  0.00  0.00    -0.110 A 
ATOM     14  C   LIG    1       -0.091   5.146   0.153  0.00  0.00    +0.030 A 
ATOM     15  C   LIG    1        1.026   5.955   0.179  0.00  0.00    -0.010 A 
ATOM     16  C   LIG    1        0.893   7.327   0.055  0.00  0.00    +0.020 A 
ATOM     17  C   LIG    1       -0.358   7.896  -0.102  0.00  0.00    +0.010 A 
ATOM     18  C   LIG    1       -1.483   7.097  -0.136  0.00  0.00    +0.070 A 
ENDBRANCH  11  13
BRANCH  10  19
ATOM     19  C   LIG    1       -3.783   2.867   0.658  0.00  0.00    +0.310 C 
BRANCH  19  20
ATOM     20  C   LIG    1       -4.555   3.173   1.943  0.00  0.00    +0.160 C 
BRANCH  20  21
ATOM     21  O   LIG    1       -5.003   4.529   1.919  0.00  0.00    -0.370 OA
ATOM     22  C   LIG    1       -5.738   4.919   3.081  0.00  0.00    +0.200 C 
ENDBRANCH  20  21
ENDBRANCH  19  20
ENDBRANCH  10  19
ENDBRANCH   6  10
BRANCH   9  23
ATOM     23  N   LIG    1       -1.264   1.340  -0.188  0.00  0.00    -0.830 N 
ATOM     24  H   LIG    1       -2.068   1.633  -0.645  0.00  0.00    +0.430 HD
ATOM     25  H   LIG    1       -0.813   0.529  -0.472  0.00  0.00    +0.410 HD
ENDBRANCH   9  23
BRANCH   1  26
ATOM     26  C   LIG    1        1.054   0.436   1.097  0.00  0.00    +0.300 C 
BRANCH  26  28
ATOM     27  C   LIG    1        1.196  -2.037   1.427  0.00  0.00    +0.040 C 
ATOM     28  C   LIG    1        0.483  -0.756   1.868  0.00  0.00    +0.010 C 
ENDBRANCH  26  28
ENDBRANCH   1  26
TORSDOF 8
