REMARK  Name = ZINCqH0000039Byq.0
REMARK                            x       y       z     vdW  Elec       q    Type
REMARK                         _______ _______ _______ _____ _____    ______ ____
ROOT
ATOM      1  O   LIG    1       -0.272  -0.428   2.695  0.00  0.00    -0.570 OA
ATOM      2  C   LIG    1       -0.873   0.612   2.508  0.00  0.00    +0.700 C 
ATOM      3  N   LIG    1       -1.000   1.507   3.508  0.00  0.00    -0.680 N 
ATOM      4  H   LIG    1       -1.420   2.365   3.340  0.00  0.00    +0.410 HD
ATOM      5  N   LIG    1       -1.412   0.871   1.300  0.00  0.00    -0.740 N 
ATOM      6  H   LIG    1       -1.892   1.700   1.150  0.00  0.00    +0.400 HD
ENDROOT
BRANCH   3   7
ATOM      7  C   LIG    1       -0.526   1.198   4.788  0.00  0.00    +0.190 A 
ATOM      8  C   LIG    1        0.609   0.412   4.939  0.00  0.00    +0.020 A 
ATOM      9  C   LIG    1        1.077   0.113   6.203  0.00  0.00    +0.020 A 
ATOM     10  C   LIG    1        0.410   0.586   7.319  0.00  0.00    -0.020 A 
ATOM     11  C   LIG    1       -0.724   1.364   7.172  0.00  0.00    +0.020 A 
ATOM     12  C   LIG    1       -1.194   1.671   5.910  0.00  0.00    -0.120 A 
BRANCH  12  13
ATOM     13  C   LIG    1       -2.429   2.519   5.751  0.00  0.00    +0.230 C 
BRANCH  13  14
ATOM     14  N   LIG    1       -2.044   3.870   5.321  0.00  0.00    -0.550 NA
ATOM     15  C   LIG    1       -1.363   4.590   6.400  0.00  0.00    +0.200 C 
ATOM     16  C   LIG    1       -0.594   5.784   5.824  0.00  0.00    +0.130 C 
ATOM     17  S   LIG    1       -1.786   6.920   5.051  0.00  0.00    -0.270 S 
ATOM     18  C   LIG    1       -2.723   5.800   3.966  0.00  0.00    +0.120 C 
ATOM     19  C   LIG    1       -3.199   4.603   4.798  0.00  0.00    +0.190 C 
ENDBRANCH  13  14
ENDBRANCH  12  13
ENDBRANCH   3   7
BRANCH   5  20
ATOM     20  C   LIG    1       -1.274  -0.102   0.213  0.00  0.00    +0.280 C 
BRANCH  20  21
ATOM     21  C   LIG    1       -1.971   0.431  -1.040  0.00  0.00    +0.080 C 
BRANCH  21  22
ATOM     22  C   LIG    1       -1.829  -0.569  -2.158  0.00  0.00    -0.120 A 
ATOM     23  C   LIG    1       -2.874  -1.421  -2.460  0.00  0.00    +0.050 A 
ATOM     24  C   LIG    1       -2.744  -2.339  -3.486  0.00  0.00    +0.000 A 
ATOM     25  C   LIG    1       -1.569  -2.406  -4.210  0.00  0.00    +0.040 A 
ATOM     26  C   LIG    1       -0.522  -1.554  -3.910  0.00  0.00    -0.010 A 
ATOM     27  C   LIG    1       -0.653  -0.631  -2.887  0.00  0.00    +0.100 A 
ATOM     28  F   LIG    1        0.367   0.206  -2.597  0.00  0.00    -0.140 F 
ENDBRANCH  21  22
ENDBRANCH  20  21
ENDBRANCH   5  20
TORSDOF 6
