REMARK  Name = ZINCpe000000ZCgm.0
REMARK                            x       y       z     vdW  Elec       q    Type
REMARK                         _______ _______ _______ _____ _____    ______ ____
ROOT
ATOM      1  O   LIG    1        0.166   4.505  -2.797  0.00  0.00    -0.540 OA
ATOM      2  C   LIG    1       -0.052   3.366  -2.431  0.00  0.00    +0.700 C 
ATOM      3  N   LIG    1       -0.701   3.057  -1.292  0.00  0.00    -0.720 N 
ATOM      4  H   LIG    1       -1.064   3.680  -0.643  0.00  0.00    +0.440 HD
ATOM      5  C   LIG    1       -0.750   1.591  -1.228  0.00  0.00    +0.130 C 
ATOM      6  C   LIG    1       -0.040   1.144  -2.485  0.00  0.00    +0.540 C 
ATOM      7  O   LIG    1        0.158   0.005  -2.850  0.00  0.00    -0.460 OA
ATOM      8  C   LIG    1       -0.013   1.086   0.008  0.00  0.00    +0.050 C 
ATOM      9  C   LIG    1       -0.729   1.579   1.268  0.00  0.00    +0.010 C 
ATOM     10  C   LIG    1       -2.170   1.067   1.268  0.00  0.00    +0.010 C 
ATOM     11  C   LIG    1       -2.903   1.598   0.034  0.00  0.00    +0.010 C 
ATOM     12  C   LIG    1       -2.195   1.105  -1.230  0.00  0.00    +0.050 C 
ATOM     13  N   LIG    1        0.327   2.279  -3.115  0.00  0.00    -0.570 N 
ENDROOT
BRANCH  13  14
ATOM     14  C   LIG    1        1.050   2.318  -4.388  0.00  0.00    +0.480 C 
BRANCH  14  15
ATOM     15  N   LIG    1        2.496   2.319  -4.130  0.00  0.00    -0.560 NA
ATOM     16  C   LIG    1        2.970   3.669  -3.794  0.00  0.00    +0.210 C 
ATOM     17  C   LIG    1        4.461   3.614  -3.456  0.00  0.00    +0.220 C 
ATOM     18  N   LIG    1        5.202   3.070  -4.602  0.00  0.00    -0.460 N 
ATOM     19  C   LIG    1        4.728   1.719  -4.938  0.00  0.00    +0.230 C 
ATOM     20  C   LIG    1        3.236   1.774  -5.276  0.00  0.00    +0.200 C 
BRANCH  18  21
ATOM     21  C   LIG    1        6.564   3.071  -4.359  0.00  0.00    +0.490 A 
ATOM     22  N   LIG    1        7.238   1.933  -4.445  0.00  0.00    -0.550 NA
ATOM     23  C   LIG    1        8.541   1.901  -4.224  0.00  0.00    +0.340 A 
ATOM     24  C   LIG    1        9.200   3.074  -3.889  0.00  0.00    -0.110 A 
ATOM     25  C   LIG    1        8.463   4.245  -3.802  0.00  0.00    +0.340 A 
ATOM     26  N   LIG    1        7.163   4.209  -4.041  0.00  0.00    -0.530 NA
ENDBRANCH  18  21
ENDBRANCH  14  15
ENDBRANCH  13  14
TORSDOF 3
