REMARK  Name = ZINCqH0000005n8G.0
REMARK                            x       y       z     vdW  Elec       q    Type
REMARK                         _______ _______ _______ _____ _____    ______ ____
ROOT
ATOM      1  N   LIG    1       -3.605  -0.764   0.006  0.00  0.00    -0.670 N 
ATOM      2  H   LIG    1       -3.589  -1.731  -0.070  0.00  0.00    +0.410 HD
ATOM      3  C   LIG    1       -4.781  -0.116   0.117  0.00  0.00    +0.510 C 
ATOM      4  O   LIG    1       -4.806   1.097   0.127  0.00  0.00    -0.520 OA
ENDROOT
BRANCH   1  12
ATOM      5  C   LIG    1        0.847   3.579   0.044  0.00  0.00    +0.220 C 
ATOM      6  N   LIG    1        1.151   2.145  -0.054  0.00  0.00    -0.500 N 
ATOM      7  C   LIG    1        2.137   1.748   0.953  0.00  0.00    +0.190 C 
ATOM      8  C   LIG    1        2.392   0.241   0.823  0.00  0.00    +0.040 C 
ATOM      9  C   LIG    1        1.121  -0.491   1.258  0.00  0.00    +0.070 C 
ATOM     10  C   LIG    1       -0.079   0.135   0.592  0.00  0.00    -0.110 A 
ATOM     11  C   LIG    1       -1.269  -0.574   0.593  0.00  0.00    +0.010 A 
ATOM     12  C   LIG    1       -2.404  -0.042   0.001  0.00  0.00    +0.110 A 
ATOM     13  C   LIG    1       -2.346   1.210  -0.597  0.00  0.00    +0.050 A 
ATOM     14  C   LIG    1       -1.162   1.914  -0.603  0.00  0.00    -0.010 A 
ATOM     15  C   LIG    1       -0.018   1.381  -0.007  0.00  0.00    +0.120 A 
ENDBRANCH   1  12
BRANCH   3  16
ATOM     16  C   LIG    1       -6.065  -0.897   0.227  0.00  0.00    +0.060 C 
BRANCH  16  17
ATOM     17  C   LIG    1       -7.244   0.072   0.340  0.00  0.00    +0.060 C 
BRANCH  17  18
ATOM     18  C   LIG    1       -8.547  -0.722   0.453  0.00  0.00    +0.180 C 
BRANCH  18  19
ATOM     19  C   LIG    1       -9.708   0.233   0.564  0.00  0.00    +0.180 A 
ATOM     20  N   LIG    1      -10.404   0.734  -0.428  0.00  0.00    -0.470 NA
ATOM     21  C   LIG    1      -11.329   1.526   0.144  0.00  0.00    +0.180 A 
ATOM     22  N   LIG    1      -11.151   1.467   1.430  0.00  0.00    -0.380 NA
ATOM     23  O   LIG    1      -10.228   0.725   1.692  0.00  0.00    +0.080 OA
BRANCH  21  24
ATOM     24  C   LIG    1      -12.378   2.334  -0.575  0.00  0.00    +0.020 C 
ATOM     25  C   LIG    1      -11.698   3.332  -1.516  0.00  0.00    +0.060 C 
ATOM     26  C   LIG    1      -13.226   3.094   0.447  0.00  0.00    +0.050 C 
ATOM     27  C   LIG    1      -13.275   1.398  -1.387  0.00  0.00    +0.060 C 
ENDBRANCH  21  24
ENDBRANCH  18  19
ENDBRANCH  17  18
ENDBRANCH  16  17
ENDBRANCH   3  16
TORSDOF 6
