REMARK  Name = ZINCrD000006fiLY.0
REMARK                            x       y       z     vdW  Elec       q    Type
REMARK                         _______ _______ _______ _____ _____    ______ ____
ROOT
ATOM      1  N   LIG    1        1.204  -0.653  -0.023  0.00  0.00    -0.670 N 
ATOM      2  H   LIG    1        2.037  -0.162  -0.098  0.00  0.00    +0.410 HD
ATOM      3  C   LIG    1        0.030   0.010  -0.012  0.00  0.00    +0.560 C 
ATOM      4  O   LIG    1       -1.017  -0.608  -0.001  0.00  0.00    -0.510 OA
ENDROOT
BRANCH   1   7
ATOM      5  C   LIG    1        2.257  -4.069   0.858  0.00  0.00    +0.130 A 
ATOM      6  C   LIG    1        2.246  -2.685   0.758  0.00  0.00    +0.030 A 
ATOM      7  C   LIG    1        1.220  -2.049   0.074  0.00  0.00    +0.150 A 
ATOM      8  C   LIG    1        0.211  -2.798  -0.518  0.00  0.00    +0.050 A 
ATOM      9  C   LIG    1        0.226  -4.177  -0.423  0.00  0.00    +0.040 A 
ATOM     10  C   LIG    1        1.244  -4.815   0.262  0.00  0.00    +0.060 A 
ATOM     11  F   LIG    1        1.256  -6.163   0.353  0.00  0.00    -0.140 F 
BRANCH   5  13
ATOM     12  C   LIG    1        3.829  -4.137   2.642  0.00  0.00    +0.550 C 
ATOM     13  N   LIG    1        3.287  -4.714   1.551  0.00  0.00    -0.670 N 
ATOM     14  H   LIG    1        3.611  -5.576   1.247  0.00  0.00    +0.420 HD
ATOM     15  O   LIG    1        3.481  -3.020   2.976  0.00  0.00    -0.520 OA
BRANCH  12  17
ATOM     16  C   LIG    1        5.377  -4.289   4.505  0.00  0.00    +0.160 C 
ATOM     17  C   LIG    1        4.841  -4.858   3.428  0.00  0.00    -0.090 C 
ENDBRANCH  12  17
ENDBRANCH   5  13
ENDBRANCH   1   7
BRANCH   3  18
ATOM     18  C   LIG    1        0.016   1.488  -0.013  0.00  0.00    -0.140 A 
ATOM     19  C   LIG    1        1.218   2.200  -0.026  0.00  0.00    +0.070 A 
ATOM     20  C   LIG    1        1.207   3.580  -0.027  0.00  0.00    +0.010 A 
ATOM     21  C   LIG    1        0.009   4.267  -0.016  0.00  0.00    +0.070 A 
ATOM     22  C   LIG    1       -1.200   3.568  -0.004  0.00  0.00    -0.140 A 
ATOM     23  C   LIG    1       -1.196   2.175  -0.008  0.00  0.00    +0.150 A 
BRANCH  22  24
ATOM     24  C   LIG    1       -2.482   4.305   0.007  0.00  0.00    +0.560 C 
ATOM     25  N   LIG    1       -2.484   5.653   0.005  0.00  0.00    -0.730 N 
ATOM     26  H   LIG    1       -1.645   6.139  -0.003  0.00  0.00    +0.400 HD
ATOM     27  O   LIG    1       -3.534   3.696   0.017  0.00  0.00    -0.530 OA
BRANCH  25  28
ATOM     28  C   LIG    1       -3.754   6.383   0.016  0.00  0.00    +0.260 C 
BRANCH  28  29
ATOM     29  C   LIG    1       -3.477   7.888   0.011  0.00  0.00    +0.000 C 
ATOM     30  C   LIG    1       -4.803   8.651   0.023  0.00  0.00    +0.030 C 
ENDBRANCH  28  29
ENDBRANCH  25  28
ENDBRANCH  22  24
ENDBRANCH   3  18
TORSDOF 7
