REMARK  Name = ZINCpe000000SQeO.0
REMARK                            x       y       z     vdW  Elec       q    Type
REMARK                         _______ _______ _______ _____ _____    ______ ____
ROOT
ATOM      1  N   LIG    1        1.205   2.042   0.004  0.00  0.00    -0.730 N 
ATOM      2  H   LIG    1        1.976   1.456  -0.050  0.00  0.00    +0.400 HD
ATOM      3  C   LIG    1        1.377   3.376   0.086  0.00  0.00    +0.700 C 
ATOM      4  N   LIG    1        2.618   3.889   0.203  0.00  0.00    -0.630 N 
ATOM      5  C   LIG    1        3.798   3.017   0.136  0.00  0.00    +0.260 C 
ATOM      6  C   LIG    1        4.661   3.252   1.375  0.00  0.00    +0.020 C 
ATOM      7  C   LIG    1        4.986   4.742   1.492  0.00  0.00    +0.030 C 
ATOM      8  C   LIG    1        3.689   5.539   1.647  0.00  0.00    -0.040 C 
ATOM      9  C   LIG    1        2.815   5.331   0.405  0.00  0.00    +0.320 C 
ATOM     10  O   LIG    1        0.413   4.117   0.053  0.00  0.00    -0.580 OA
ENDROOT
BRANCH   1  11
ATOM     11  C   LIG    1       -0.147   1.477  -0.004  0.00  0.00    +0.290 C 
BRANCH  11  13
ATOM     12  C   LIG    1       -1.468  -0.638   0.154  0.00  0.00    +0.010 C 
ATOM     13  C   LIG    1       -0.062  -0.051   0.021  0.00  0.00    +0.090 C 
ATOM     14  C   LIG    1        0.577  -0.546  -1.278  0.00  0.00    +0.050 C 
BRANCH  13  15
ATOM     15  N   LIG    1        0.757  -0.477   1.163  0.00  0.00    -0.520 NA
ATOM     16  C   LIG    1        1.003  -1.926   1.123  0.00  0.00    +0.150 C 
ATOM     17  C   LIG    1        1.907  -2.317   2.295  0.00  0.00    +0.220 C 
ATOM     18  O   LIG    1        1.296  -1.905   3.521  0.00  0.00    -0.380 OA
ATOM     19  C   LIG    1        1.043  -0.499   3.594  0.00  0.00    +0.230 C 
ATOM     20  C   LIG    1        0.130  -0.090   2.435  0.00  0.00    +0.150 C 
ENDBRANCH  13  15
ENDBRANCH  11  13
ENDBRANCH   1  11
BRANCH   8  21
ATOM     21  C   LIG    1        4.017   7.026   1.796  0.00  0.00    +0.330 C 
BRANCH  21  22
ATOM     22  N   LIG    1        2.786   7.774   2.059  0.00  0.00    -0.290 N 
ATOM     23  C   LIG    1        2.566   8.594   3.113  0.00  0.00    +0.140 A 
ATOM     24  C   LIG    1        1.309   9.074   2.962  0.00  0.00    +0.140 A 
ATOM     25  N   LIG    1        0.825   8.525   1.842  0.00  0.00    -0.270 NA
ATOM     26  N   LIG    1        1.724   7.760   1.331  0.00  0.00    -0.080 NA
ENDBRANCH  21  22
ENDBRANCH   8  21
TORSDOF 5
