REMARK  Name = ZINCrD000000CIbC.0
REMARK                            x       y       z     vdW  Elec       q    Type
REMARK                         _______ _______ _______ _____ _____    ______ ____
ROOT
ATOM      1  O   LIG    1        3.786  -5.999   5.505  0.00  0.00    -0.540 OA
ATOM      2  C   LIG    1        4.280  -6.399   4.467  0.00  0.00    +0.600 C 
ATOM      3  N   LIG    1        4.442  -5.554   3.429  0.00  0.00    -0.610 N 
ATOM      4  C   LIG    1        5.147  -5.987   2.215  0.00  0.00    +0.260 C 
ATOM      5  C   LIG    1        6.270  -4.989   1.915  0.00  0.00    +0.020 C 
ATOM      6  C   LIG    1        5.685  -3.578   1.832  0.00  0.00    +0.010 C 
ATOM      7  C   LIG    1        5.054  -3.206   3.176  0.00  0.00    +0.010 C 
ATOM      8  C   LIG    1        3.918  -4.183   3.491  0.00  0.00    +0.280 C 
ENDROOT
BRANCH   2   9
ATOM      9  C   LIG    1        4.697  -7.798   4.345  0.00  0.00    -0.310 A 
ATOM     10  C   LIG    1        5.335  -8.573   5.334  0.00  0.00    +0.160 A 
ATOM     11  C   LIG    1        5.747  -8.296   6.644  0.00  0.00    +0.040 A 
ATOM     12  C   LIG    1        6.353  -9.276   7.374  0.00  0.00    +0.080 A 
ATOM     13  C   LIG    1        6.550 -10.540   6.800  0.00  0.00    +0.000 A 
ATOM     14  C   LIG    1        6.145 -10.785   5.534  0.00  0.00    +0.280 A 
ATOM     15  N   LIG    1        5.539  -9.812   4.797  0.00  0.00    -0.270 N 
ATOM     16  N   LIG    1        5.033  -9.804   3.491  0.00  0.00    -0.320 NA
ATOM     17  C   LIG    1        4.533  -8.627   3.222  0.00  0.00    +0.320 A 
ENDBRANCH   2   9
BRANCH   6  18
ATOM     18  C   LIG    1        6.798  -2.583   1.498  0.00  0.00    +0.140 C 
BRANCH  18  19
ATOM     19  C   LIG    1        6.203  -1.213   1.295  0.00  0.00    +0.290 A 
ATOM     20  N   LIG    1        5.249  -0.932   0.457  0.00  0.00    -0.490 NA
ATOM     21  C   LIG    1        4.954   0.392   0.528  0.00  0.00    +0.050 A 
ATOM     22  C   LIG    1        4.035   1.212  -0.132  0.00  0.00    +0.060 A 
ATOM     23  C   LIG    1        3.974   2.544   0.166  0.00  0.00    +0.000 A 
ATOM     24  C   LIG    1        4.817   3.095   1.120  0.00  0.00    +0.030 A 
ATOM     25  C   LIG    1        5.732   2.305   1.784  0.00  0.00    +0.010 A 
ATOM     26  C   LIG    1        5.808   0.950   1.495  0.00  0.00    +0.040 A 
ATOM     27  N   LIG    1        6.586  -0.091   1.962  0.00  0.00    -0.600 N 
ATOM     28  H   LIG    1        7.278  -0.033   2.639  0.00  0.00    +0.420 HD
ENDBRANCH  18  19
ENDBRANCH   6  18
TORSDOF 3
