REMARK  Name = ZINCkj00000kKecv.1
REMARK                            x       y       z     vdW  Elec       q    Type
REMARK                         _______ _______ _______ _____ _____    ______ ____
ROOT
ATOM      1  N   LIG    1        2.118   3.724   1.387  0.00  0.00    -0.550 NA
ATOM      2  C   LIG    1        0.850   4.188   1.967  0.00  0.00    +0.200 C 
ATOM      3  C   LIG    1        1.077   4.591   3.426  0.00  0.00    +0.280 C 
ATOM      4  N   LIG    1        2.083   5.659   3.488  0.00  0.00    -0.380 N 
ATOM      5  C   LIG    1        3.351   5.173   2.928  0.00  0.00    +0.280 C 
ATOM      6  H   LIG    1        1.763   6.454   2.956  0.00  0.00    +0.420 HD
ATOM      7  C   LIG    1        3.143   4.775   1.465  0.00  0.00    +0.250 C 
ENDROOT
BRANCH   1   8
ATOM      8  C   LIG    1        1.929   3.275   0.001  0.00  0.00    +0.520 C 
BRANCH   8  14
ATOM      9  S   LIG    1        3.856   0.800  -0.030  0.00  0.00    -0.510 S 
ATOM     10  C   LIG    1        2.144   0.789  -0.014  0.00  0.00    +0.500 C 
ATOM     11  O   LIG    1        1.420  -0.338  -0.013  0.00  0.00    -0.260 OA
ATOM     12  C   LIG    1        0.002  -0.004   0.002  0.00  0.00    +0.260 C 
ATOM     13  C   LIG    1       -0.019   1.537   0.011  0.00  0.00    +0.260 C 
ATOM     14  N   LIG    1        1.405   1.907  -0.001  0.00  0.00    -0.570 N 
ENDBRANCH   8  14
ENDBRANCH   1   8
BRANCH   4  15
ATOM     15  C   LIG    1        2.288   6.058   4.887  0.00  0.00    +0.330 C 
BRANCH  15  16
ATOM     16  C   LIG    1        1.020   6.670   5.426  0.00  0.00    -0.160 A 
ATOM     17  C   LIG    1        0.810   8.032   5.316  0.00  0.00    +0.040 A 
ATOM     18  C   LIG    1       -0.355   8.592   5.805  0.00  0.00    +0.030 A 
ATOM     19  C   LIG    1       -1.305   7.793   6.414  0.00  0.00    +0.060 A 
ATOM     20  C   LIG    1       -1.092   6.432   6.528  0.00  0.00    +0.030 A 
ATOM     21  C   LIG    1        0.071   5.870   6.034  0.00  0.00    +0.030 A 
ENDBRANCH  15  16
ENDBRANCH   4  15
TORSDOF 4
