REMARK  Name = ZINCpk00001AZin9.0
REMARK                            x       y       z     vdW  Elec       q    Type
REMARK                         _______ _______ _______ _____ _____    ______ ____
ROOT
ATOM      1  C   LIG    1        3.640   2.941  -0.359  0.00  0.00    +0.110 C 
ATOM      2  C   LIG    1        5.048   2.323  -0.567  0.00  0.00    +0.080 C 
ATOM      3  C   LIG    1        5.913   3.198   0.374  0.00  0.00    +0.260 C 
ATOM      4  N   LIG    1        5.055   3.458   1.544  0.00  0.00    -0.610 N 
ATOM      5  C   LIG    1        5.487   3.765   2.783  0.00  0.00    +0.590 C 
ATOM      6  O   LIG    1        4.687   4.047   3.653  0.00  0.00    -0.520 OA
ATOM      7  C   LIG    1        3.649   3.327   1.135  0.00  0.00    +0.240 C 
ENDROOT
BRANCH   5   8
ATOM      8  C   LIG    1        6.934   3.760   3.083  0.00  0.00    -0.200 A 
ATOM      9  C   LIG    1        7.412   3.107   4.213  0.00  0.00    +0.040 A 
ATOM     10  C   LIG    1        8.798   3.128   4.449  0.00  0.00    -0.110 A 
ATOM     11  C   LIG    1        9.356   2.487   5.568  0.00  0.00    +0.040 A 
ATOM     12  C   LIG    1       10.702   2.534   5.768  0.00  0.00    +0.010 A 
ATOM     13  C   LIG    1       11.533   3.209   4.878  0.00  0.00    +0.040 A 
ATOM     14  C   LIG    1       11.026   3.841   3.784  0.00  0.00    +0.040 A 
ATOM     15  C   LIG    1        9.643   3.816   3.542  0.00  0.00    +0.140 A 
ATOM     16  N   LIG    1        9.122   4.431   2.473  0.00  0.00    -0.480 NA
ATOM     17  C   LIG    1        6.475   2.393   5.153  0.00  0.00    +0.120 C 
ATOM     18  C   LIG    1        7.837   4.420   2.231  0.00  0.00    +0.320 A 
ENDBRANCH   5   8
BRANCH   1  19
ATOM     19  O   LIG    1        3.469   4.097  -1.183  0.00  0.00    -0.540 OA
ATOM     20  H   LIG    1        2.619   4.543  -1.063  0.00  0.00    +0.380 HD
ENDBRANCH   1  19
BRANCH   1  21
ATOM     21  C   LIG    1        2.548   1.909  -0.646  0.00  0.00    +0.270 C 
BRANCH  21  23
ATOM     22  C   LIG    1        0.114   1.794  -0.637  0.00  0.00    +0.550 C 
ATOM     23  N   LIG    1        1.232   2.520  -0.442  0.00  0.00    -0.730 N 
ATOM     24  H   LIG    1        1.166   3.448  -0.167  0.00  0.00    +0.400 HD
ATOM     25  O   LIG    1        0.197   0.631  -0.982  0.00  0.00    -0.540 OA
BRANCH  22  27
ATOM     26  C   LIG    1       -2.311   1.694  -0.636  0.00  0.00    +0.160 C 
ATOM     27  C   LIG    1       -1.207   2.410  -0.439  0.00  0.00    -0.090 C 
ENDBRANCH  22  27
ENDBRANCH  21  23
ENDBRANCH   1  21
TORSDOF 5
