REMARK  Name = ZINCrg00000fSEmH.1
REMARK                            x       y       z     vdW  Elec       q    Type
REMARK                         _______ _______ _______ _____ _____    ______ ____
ROOT
ATOM      1  O   LIG    1        7.467   2.132   4.965  0.00  0.00    -0.510 OA
ATOM      2  C   LIG    1        6.397   2.078   5.534  0.00  0.00    +0.510 C 
ATOM      3  N   LIG    1        6.350   2.026   6.880  0.00  0.00    -0.700 N 
ATOM      4  H   LIG    1        5.494   1.983   7.334  0.00  0.00    +0.410 HD
ENDROOT
BRANCH   2   5
ATOM      5  C   LIG    1        5.129   2.068   4.741  0.00  0.00    +0.520 C 
ATOM      6  N   LIG    1        5.176   2.119   3.395  0.00  0.00    -0.590 N 
ATOM      7  C   LIG    1        6.399   2.188   2.582  0.00  0.00    +0.270 C 
ATOM      8  C   LIG    1        5.964   2.203   1.101  0.00  0.00    +0.040 C 
ATOM      9  C   LIG    1        4.548   1.572   1.148  0.00  0.00    +0.010 C 
ATOM     10  C   LIG    1        4.009   2.117   2.494  0.00  0.00    +0.260 C 
ATOM     11  O   LIG    1        4.059   2.014   5.310  0.00  0.00    -0.520 OA
BRANCH   9  12
ATOM     12  C   LIG    1        3.691   2.059  -0.023  0.00  0.00    +0.110 C 
BRANCH  12  13
ATOM     13  C   LIG    1        2.370   1.334  -0.014  0.00  0.00    +0.130 A 
ATOM     14  C   LIG    1        1.194   2.059   0.002  0.00  0.00    -0.040 A 
ATOM     15  C   LIG    1       -0.017   1.382   0.010  0.00  0.00    +0.060 A 
ATOM     16  C   LIG    1        0.002  -0.004   0.002  0.00  0.00    -0.050 A 
ATOM     17  C   LIG    1        1.218  -0.661  -0.013  0.00  0.00    +0.260 A 
ATOM     18  N   LIG    1        2.350   0.015  -0.021  0.00  0.00    -0.480 NA
ENDBRANCH  12  13
ENDBRANCH   9  12
ENDBRANCH   2   5
BRANCH   3  19
ATOM     19  C   LIG    1        7.592   2.035   7.656  0.00  0.00    +0.340 C 
BRANCH  19  20
ATOM     20  C   LIG    1        7.266   1.971   9.126  0.00  0.00    -0.130 A 
ATOM     21  C   LIG    1        7.086   3.147   9.842  0.00  0.00    +0.090 A 
ATOM     22  C   LIG    1        6.782   3.107  11.184  0.00  0.00    +0.020 A 
ATOM     23  C   LIG    1        6.666   1.881  11.828  0.00  0.00    +0.100 A 
ATOM     24  N   LIG    1        6.386   1.503  13.120  0.00  0.00    -0.500 N 
ATOM     25  H   LIG    1        6.205   2.090  13.870  0.00  0.00    +0.450 HD
ATOM     26  N   LIG    1        6.413   0.100  13.139  0.00  0.00    +0.000 NA
ATOM     27  N   LIG    1        6.686  -0.339  11.961  0.00  0.00    -0.210 NA
ATOM     28  C   LIG    1        6.854   0.689  11.105  0.00  0.00    -0.020 A 
ATOM     29  C   LIG    1        7.157   0.757   9.740  0.00  0.00    +0.130 A 
ENDBRANCH  19  20
ENDBRANCH   3  19
TORSDOF 5
