REMARK  Name = ZINCrg00000fSEmH.0
REMARK                            x       y       z     vdW  Elec       q    Type
REMARK                         _______ _______ _______ _____ _____    ______ ____
ROOT
ATOM      1  O   LIG    1        0.926   6.202   0.731  0.00  0.00    -0.510 OA
ATOM      2  C   LIG    1        0.981   5.410   1.648  0.00  0.00    +0.510 C 
ATOM      3  N   LIG    1        1.056   4.089   1.395  0.00  0.00    -0.700 N 
ATOM      4  H   LIG    1        1.100   3.456   2.128  0.00  0.00    +0.420 HD
ENDROOT
BRANCH   2   5
ATOM      5  C   LIG    1        0.965   5.901   3.060  0.00  0.00    +0.520 C 
ATOM      6  N   LIG    1        0.889   7.222   3.314  0.00  0.00    -0.590 N 
ATOM      7  C   LIG    1        0.817   8.286   2.302  0.00  0.00    +0.270 C 
ATOM      8  C   LIG    1        0.717   9.629   3.055  0.00  0.00    +0.040 C 
ATOM      9  C   LIG    1        0.168   9.208   4.444  0.00  0.00    +0.010 C 
ATOM     10  C   LIG    1        0.859   7.840   4.652  0.00  0.00    +0.260 C 
ATOM     11  O   LIG    1        1.020   5.109   3.978  0.00  0.00    -0.520 OA
BRANCH   9  12
ATOM     12  C   LIG    1        0.587  10.207   5.525  0.00  0.00    +0.110 C 
BRANCH  12  13
ATOM     13  C   LIG    1       -0.063   9.834   6.833  0.00  0.00    +0.130 A 
ATOM     14  C   LIG    1        0.721   9.636   7.953  0.00  0.00    -0.040 A 
ATOM     15  C   LIG    1        0.113   9.294   9.152  0.00  0.00    +0.060 A 
ATOM     16  C   LIG    1       -1.267   9.162   9.177  0.00  0.00    -0.050 A 
ATOM     17  C   LIG    1       -1.985   9.376   8.016  0.00  0.00    +0.260 A 
ATOM     18  N   LIG    1       -1.374   9.706   6.896  0.00  0.00    -0.480 NA
ENDBRANCH  12  13
ENDBRANCH   9  12
ENDBRANCH   2   5
BRANCH   3  19
ATOM     19  C   LIG    1        1.072   3.608   0.011  0.00  0.00    +0.340 C 
BRANCH  19  20
ATOM     20  C   LIG    1        1.160   2.104   0.002  0.00  0.00    -0.090 A 
ATOM     21  C   LIG    1        2.384   1.514  -0.013  0.00  0.00    +0.110 A 
ATOM     22  C   LIG    1        2.475   0.111  -0.021  0.00  0.00    +0.020 A 
ATOM     23  N   LIG    1        3.447  -0.787  -0.035  0.00  0.00    -0.260 NA
ATOM     24  N   LIG    1        2.926  -1.965  -0.035  0.00  0.00    -0.190 N 
ATOM     25  H   LIG    1        3.447  -2.783  -0.044  0.00  0.00    +0.470 HD
ATOM     26  N   LIG    1        1.638  -1.940  -0.023  0.00  0.00    -0.270 NA
ATOM     27  C   LIG    1        1.235  -0.680  -0.013  0.00  0.00    +0.030 A 
ATOM     28  C   LIG    1        0.002  -0.004   0.002  0.00  0.00    +0.080 A 
ATOM     29  C   LIG    1       -0.016   1.354   0.009  0.00  0.00    +0.050 A 
ENDBRANCH  19  20
ENDBRANCH   3  19
TORSDOF 5
