REMARK  Name = ZINCrH000004mtVE.1
REMARK                            x       y       z     vdW  Elec       q    Type
REMARK                         _______ _______ _______ _____ _____    ______ ____
ROOT
ATOM      1  C   LIG    1       -7.002   3.467  -4.053  0.00  0.00    +0.250 A 
ATOM      2  C   LIG    1       -5.679   3.757  -3.742  0.00  0.00    -0.080 A 
ATOM      3  C   LIG    1       -4.890   2.807  -3.132  0.00  0.00    +0.150 A 
ATOM      4  C   LIG    1       -5.417   1.548  -2.836  0.00  0.00    -0.190 A 
ATOM      5  C   LIG    1       -6.748   1.260  -3.151  0.00  0.00    +0.250 A 
ATOM      6  C   LIG    1       -7.532   2.217  -3.756  0.00  0.00    -0.720 A 
ENDROOT
BRANCH   4   7
ATOM      7  C   LIG    1       -4.572   0.526  -2.188  0.00  0.00    +0.560 C 
ATOM      8  N   LIG    1       -3.289   0.805  -1.885  0.00  0.00    -0.720 N 
ATOM      9  H   LIG    1       -2.921   1.677  -2.094  0.00  0.00    +0.400 HD
ATOM     10  O   LIG    1       -5.035  -0.568  -1.927  0.00  0.00    -0.530 OA
BRANCH   8  11
ATOM     11  C   LIG    1       -2.451  -0.210  -1.242  0.00  0.00    +0.260 C 
ATOM     12  C   LIG    1       -1.847  -1.124  -2.310  0.00  0.00    +0.030 C 
BRANCH  11  13
ATOM     13  C   LIG    1       -1.327   0.476  -0.463  0.00  0.00    -0.060 C 
ATOM     14  C   LIG    1       -0.337  -0.419   0.285  0.00  0.00    +0.030 C 
ATOM     15  C   LIG    1       -1.373   0.393   1.065  0.00  0.00    +0.020 C 
ENDBRANCH  11  13
ENDBRANCH   8  11
ENDBRANCH   4   7
BRANCH   6  16
ATOM     16  S   LIG    1       -9.211   1.855  -4.153  0.00  0.00    +2.700 S 
ATOM     17  O   LIG    1       -9.448   0.523  -3.719  0.00  0.00    -0.940 OA
ATOM     18  O   LIG    1       -9.406   2.282  -5.494  0.00  0.00    -0.930 OA
BRANCH  16  19
ATOM     19  N   LIG    1      -10.159   2.830  -3.209  0.00  0.00    -1.050 N 
ATOM     20  H   LIG    1      -10.742   3.487  -3.622  0.00  0.00    +0.430 HD
BRANCH  19  21
ATOM     21  C   LIG    1      -10.120   2.707  -1.818  0.00  0.00    +0.160 A 
ATOM     22  C   LIG    1      -10.160   1.450  -1.229  0.00  0.00    +0.020 A 
ATOM     23  C   LIG    1      -10.116   1.331   0.146  0.00  0.00    +0.080 A 
ATOM     24  C   LIG    1      -10.043   2.463   0.938  0.00  0.00    -0.100 A 
ATOM     25  C   LIG    1      -10.010   3.718   0.354  0.00  0.00    +0.070 A 
ATOM     26 BR   LIG    1       -9.991   2.297   2.821  0.00  0.00    -0.050 Br
ATOM     27  C   LIG    1      -10.048   3.842  -1.020  0.00  0.00    +0.020 A 
ENDBRANCH  19  21
ENDBRANCH  16  19
ENDBRANCH   6  16
BRANCH   1  29
ATOM     28  C   LIG    1       -7.143   5.629  -5.027  0.00  0.00    +0.270 C 
ATOM     29  O   LIG    1       -7.779   4.407  -4.649  0.00  0.00    -0.310 OA
ENDBRANCH   1  29
TORSDOF 7
