REMARK  Name = ZINCvU00000006Lj.0
REMARK                            x       y       z     vdW  Elec       q    Type
REMARK                         _______ _______ _______ _____ _____    ______ ____
ROOT
ATOM      1  C   LIG    1       -1.285   4.591  -1.570  0.00  0.00    +0.370 A 
ATOM      2  N   LIG    1       -1.465   5.658  -2.310  0.00  0.00    -0.510 NA
ATOM      3  C   LIG    1       -2.589   5.833  -3.035  0.00  0.00    +0.090 A 
ATOM      4  C   LIG    1       -3.583   4.863  -3.007  0.00  0.00    -0.230 A 
ATOM      5  C   LIG    1       -4.729   5.205  -3.842  0.00  0.00    -0.030 A 
ATOM      6  C   LIG    1       -4.609   6.375  -4.470  0.00  0.00    -0.200 A 
ATOM      7  C   LIG    1       -5.660   6.963  -5.396  0.00  0.00    +0.120 C 
ATOM      8  C   LIG    1       -6.631   5.854  -5.807  0.00  0.00    +0.020 C 
ATOM      9  C   LIG    1       -7.107   5.119  -4.550  0.00  0.00    +0.020 C 
ATOM     10  C   LIG    1       -5.947   4.301  -3.979  0.00  0.00    +0.110 C 
ATOM     11  C   LIG    1       -3.369   3.704  -2.201  0.00  0.00    +0.570 A 
ATOM     12  O   LIG    1       -4.211   2.824  -2.144  0.00  0.00    -0.510 OA
ATOM     13  S   LIG    1       -3.081   7.151  -4.087  0.00  0.00    +0.190 S 
ATOM     14  N   LIG    1       -2.221   3.600  -1.505  0.00  0.00    -0.510 N 
ENDROOT
BRANCH  14  15
ATOM     15  C   LIG    1       -1.978   2.421  -0.670  0.00  0.00    +0.230 C 
ATOM     16  C   LIG    1       -3.111   2.247   0.361  0.00  0.00    +0.020 C 
ATOM     17  C   LIG    1       -3.365   0.734   0.486  0.00  0.00    +0.020 C 
ATOM     18  C   LIG    1       -2.377   0.040  -0.474  0.00  0.00    +0.020 C 
ATOM     19  C   LIG    1       -2.041   1.130  -1.524  0.00  0.00    +0.020 C 
ENDBRANCH  14  15
BRANCH   1  20
ATOM     20  S   LIG    1        0.205   4.429  -0.643  0.00  0.00    +0.020 S 
BRANCH  20  21
ATOM     21  C   LIG    1        1.029   5.974  -1.099  0.00  0.00    +0.170 C 
BRANCH  21  25
ATOM     22  C   LIG    1        4.815   6.208   0.875  0.00  0.00    -0.120 A 
ATOM     23  C   LIG    1        4.717   5.615  -0.385  0.00  0.00    +0.090 A 
ATOM     24  C   LIG    1        3.492   5.543  -1.016  0.00  0.00    +0.030 A 
ATOM     25  C   LIG    1        2.363   6.057  -0.403  0.00  0.00    -0.050 A 
ATOM     26  C   LIG    1        2.454   6.651   0.843  0.00  0.00    +0.030 A 
ATOM     27  C   LIG    1        3.672   6.724   1.488  0.00  0.00    +0.080 A 
BRANCH  22  28
ATOM     28  C   LIG    1        6.123   6.290   1.557  0.00  0.00    +0.510 C 
ATOM     29  O   LIG    1        7.116   5.840   1.021  0.00  0.00    -0.500 OA
BRANCH  28  31
ATOM     30  C   LIG    1        7.532   6.907   3.382  0.00  0.00    +0.290 C 
ATOM     31  O   LIG    1        6.215   6.862   2.772  0.00  0.00    -0.350 OA
ENDBRANCH  28  31
ENDBRANCH  22  28
ENDBRANCH  21  25
ENDBRANCH  20  21
ENDBRANCH   1  20
TORSDOF 6
