REMARK  Name = ZINCvU00000008Fz.0
REMARK                            x       y       z     vdW  Elec       q    Type
REMARK                         _______ _______ _______ _____ _____    ______ ____
ROOT
ATOM      1  C   LIG    1        6.209  -0.261   4.096  0.00  0.00    +0.160 A 
ATOM      2  N   LIG    1        7.126  -0.273   5.016  0.00  0.00    -0.260 NA
ATOM      3  O   LIG    1        7.659   1.026   5.175  0.00  0.00    -0.070 OA
ATOM      4  C   LIG    1        7.037   1.873   4.328  0.00  0.00    +0.310 A 
ATOM      5  N   LIG    1        7.157   3.170   4.100  0.00  0.00    -0.460 NA
ATOM      6  C   LIG    1        6.415   3.795   3.196  0.00  0.00    +0.290 A 
ATOM      7  C   LIG    1        5.463   3.107   2.434  0.00  0.00    +0.000 A 
ATOM      8  C   LIG    1        5.295   1.742   2.633  0.00  0.00    +0.010 A 
ATOM      9  C   LIG    1        6.098   1.112   3.608  0.00  0.00    -0.210 A 
ENDROOT
BRANCH   6  10
ATOM     10  C   LIG    1        6.597   5.244   2.988  0.00  0.00    -0.010 A 
ATOM     11  C   LIG    1        7.476   6.043   3.654  0.00  0.00    +0.040 A 
ATOM     12  C   LIG    1        7.314   7.342   3.137  0.00  0.00    -0.060 A 
ATOM     13  C   LIG    1        6.350   7.277   2.197  0.00  0.00    +0.210 A 
ATOM     14  O   LIG    1        5.919   6.008   2.110  0.00  0.00    -0.170 OA
ENDBRANCH   6  10
BRANCH   8  15
ATOM     15  C   LIG    1        4.301   0.973   1.852  0.00  0.00    +0.570 C 
ATOM     16  N   LIG    1        4.345   0.987   0.505  0.00  0.00    -0.590 N 
ATOM     17  C   LIG    1        5.448   1.662  -0.184  0.00  0.00    +0.300 C 
ATOM     18  O   LIG    1        3.444   0.329   2.425  0.00  0.00    -0.510 OA
BRANCH  16  19
ATOM     19  C   LIG    1        3.291   0.328  -0.270  0.00  0.00    +0.300 C 
ATOM     20  C   LIG    1        3.922  -0.662  -1.251  0.00  0.00    +0.050 C 
BRANCH  19  21
ATOM     21  C   LIG    1        2.507   1.363  -1.035  0.00  0.00    -0.100 A 
ATOM     22  C   LIG    1        1.142   1.475  -0.845  0.00  0.00    +0.060 A 
ATOM     23  C   LIG    1        0.415   2.423  -1.543  0.00  0.00    +0.020 A 
ATOM     24  C   LIG    1        1.048   3.264  -2.434  0.00  0.00    +0.070 A 
ATOM     25  C   LIG    1        2.428   3.160  -2.627  0.00  0.00    -0.030 A 
ATOM     26  C   LIG    1        3.154   2.198  -1.923  0.00  0.00    +0.060 A 
BRANCH  25  27
ATOM     27  C   LIG    1        3.093   4.034  -3.546  0.00  0.00    +0.250 C 
ATOM     28  N   LIG    1        3.621   4.727  -4.275  0.00  0.00    -0.410 NA
ENDBRANCH  25  27
ENDBRANCH  19  21
ENDBRANCH  16  19
ENDBRANCH   8  15
BRANCH   1  29
ATOM     29  C   LIG    1        5.407  -1.445   3.620  0.00  0.00    +0.140 C 
BRANCH  29  31
ATOM     30  C   LIG    1        5.366  -3.377   2.036  0.00  0.00    +0.030 C 
ATOM     31  C   LIG    1        6.180  -2.175   2.520  0.00  0.00    +0.010 C 
ENDBRANCH  29  31
ENDBRANCH   1  29
TORSDOF 7
