REMARK  Name = ZINCvU0000000J4g.0
REMARK                            x       y       z     vdW  Elec       q    Type
REMARK                         _______ _______ _______ _____ _____    ______ ____
ROOT
ATOM      1  C   LIG    1        0.814  -0.598  -2.217  0.00  0.00    +0.520 C 
ATOM      2  N   LIG    1        1.058  -0.473  -0.898  0.00  0.00    -0.720 N 
ATOM      3  H   LIG    1        1.934  -0.694  -0.544  0.00  0.00    +0.400 HD
ATOM      4  O   LIG    1       -0.281  -0.322  -2.660  0.00  0.00    -0.500 OA
ENDROOT
BRANCH   1   5
ATOM      5  C   LIG    1        1.900  -1.081  -3.143  0.00  0.00    +0.230 C 
BRANCH   5   6
ATOM      6  O   LIG    1        1.400  -1.128  -4.481  0.00  0.00    -0.260 OA
BRANCH   6  14
ATOM      7  C   LIG    1        4.508  -2.934  -9.901  0.00  0.00    +0.130 C 
ATOM      8  C   LIG    1        4.931  -2.846  -8.457  0.00  0.00    +0.040 A 
ATOM      9  C   LIG    1        6.191  -3.184  -8.077  0.00  0.00    -0.090 A 
ATOM     10  C   LIG    1        6.562  -3.092  -6.720  0.00  0.00    +0.510 A 
ATOM     11  O   LIG    1        5.700  -2.677  -5.780  0.00  0.00    -0.270 OA
ATOM     12  C   LIG    1        4.433  -2.326  -6.090  0.00  0.00    +0.200 A 
ATOM     13  C   LIG    1        3.554  -1.900  -5.106  0.00  0.00    -0.060 A 
ATOM     14  C   LIG    1        2.259  -1.545  -5.446  0.00  0.00    +0.200 A 
ATOM     15  C   LIG    1        1.829  -1.619  -6.770  0.00  0.00    -0.090 A 
ATOM     16  C   LIG    1        2.683  -2.032  -7.753  0.00  0.00    +0.150 A 
ATOM     17 CL   LIG    1        0.200  -1.177  -7.174  0.00  0.00    -0.030 Cl
ATOM     18  O   LIG    1        7.695  -3.398  -6.393  0.00  0.00    -0.460 OA
ATOM     19  C   LIG    1        3.995  -2.393  -7.426  0.00  0.00    -0.180 A 
ENDBRANCH   6  14
ENDBRANCH   5   6
ENDBRANCH   1   5
BRANCH   2  20
ATOM     20  C   LIG    1        0.002  -0.004   0.002  0.00  0.00    +0.390 C 
BRANCH  20  21
ATOM     21  C   LIG    1        0.268  -0.510   1.396  0.00  0.00    -0.110 A 
ATOM     22  C   LIG    1        1.560  -0.535   1.887  0.00  0.00    +0.050 A 
ATOM     23  C   LIG    1        1.805  -0.994   3.167  0.00  0.00    -0.010 A 
ATOM     24  C   LIG    1        0.757  -1.440   3.955  0.00  0.00    +0.110 A 
ATOM     25  C   LIG    1       -0.536  -1.420   3.460  0.00  0.00    -0.010 A 
ATOM     26  F   LIG    1        0.996  -1.893   5.205  0.00  0.00    -0.140 F 
ATOM     27  C   LIG    1       -0.779  -0.955   2.181  0.00  0.00    +0.070 A 
ENDBRANCH  20  21
BRANCH  20  28
ATOM     28  C   LIG    1       -0.018   1.503   0.010  0.00  0.00    -0.190 A 
ATOM     29  C   LIG    1       -1.119   2.257   0.019  0.00  0.00    +0.020 A 
ATOM     30  C   LIG    1       -0.890   3.622   0.029  0.00  0.00    +0.010 A 
ATOM     31  C   LIG    1        0.396   3.977   0.018  0.00  0.00    -0.040 A 
ATOM     32  S   LIG    1        1.405   2.536   0.002  0.00  0.00    +0.100 S 
ENDBRANCH  20  28
ENDBRANCH   2  20
TORSDOF 6
