REMARK  Name = ZINCvU00000004qv.0
REMARK                            x       y       z     vdW  Elec       q    Type
REMARK                         _______ _______ _______ _____ _____    ______ ____
ROOT
ATOM      1  N   LIG    1       -2.220   9.997   4.298  0.00  0.00    -0.750 N 
ATOM      2  H   LIG    1       -1.457  10.421   3.874  0.00  0.00    +0.400 HD
ATOM      3  C   LIG    1       -2.398   8.666   4.190  0.00  0.00    +0.720 C 
ATOM      4  N   LIG    1       -1.456   7.906   3.597  0.00  0.00    -0.630 N 
ATOM      5  C   LIG    1       -0.284   8.526   2.963  0.00  0.00    +0.250 C 
ATOM      6  C   LIG    1       -0.180   8.022   1.520  0.00  0.00    +0.040 C 
ATOM      7  C   LIG    1       -0.160   6.492   1.518  0.00  0.00    -0.030 C 
ATOM      8  C   LIG    1       -1.462   5.962   2.122  0.00  0.00    +0.010 C 
ATOM      9  C   LIG    1       -1.581   6.442   3.572  0.00  0.00    +0.290 C 
ATOM     10  O   LIG    1       -3.409   8.150   4.627  0.00  0.00    -0.580 OA
ENDROOT
BRANCH   1  11
ATOM     11  C   LIG    1       -3.179  10.805   5.056  0.00  0.00    +0.320 C 
BRANCH  11  16
ATOM     12  C   LIG    1       -3.062  16.250   3.122  0.00  0.00    +0.090 C 
ATOM     13  C   LIG    1       -3.092  14.830   3.627  0.00  0.00    -0.080 A 
ATOM     14  C   LIG    1       -4.298  14.239   3.957  0.00  0.00    +0.010 A 
ATOM     15  C   LIG    1       -4.326  12.937   4.419  0.00  0.00    +0.030 A 
ATOM     16  C   LIG    1       -3.149  12.225   4.551  0.00  0.00    -0.100 A 
ATOM     17  C   LIG    1       -1.942  12.817   4.227  0.00  0.00    +0.010 A 
ATOM     18  C   LIG    1       -1.915  14.118   3.760  0.00  0.00    +0.010 A 
ENDBRANCH  11  16
BRANCH  11  19
ATOM     19  C   LIG    1       -2.806  10.783   6.539  0.00  0.00    +0.050 C 
BRANCH  19  20
ATOM     20  C   LIG    1       -2.958   9.360   7.082  0.00  0.00    +0.460 C 
ATOM     21  F   LIG    1       -4.284   8.941   6.928  0.00  0.00    -0.170 F 
ATOM     22  F   LIG    1       -2.616   9.339   8.438  0.00  0.00    -0.190 F 
ATOM     23  F   LIG    1       -2.112   8.499   6.374  0.00  0.00    -0.170 F 
ENDBRANCH  19  20
ENDBRANCH  11  19
ENDBRANCH   1  11
BRANCH   7  24
ATOM     24  C   LIG    1       -0.021   5.985   0.082  0.00  0.00    +0.260 C 
BRANCH  24  25
ATOM     25  C   LIG    1        0.000   4.478   0.080  0.00  0.00    -0.110 A 
ATOM     26  C   LIG    1        1.207   3.804   0.085  0.00  0.00    +0.030 A 
ATOM     27  C   LIG    1        1.227   2.422   0.084  0.00  0.00    +0.030 A 
ATOM     28  C   LIG    1        0.039   1.713   0.078  0.00  0.00    -0.030 A 
ATOM     29  C   LIG    1       -1.169   2.388   0.067  0.00  0.00    +0.030 A 
ATOM     30 CL   LIG    1        0.063  -0.023   0.077  0.00  0.00    -0.070 Cl
ATOM     31  C   LIG    1       -1.187   3.770   0.075  0.00  0.00    +0.030 A 
ENDBRANCH  24  25
BRANCH  24  32
ATOM     32  O   LIG    1       -1.128   6.446  -0.695  0.00  0.00    -0.550 OA
ATOM     33  H   LIG    1       -1.988   6.149  -0.370  0.00  0.00    +0.370 HD
ENDBRANCH  24  32
ENDBRANCH   7  24
TORSDOF 7
