REMARK  Name = ZINCrD00000bGMOe.0
REMARK                            x       y       z     vdW  Elec       q    Type
REMARK                         _______ _______ _______ _____ _____    ______ ____
ROOT
ATOM      1  C   LIG    1       -0.013   1.086   0.008  0.00  0.00    +0.290 C 
ATOM      2  C   LIG    1       -0.753   1.593  -1.232  0.00  0.00    +0.040 C 
ENDROOT
BRANCH   1   3
ATOM      3  C   LIG    1       -0.718   1.572   1.248  0.00  0.00    -0.080 A 
ATOM      4  C   LIG    1       -0.513   2.864   1.695  0.00  0.00    +0.030 A 
ATOM      5  C   LIG    1       -1.162   3.318   2.829  0.00  0.00    +0.020 A 
ATOM      6  C   LIG    1       -2.019   2.476   3.517  0.00  0.00    +0.100 A 
ATOM      7  N   LIG    1       -2.688   2.921   4.666  0.00  0.00    -0.660 N 
ATOM      8  H   LIG    1       -2.442   3.761   5.083  0.00  0.00    +0.420 HD
ATOM      9  C   LIG    1       -3.678   2.165   5.186  0.00  0.00    +0.500 C 
ATOM     10  C   LIG    1       -4.136   0.928   4.456  0.00  0.00    +0.230 C 
ATOM     11  O   LIG    1       -3.029   0.334   3.775  0.00  0.00    -0.290 OA
ATOM     12  O   LIG    1       -4.197   2.480   6.236  0.00  0.00    -0.500 OA
ATOM     13  C   LIG    1       -2.216   1.169   3.073  0.00  0.00    +0.090 A 
ATOM     14  C   LIG    1       -1.573   0.725   1.931  0.00  0.00    +0.050 A 
BRANCH  10  15
ATOM     15  C   LIG    1       -5.216   1.307   3.440  0.00  0.00    +0.010 C 
ATOM     16  C   LIG    1       -5.773   0.039   2.791  0.00  0.00    +0.030 C 
ENDBRANCH  10  15
ENDBRANCH   1   3
BRANCH   1  18
ATOM     17  C   LIG    1        2.318   0.933  -0.685  0.00  0.00    +0.520 C 
ATOM     18  N   LIG    1        1.362   1.593  -0.002  0.00  0.00    -0.730 N 
ATOM     19  H   LIG    1        1.583   2.404   0.482  0.00  0.00    +0.400 HD
ATOM     20  O   LIG    1        2.042  -0.081  -1.290  0.00  0.00    -0.530 OA
BRANCH  17  21
ATOM     21  C   LIG    1        3.732   1.454  -0.695  0.00  0.00    +0.040 C 
BRANCH  21  22
ATOM     22  C   LIG    1        4.612   0.527  -1.536  0.00  0.00    +0.130 C 
BRANCH  22  23
ATOM     23  C   LIG    1        6.047   1.056  -1.547  0.00  0.00    +0.040 C 
ATOM     24  N   LIG    1        6.481   1.929  -0.453  0.00  0.00    -0.120 NA
ATOM     25  N   LIG    1        6.260   2.506  -1.528  0.00  0.00    -0.120 NA
BRANCH  23  26
ATOM     26  C   LIG    1        7.088   0.172  -2.236  0.00  0.00    +0.120 C 
BRANCH  26  27
ATOM     27  C   LIG    1        8.460   0.845  -2.158  0.00  0.00    +0.160 C 
BRANCH  27  29
ATOM     28  C   LIG    1       10.261  -0.684  -3.350  0.00  0.00    +0.030 C 
ATOM     29  C   LIG    1        9.462  -0.006  -2.821  0.00  0.00    -0.190 C 
ENDBRANCH  27  29
ENDBRANCH  26  27
ENDBRANCH  23  26
ENDBRANCH  22  23
ENDBRANCH  21  22
ENDBRANCH  17  21
ENDBRANCH   1  18
TORSDOF 9
