REMARK  Name = ZINCtV000002INpf.0
REMARK                            x       y       z     vdW  Elec       q    Type
REMARK                         _______ _______ _______ _____ _____    ______ ____
ROOT
ATOM      1  C   LIG    1       -2.184  -4.691  -0.002  0.00  0.00    -0.120 A 
ATOM      2  C   LIG    1       -2.103  -4.000   1.208  0.00  0.00    +0.090 A 
ATOM      3  C   LIG    1       -1.966  -2.627   1.207  0.00  0.00    +0.030 A 
ATOM      4  C   LIG    1       -1.909  -1.936   0.010  0.00  0.00    -0.040 A 
ATOM      5  C   LIG    1       -1.995  -2.614  -1.193  0.00  0.00    +0.030 A 
ATOM      6  C   LIG    1       -2.126  -3.987  -1.206  0.00  0.00    +0.080 A 
ENDROOT
BRANCH   1   7
ATOM      7  C   LIG    1       -2.332  -6.161  -0.009  0.00  0.00    +0.510 C 
ATOM      8  O   LIG    1       -2.383  -6.771   1.040  0.00  0.00    -0.500 OA
BRANCH   7   9
ATOM      9  O   LIG    1       -2.410  -6.825  -1.178  0.00  0.00    -0.340 OA
BRANCH   9  10
ATOM     10  C   LIG    1       -2.554  -8.268  -1.109  0.00  0.00    +0.240 C 
BRANCH  10  11
ATOM     11  C   LIG    1       -2.625  -8.843  -2.525  0.00  0.00    +0.220 C 
BRANCH  11  12
ATOM     12  O   LIG    1       -1.382  -8.619  -3.193  0.00  0.00    -0.320 OA
BRANCH  12  20
ATOM     13  C   LIG    1       -0.418 -11.248  -3.568  0.00  0.00    +0.090 C 
ATOM     14  C   LIG    1       -0.811 -10.354  -4.717  0.00  0.00    -0.100 A 
ATOM     15  C   LIG    1       -0.711 -10.814  -6.016  0.00  0.00    +0.010 A 
ATOM     16  C   LIG    1       -1.065  -9.992  -7.070  0.00  0.00    +0.020 A 
ATOM     17  C   LIG    1       -1.526  -8.711  -6.827  0.00  0.00    +0.010 A 
ATOM     18  C   LIG    1       -1.633  -8.249  -5.530  0.00  0.00    -0.100 A 
ATOM     19  C   LIG    1       -2.134  -6.853  -5.266  0.00  0.00    +0.100 C 
ATOM     20  C   LIG    1       -1.278  -9.071  -4.470  0.00  0.00    +0.090 A 
ENDBRANCH  12  20
ENDBRANCH  11  12
ENDBRANCH  10  11
ENDBRANCH   9  10
ENDBRANCH   7   9
ENDBRANCH   1   7
BRANCH   4  21
ATOM     21  C   LIG    1       -1.760  -0.436   0.017  0.00  0.00    +0.120 C 
BRANCH  21  22
ATOM     22  S   LIG    1        0.002  -0.004   0.002  0.00  0.00    -0.080 S 
BRANCH  22  23
ATOM     23  C   LIG    1       -0.022   1.758   0.012  0.00  0.00    -0.090 A 
ATOM     24  C   LIG    1       -1.234   2.438   0.021  0.00  0.00    +0.010 A 
ATOM     25  C   LIG    1       -1.249   3.818   0.034  0.00  0.00    +0.050 A 
ATOM     26  C   LIG    1       -0.059   4.525   0.027  0.00  0.00    -0.040 A 
ATOM     27  C   LIG    1        1.149   3.851   0.012  0.00  0.00    +0.050 A 
ATOM     28 CL   LIG    1       -0.083   6.261   0.037  0.00  0.00    -0.060 Cl
ATOM     29  C   LIG    1        1.171   2.470   0.004  0.00  0.00    +0.050 A 
ENDBRANCH  22  23
ENDBRANCH  21  22
ENDBRANCH   4  21
TORSDOF 9
