REMARK  Name = ZINCtV00001bB3hk.0
REMARK                            x       y       z     vdW  Elec       q    Type
REMARK                         _______ _______ _______ _____ _____    ______ ____
ROOT
ATOM      1  N   LIG    1       -1.954  -4.375  -0.105  0.00  0.00    -0.480 N 
ATOM      2  C   LIG    1       -2.292  -3.291   0.620  0.00  0.00    +0.560 C 
ATOM      3  O   LIG    1       -3.466  -3.029   0.813  0.00  0.00    -0.470 OA
ENDROOT
BRANCH   1   8
ATOM      4  C   LIG    1       -6.493  -5.461  -1.472  0.00  0.00    +0.160 C 
ATOM      5  C   LIG    1       -5.006  -5.680  -1.365  0.00  0.00    +0.100 A 
ATOM      6  C   LIG    1       -4.393  -6.739  -1.898  0.00  0.00    -0.100 A 
ATOM      7  S   LIG    1       -2.670  -6.605  -1.553  0.00  0.00    +0.130 S 
ATOM      8  C   LIG    1       -2.942  -5.139  -0.716  0.00  0.00    +0.270 A 
ATOM      9  N   LIG    1       -4.204  -4.840  -0.739  0.00  0.00    -0.470 NA
ENDBRANCH   1   8
BRANCH   1  10
ATOM     10  C   LIG    1       -0.609  -4.733  -0.244  0.00  0.00    +0.100 A 
ATOM     11  C   LIG    1       -0.081  -5.767   0.518  0.00  0.00    +0.030 A 
ATOM     12  C   LIG    1        1.246  -6.121   0.375  0.00  0.00    +0.020 A 
ATOM     13  C   LIG    1        2.053  -5.439  -0.518  0.00  0.00    +0.030 A 
ATOM     14  C   LIG    1        1.532  -4.405  -1.274  0.00  0.00    +0.020 A 
ATOM     15  C   LIG    1        0.204  -4.050  -1.140  0.00  0.00    +0.030 A 
ENDBRANCH   1  10
BRANCH   2  16
ATOM     16  C   LIG    1       -1.285  -2.459   1.158  0.00  0.00    -0.080 C 
ATOM     17  C   LIG    1       -1.622  -1.419   1.965  0.00  0.00    +0.200 C 
BRANCH  17  18
ATOM     18  C   LIG    1       -0.615  -0.587   2.503  0.00  0.00    -0.010 A 
ATOM     19  C   LIG    1       -0.819   0.499   3.334  0.00  0.00    +0.010 A 
ATOM     20  C   LIG    1        0.440   1.030   3.622  0.00  0.00    -0.030 A 
ATOM     21  C   LIG    1        1.365   0.253   2.961  0.00  0.00    +0.050 A 
ATOM     22  O   LIG    1        0.712  -0.714   2.293  0.00  0.00    -0.150 OA
BRANCH  21  23
ATOM     23  C   LIG    1        2.827   0.450   2.981  0.00  0.00    -0.060 A 
ATOM     24  C   LIG    1        3.370   1.708   2.714  0.00  0.00    +0.080 A 
ATOM     25  C   LIG    1        4.738   1.886   2.740  0.00  0.00    +0.010 A 
ATOM     26  C   LIG    1        5.574   0.819   3.020  0.00  0.00    +0.060 A 
ATOM     27  C   LIG    1        5.045  -0.433   3.280  0.00  0.00    -0.010 A 
ATOM     28  C   LIG    1        3.677  -0.626   3.263  0.00  0.00    +0.120 A 
ATOM     29  F   LIG    1        3.162  -1.849   3.518  0.00  0.00    -0.130 F 
ENDBRANCH  21  23
ENDBRANCH  17  18
ENDBRANCH   2  16
TORSDOF 5
