REMARK  Name = ZINCpe00000FU8UP.0
REMARK                            x       y       z     vdW  Elec       q    Type
REMARK                         _______ _______ _______ _____ _____    ______ ____
ROOT
ATOM      1  C   LIG    1       -0.013   1.086   0.008  0.00  0.00    +0.110 C 
ATOM      2  C   LIG    1       -0.729   1.579   1.267  0.00  0.00    +0.110 C 
ATOM      3  C   LIG    1       -0.767   3.112   1.252  0.00  0.00    +0.320 C 
ATOM      4  N   LIG    1       -1.064   3.561   2.615  0.00  0.00    -0.420 N 
ATOM      5  C   LIG    1       -0.698   2.807   3.707  0.00  0.00    +0.310 A 
ATOM      6  N   LIG    1       -0.035   1.621   3.549  0.00  0.00    -0.050 NA
ATOM      7  N   LIG    1       -1.085   3.418   4.802  0.00  0.00    -0.410 NA
ATOM      8  C   LIG    1       -1.688   4.550   4.486  0.00  0.00    +0.310 A 
ATOM      9  N   LIG    1       -2.268   5.545   5.263  0.00  0.00    -0.510 N 
ATOM     10  C   LIG    1       -2.288   5.454   6.726  0.00  0.00    +0.360 C 
ATOM     11  C   LIG    1       -2.813   6.600   4.617  0.00  0.00    +0.710 A 
ATOM     12  O   LIG    1       -3.325   7.481   5.281  0.00  0.00    -0.530 OA
ATOM     13  N   LIG    1       -2.818   6.725   3.282  0.00  0.00    -0.540 N 
ATOM     14  C   LIG    1       -2.272   5.796   2.460  0.00  0.00    +0.600 A 
ATOM     15  O   LIG    1       -2.285   5.925   1.249  0.00  0.00    -0.490 OA
ATOM     16  C   LIG    1       -1.685   4.665   3.084  0.00  0.00    -0.100 A 
ATOM     17  N   LIG    1       -0.031   1.071   2.441  0.00  0.00    -0.130 NA
ENDROOT
BRANCH  13  18
ATOM     18  C   LIG    1       -3.437   7.913   2.688  0.00  0.00    +0.380 C 
BRANCH  18  19
ATOM     19  C   LIG    1       -4.896   7.641   2.426  0.00  0.00    -0.130 A 
ATOM     20  C   LIG    1       -5.292   7.117   1.209  0.00  0.00    +0.080 A 
ATOM     21  C   LIG    1       -6.629   6.862   0.969  0.00  0.00    -0.020 A 
ATOM     22  C   LIG    1       -7.572   7.142   1.943  0.00  0.00    +0.110 A 
ATOM     23  C   LIG    1       -7.175   7.672   3.159  0.00  0.00    -0.020 A 
ATOM     24  F   LIG    1       -8.880   6.899   1.707  0.00  0.00    -0.140 F 
ATOM     25  C   LIG    1       -5.837   7.920   3.399  0.00  0.00    +0.080 A 
ENDBRANCH  18  19
ENDBRANCH  13  18
TORSDOF 2
