REMARK  Name = ZINCpk00000y6yeJ.0
REMARK                            x       y       z     vdW  Elec       q    Type
REMARK                         _______ _______ _______ _____ _____    ______ ____
ROOT
ATOM      1  N   LIG    1        1.415   3.510  -0.068  0.00  0.00    -1.100 NA
ATOM      2  H   LIG    1        1.347   3.956  -0.926  0.00  0.00    +0.420 HD
ENDROOT
BRANCH   1   3
ATOM      3  C   LIG    1        1.422   2.047  -0.001  0.00  0.00    +0.220 C 
ATOM      4  C   LIG    1       -0.019   1.528   0.010  0.00  0.00    +0.020 C 
ATOM      5  C   LIG    1        0.002  -0.004   0.002  0.00  0.00    +0.000 C 
ATOM      6  C   LIG    1        0.785  -0.489  -1.221  0.00  0.00    +0.210 C 
ATOM      7  O   LIG    1        2.106   0.054  -1.185  0.00  0.00    -0.370 OA
ATOM      8  C   LIG    1        2.151   1.482  -1.223  0.00  0.00    +0.240 C 
BRANCH   8   9
ATOM      9  C   LIG    1        3.586   1.941  -1.209  0.00  0.00    -0.230 A 
ATOM     10  C   LIG    1        4.083   3.020  -1.858  0.00  0.00    +0.240 A 
ATOM     11  N   LIG    1        5.405   3.086  -1.592  0.00  0.00    -0.370 N 
ATOM     12  N   LIG    1        5.730   2.013  -0.753  0.00  0.00    -0.290 NA
ATOM     13  C   LIG    1        6.335   4.101  -2.094  0.00  0.00    +0.360 C 
ATOM     14  C   LIG    1        4.638   1.331  -0.520  0.00  0.00    +0.250 A 
ENDBRANCH   8   9
ENDBRANCH   1   3
BRANCH   1  15
ATOM     15  S   LIG    1        1.523   4.403   1.323  0.00  0.00    +2.710 S 
ATOM     16  O   LIG    1        0.570   3.858   2.225  0.00  0.00    -0.950 OA
ATOM     17  O   LIG    1        1.524   5.767   0.924  0.00  0.00    -0.960 OA
BRANCH  15  21
ATOM     18  C   LIG    1        5.588   3.665   3.063  0.00  0.00    +0.380 A 
ATOM     19  C   LIG    1        4.545   2.835   3.452  0.00  0.00    -0.060 A 
ATOM     20  C   LIG    1        3.281   3.051   2.930  0.00  0.00    +0.220 A 
ATOM     21  C   LIG    1        3.109   4.088   2.023  0.00  0.00    -0.770 A 
ATOM     22  C   LIG    1        4.192   4.873   1.681  0.00  0.00    +0.420 A 
ATOM     23  N   LIG    1        5.383   4.646   2.200  0.00  0.00    -0.550 NA
BRANCH  18  24
ATOM     24  O   LIG    1        6.830   3.467   3.573  0.00  0.00    -0.300 OA
BRANCH  24  26
ATOM     25  C   LIG    1        9.180   3.978   3.810  0.00  0.00    +0.070 C 
ATOM     26  C   LIG    1        7.861   4.354   3.133  0.00  0.00    +0.200 C 
ENDBRANCH  24  26
ENDBRANCH  18  24
ENDBRANCH  15  21
ENDBRANCH   1  15
TORSDOF 6
