REMARK  Name = ZINCvU00000004Ws.0
REMARK                            x       y       z     vdW  Elec       q    Type
REMARK                         _______ _______ _______ _____ _____    ______ ____
ROOT
ATOM      1  C   LIG    1       -3.713   1.491   3.220  0.00  0.00    +0.270 C 
ENDROOT
BRANCH   1   4
ATOM      2  C   LIG    1       -6.883   2.127   1.538  0.00  0.00    +0.270 A 
ATOM      3  N   LIG    1       -5.614   2.206   1.792  0.00  0.00    -0.470 NA
ATOM      4  C   LIG    1       -5.163   1.497   2.810  0.00  0.00    +0.100 A 
ATOM      5  C   LIG    1       -6.095   0.781   3.443  0.00  0.00    -0.070 A 
ATOM      6  S   LIG    1       -7.641   1.075   2.651  0.00  0.00    +0.130 S 
BRANCH   2   9
ATOM      7  C   LIG    1       -7.531   4.359  -1.413  0.00  0.00    +0.120 C 
ATOM      8  C   LIG    1       -6.821   3.527  -0.376  0.00  0.00    +0.510 C 
ATOM      9  N   LIG    1       -7.533   2.802   0.509  0.00  0.00    -0.480 N 
ATOM     10  O   LIG    1       -5.609   3.509  -0.340  0.00  0.00    -0.470 OA
BRANCH   9  11
ATOM     11  C   LIG    1       -8.927   2.728   0.394  0.00  0.00    +0.110 A 
ATOM     12  C   LIG    1       -9.530   1.542  -0.002  0.00  0.00    +0.020 A 
ATOM     13  C   LIG    1      -10.905   1.471  -0.109  0.00  0.00    +0.030 A 
ATOM     14  C   LIG    1      -11.680   2.582   0.167  0.00  0.00    +0.030 A 
ATOM     15  C   LIG    1      -11.082   3.767   0.557  0.00  0.00    +0.020 A 
ATOM     16  C   LIG    1       -9.708   3.843   0.671  0.00  0.00    +0.020 A 
ENDBRANCH   9  11
ENDBRANCH   2   9
ENDBRANCH   1   4
BRANCH   1  17
ATOM     17  N   LIG    1       -2.981   0.502   2.417  0.00  0.00    -0.510 NA
ATOM     18  C   LIG    1       -2.943   0.897   1.003  0.00  0.00    +0.180 C 
BRANCH  17  19
ATOM     19  C   LIG    1       -1.625   0.297   2.944  0.00  0.00    +0.240 C 
BRANCH  19  20
ATOM     20  C   LIG    1       -1.007  -0.909   2.284  0.00  0.00    -0.060 A 
ATOM     21  C   LIG    1       -0.010  -0.747   1.343  0.00  0.00    +0.010 A 
ATOM     22  C   LIG    1        0.557  -1.853   0.736  0.00  0.00    +0.000 A 
ATOM     23  C   LIG    1        0.128  -3.124   1.070  0.00  0.00    +0.010 A 
ATOM     24  C   LIG    1       -0.866  -3.294   2.015  0.00  0.00    -0.030 A 
ATOM     25  C   LIG    1       -1.441  -2.185   2.622  0.00  0.00    +0.110 A 
BRANCH  25  26
ATOM     26  N   LIG    1       -2.449  -2.352   3.574  0.00  0.00    -0.490 N 
ATOM     27  C   LIG    1       -1.966  -3.134   4.720  0.00  0.00    +0.160 C 
ATOM     28  C   LIG    1       -3.046  -3.173   5.803  0.00  0.00    +0.030 C 
ATOM     29  C   LIG    1       -4.316  -3.807   5.228  0.00  0.00    +0.000 C 
ATOM     30  C   LIG    1       -4.771  -3.002   4.007  0.00  0.00    +0.020 C 
ATOM     31  C   LIG    1       -3.641  -2.967   2.976  0.00  0.00    +0.180 C 
ENDBRANCH  25  26
ENDBRANCH  19  20
ENDBRANCH  17  19
ENDBRANCH   1  17
TORSDOF 7
