REMARK  Name = ZINCqH0000031IaY.0
REMARK                            x       y       z     vdW  Elec       q    Type
REMARK                         _______ _______ _______ _____ _____    ______ ____
ROOT
ATOM      1  N   LIG    1        6.059   3.153  -0.019  0.00  0.00    -0.650 N 
ATOM      2  H   LIG    1        5.987   2.188   0.053  0.00  0.00    +0.420 HD
ATOM      3  C   LIG    1        4.947   3.914  -0.001  0.00  0.00    +0.580 C 
ATOM      4  O   LIG    1        5.040   5.127  -0.011  0.00  0.00    -0.510 OA
ENDROOT
BRANCH   1  13
ATOM      5  C   LIG    1        8.328   3.112  -0.874  0.00  0.00    -0.200 A 
ATOM      6  C   LIG    1        9.585   3.723  -0.992  0.00  0.00    +0.120 A 
ATOM      7  C   LIG    1        9.817   4.941  -0.392  0.00  0.00    +0.000 A 
ATOM      8  C   LIG    1        8.802   5.572   0.335  0.00  0.00    +0.100 A 
ATOM      9  O   LIG    1        9.285   6.751   0.821  0.00  0.00    -0.300 OA
ATOM     10  C   LIG    1       10.718   6.646   0.735  0.00  0.00    +0.440 C 
ATOM     11  C   LIG    1        7.555   4.978   0.452  0.00  0.00    +0.030 A 
ATOM     12  O   LIG    1       10.931   5.731  -0.356  0.00  0.00    -0.300 OA
ATOM     13  C   LIG    1        7.310   3.750  -0.142  0.00  0.00    +0.230 A 
BRANCH   5  15
ATOM     14  C   LIG    1        9.203   1.079  -2.186  0.00  0.00    +0.090 C 
ATOM     15  C   LIG    1        8.077   1.817  -1.510  0.00  0.00    +0.410 C 
ATOM     16  O   LIG    1        6.962   1.339  -1.491  0.00  0.00    -0.470 OA
ENDBRANCH   5  15
ENDBRANCH   1  13
BRANCH   3  17
ATOM     17  C   LIG    1        3.616   3.277   0.031  0.00  0.00    -0.220 A 
ATOM     18  C   LIG    1        3.497   1.887   0.041  0.00  0.00    +0.360 A 
ATOM     19  N   LIG    1        2.311   1.315   0.074  0.00  0.00    -0.530 NA
ATOM     20  C   LIG    1        1.194   2.026   0.088  0.00  0.00    +0.370 A 
ATOM     21  C   LIG    1        1.230   3.418   0.079  0.00  0.00    -0.120 A 
ATOM     22 CL   LIG    1       -0.243   4.335   0.103  0.00  0.00    -0.030 Cl
ATOM     23  C   LIG    1        2.452   4.060   0.050  0.00  0.00    +0.200 A 
BRANCH  20  24
ATOM     24  O   LIG    1       -0.002   1.389   0.116  0.00  0.00    -0.280 OA
BRANCH  24  25
ATOM     25  C   LIG    1        0.024  -0.040   0.124  0.00  0.00    +0.170 C 
ATOM     26  C   LIG    1        0.003  -0.558  -1.315  0.00  0.00    +0.030 C 
ATOM     27  C   LIG    1       -1.201  -0.567   0.875  0.00  0.00    +0.070 C 
ENDBRANCH  24  25
ENDBRANCH  20  24
ENDBRANCH   3  17
TORSDOF 5
