REMARK  Name = ZINCbw0000001MV3.0
REMARK                            x       y       z     vdW  Elec       q    Type
REMARK                         _______ _______ _______ _____ _____    ______ ____
ROOT
ATOM      1  C   LIG    1        0.022   5.660   0.031  0.00  0.00    +0.140 C 
ATOM      2  C   LIG    1       -0.023   4.154   0.024  0.00  0.00    -0.060 A 
ATOM      3  C   LIG    1       -1.240   3.491   0.032  0.00  0.00    +0.110 A 
ATOM      4  C   LIG    1       -1.238   2.103   0.019  0.00  0.00    -0.030 A 
ATOM      5  C   LIG    1       -0.017   1.428   0.010  0.00  0.00    +0.210 A 
ATOM      6  N   LIG    1        1.127   2.103   0.003  0.00  0.00    -0.410 NA
ATOM      7 CL   LIG    1       -2.733   1.221   0.022  0.00  0.00    -0.020 Cl
ATOM      8  C   LIG    1        1.152   3.418   0.009  0.00  0.00    +0.120 A 
ATOM      9 BR   LIG    1        2.815   4.319  -0.001  0.00  0.00    +0.030 Br
ENDROOT
BRANCH   5  10
ATOM     10  C   LIG    1        0.002  -0.004   0.002  0.00  0.00    +0.260 C 
ATOM     11  N   LIG    1        0.018  -1.140  -0.004  0.00  0.00    -0.350 NA
ENDBRANCH   5  10
TORSDOF 1
