REMARK  Name = ZINCc70000002wUL.0
REMARK                            x       y       z     vdW  Elec       q    Type
REMARK                         _______ _______ _______ _____ _____    ______ ____
ROOT
ATOM      1  C   LIG    1       -0.001  -0.014   0.001  0.00  0.00    +0.190 C 
ENDROOT
BRANCH   1   3
ATOM      2  C   LIG    1        1.490  -0.659   1.796  0.00  0.00    +0.200 C 
ATOM      3  N   LIG    1        1.350  -0.477   0.345  0.00  0.00    -0.670 NA
ATOM      4  H   LIG    1        1.578  -1.327  -0.149  0.00  0.00    +0.360 HD
ENDBRANCH   1   3
BRANCH   1   5
ATOM      5  C   LIG    1       -0.063   1.487   0.118  0.00  0.00    +0.460 C 
ATOM      6  O   LIG    1        0.940   2.146  -0.023  0.00  0.00    -0.480 OA
BRANCH   5   7
ATOM      7  O   LIG    1       -1.233   2.093   0.374  0.00  0.00    -0.360 OA
ATOM      8  C   LIG    1       -1.218   3.541   0.474  0.00  0.00    +0.260 C 
ENDBRANCH   5   7
ENDBRANCH   1   5
BRANCH   1   9
ATOM      9  C   LIG    1       -0.332  -0.428  -1.435  0.00  0.00    +0.210 C 
BRANCH   9  10
ATOM     10  O   LIG    1       -0.388  -1.853  -1.519  0.00  0.00    -0.380 OA
BRANCH  10  11
ATOM     11  C   LIG    1       -0.692  -2.346  -2.825  0.00  0.00    +0.140 C 
ATOM     12  C   LIG    1       -1.439  -3.676  -2.707  0.00  0.00    +0.040 C 
ATOM     13  C   LIG    1        0.607  -2.559  -3.605  0.00  0.00    +0.020 C 
ENDBRANCH  10  11
ENDBRANCH   9  10
ENDBRANCH   1   9
TORSDOF 6
