REMARK  Name = ZINCpk000000n7UH.0
REMARK                            x       y       z     vdW  Elec       q    Type
REMARK                         _______ _______ _______ _____ _____    ______ ____
ROOT
ATOM      1  C   LIG    1        0.002  -0.004   0.002  0.00  0.00    +0.690 C 
ATOM      2  N   LIG    1       -1.156  -0.694   0.009  0.00  0.00    -0.630 N 
ATOM      3  C   LIG    1       -2.589  -0.356   0.031  0.00  0.00    +0.310 C 
ATOM      4  C   LIG    1       -2.850  -1.696  -0.653  0.00  0.00    +0.150 C 
ATOM      5  C   LIG    1       -4.104  -2.448  -0.188  0.00  0.00    +0.120 C 
ATOM      6  C   LIG    1       -4.396  -3.343  -1.417  0.00  0.00    +0.250 C 
ATOM      7  C   LIG    1       -3.743  -2.614  -2.574  0.00  0.00    +0.270 A 
ATOM      8  N   LIG    1       -3.725  -2.565  -3.884  0.00  0.00    -0.520 NA
ATOM      9  C   LIG    1       -2.864  -1.635  -4.291  0.00  0.00    +0.430 A 
ATOM     10  N   LIG    1       -2.318  -1.075  -3.245  0.00  0.00    -0.280 NA
ATOM     11  N   LIG    1       -2.877  -1.696  -2.112  0.00  0.00    -0.370 N 
ATOM     12  C   LIG    1       -1.541  -2.115   0.005  0.00  0.00    +0.340 C 
ATOM     13  O   LIG    1        1.062  -0.597  -0.011  0.00  0.00    -0.560 OA
ENDROOT
BRANCH   6  14
ATOM     14  N   LIG    1       -3.794  -4.671  -1.240  0.00  0.00    -0.670 NA
ATOM     15  H   LIG    1       -3.821  -4.955  -0.272  0.00  0.00    +0.360 HD
BRANCH  14  16
ATOM     16  C   LIG    1       -4.450  -5.665  -2.100  0.00  0.00    +0.120 C 
ATOM     17  C   LIG    1       -4.278  -7.060  -1.491  0.00  0.00    +0.010 C 
ATOM     18  C   LIG    1       -4.898  -8.096  -2.434  0.00  0.00    +0.000 C 
ATOM     19  C   LIG    1       -4.241  -7.978  -3.812  0.00  0.00    +0.190 C 
ATOM     20  O   LIG    1       -4.411  -6.648  -4.307  0.00  0.00    -0.380 OA
ATOM     21  C   LIG    1       -3.810  -5.641  -3.490  0.00  0.00    +0.230 C 
ENDBRANCH  14  16
ENDBRANCH   6  14
BRANCH   1  22
ATOM     22  O   LIG    1       -0.016   1.342   0.009  0.00  0.00    -0.360 OA
BRANCH  22  24
ATOM     23  C   LIG    1        2.044   1.625  -1.258  0.00  0.00    +0.040 C 
ATOM     24  C   LIG    1        1.268   2.019   0.001  0.00  0.00    +0.140 C 
ATOM     25  C   LIG    1        2.068   1.612   1.240  0.00  0.00    +0.040 C 
ATOM     26  C   LIG    1        1.047   3.533   0.011  0.00  0.00    +0.080 C 
ENDBRANCH  22  24
ENDBRANCH   1  22
TORSDOF 4
