REMARK  Name = ZINC650000002J8S.0
REMARK                            x       y       z     vdW  Elec       q    Type
REMARK                         _______ _______ _______ _____ _____    ______ ____
ROOT
ATOM      1  C   LIG    1        1.145   3.085   0.008  0.00  0.00    +0.240 C 
ENDROOT
BRANCH   1   2
ATOM      2  O   LIG    1        0.522   3.513  -1.205  0.00  0.00    -0.540 OA
ATOM      3  H   LIG    1        1.013   3.277  -2.004  0.00  0.00    +0.370 HD
ENDBRANCH   1   2
BRANCH   1   4
ATOM      4  C   LIG    1        1.286   1.562  -0.002  0.00  0.00    +0.160 C 
BRANCH   4   5
ATOM      5  O   LIG    1       -0.011   0.963   0.007  0.00  0.00    -0.560 OA
ATOM      6  H   LIG    1        0.002  -0.004   0.002  0.00  0.00    +0.380 HD
ENDBRANCH   4   5
ENDBRANCH   1   4
BRANCH   1   7
ATOM      7  C   LIG    1        2.530   3.725   0.124  0.00  0.00    +0.080 C 
BRANCH   7   8
ATOM      8  S   LIG    1        2.353   5.524   0.284  0.00  0.00    -0.210 S 
ATOM      9  H   LIG    1        3.627   5.946   0.375  0.00  0.00    +0.080 HD
ENDBRANCH   7   8
ENDBRANCH   1   7
TORSDOF 5
