REMARK  Name = ZINCpk00000e9jdi.0
REMARK                            x       y       z     vdW  Elec       q    Type
REMARK                         _______ _______ _______ _____ _____    ______ ____
ROOT
ATOM      1  N   LIG    1        3.771   1.286  -0.735  0.00  0.00    -0.600 N 
ATOM      2  C   LIG    1        4.049   2.448  -0.119  0.00  0.00    +0.530 C 
ATOM      3  C   LIG    1        3.974   2.273   1.382  0.00  0.00    +0.090 C 
ATOM      4  C   LIG    1        4.019   0.739   1.588  0.00  0.00    +0.020 C 
ATOM      5  O   LIG    1        4.321   3.486  -0.685  0.00  0.00    -0.520 OA
ATOM      6  C   LIG    1        3.475   0.226   0.237  0.00  0.00    +0.360 C 
ENDROOT
BRANCH   6   7
ATOM      7  C   LIG    1        1.988  -0.001   0.325  0.00  0.00    +0.180 A 
ATOM      8  N   LIG    1        1.077   0.933   0.354  0.00  0.00    -0.460 NA
ATOM      9  C   LIG    1       -0.136   0.365   0.435  0.00  0.00    +0.140 A 
ATOM     10  C   LIG    1        0.030  -0.971   0.457  0.00  0.00    +0.130 A 
ATOM     11  N   LIG    1        1.377  -1.204   0.388  0.00  0.00    -0.450 N 
ATOM     12  C   LIG    1        2.034  -2.513   0.382  0.00  0.00    +0.320 C 
ENDBRANCH   6   7
BRANCH   4  13
ATOM     13  C   LIG    1        5.432   0.266   1.816  0.00  0.00    +0.520 C 
ATOM     14  N   LIG    1        6.084   0.611   2.944  0.00  0.00    -0.720 N 
ATOM     15  H   LIG    1        5.645   1.163   3.609  0.00  0.00    +0.410 HD
ATOM     16  O   LIG    1        5.982  -0.424   0.984  0.00  0.00    -0.530 OA
BRANCH  14  17
ATOM     17  C   LIG    1        7.458   0.151   3.165  0.00  0.00    +0.260 C 
BRANCH  17  18
ATOM     18  C   LIG    1        8.000   0.767   4.456  0.00  0.00    +0.100 C 
ATOM     19  C   LIG    1        9.433   0.262   4.721  0.00  0.00    +0.010 C 
ATOM     20  C   LIG    1        9.499   0.096   6.260  0.00  0.00    +0.020 C 
ATOM     21  C   LIG    1        8.091  -0.448   6.605  0.00  0.00    +0.020 C 
ATOM     22  C   LIG    1        7.146   0.315   5.654  0.00  0.00    +0.040 C 
BRANCH  18  23
ATOM     23  O   LIG    1        7.992   2.192   4.359  0.00  0.00    -0.370 OA
ATOM     24  C   LIG    1        8.732   2.704   3.249  0.00  0.00    +0.200 C 
ENDBRANCH  18  23
ENDBRANCH  17  18
ENDBRANCH  14  17
ENDBRANCH   4  13
BRANCH   1  26
ATOM     25  C   LIG    1        2.364   1.391  -2.732  0.00  0.00    +0.020 C 
ATOM     26  C   LIG    1        3.764   1.101  -2.188  0.00  0.00    +0.300 C 
ENDBRANCH   1  26
TORSDOF 6
