REMARK  Name = ZINCkj000005kAxh.1
REMARK                            x       y       z     vdW  Elec       q    Type
REMARK                         _______ _______ _______ _____ _____    ______ ____
ROOT
ATOM      1  C   LIG    1       -0.955  -1.225  -3.541  0.00  0.00    +0.520 C 
ATOM      2  N   LIG    1       -0.657  -0.508  -2.439  0.00  0.00    -0.730 N 
ATOM      3  H   LIG    1       -0.582  -0.949  -1.579  0.00  0.00    +0.400 HD
ATOM      4  O   LIG    1       -1.049  -0.673  -4.617  0.00  0.00    -0.530 OA
ENDROOT
BRANCH   2   5
ATOM      5  C   LIG    1       -0.448   0.938  -2.541  0.00  0.00    +0.280 C 
ATOM      6  C   LIG    1        1.004   1.216  -2.936  0.00  0.00    +0.040 C 
BRANCH   5   7
ATOM      7  C   LIG    1       -0.739   1.583  -1.211  0.00  0.00    -0.110 C 
ATOM      8  C   LIG    1       -1.608   2.547  -1.162  0.00  0.00    -0.020 C 
ATOM      9  C   LIG    1       -1.979   3.255   0.109  0.00  0.00    +0.310 C 
ATOM     10  N   LIG    1       -0.960   3.027   1.139  0.00  0.00    -0.390 N 
ATOM     11  C   LIG    1       -0.728   1.579   1.268  0.00  0.00    +0.270 C 
ATOM     12  C   LIG    1       -1.428   3.566   2.423  0.00  0.00    +0.330 C 
ATOM     13  H   LIG    1       -0.101   3.486   0.873  0.00  0.00    +0.430 HD
ATOM     14  C   LIG    1       -0.013   1.086   0.008  0.00  0.00    +0.110 C 
ENDBRANCH   5   7
ENDBRANCH   2   5
BRANCH   1  15
ATOM     15  C   LIG    1       -1.171  -2.713  -3.436  0.00  0.00    +0.060 C 
BRANCH  15  16
ATOM     16  C   LIG    1       -1.492  -3.281  -4.819  0.00  0.00    +0.340 C 
BRANCH  16  20
ATOM     17  C   LIG    1       -3.561  -7.834  -5.153  0.00  0.00    +0.110 C 
ATOM     18  C   LIG    1       -2.598  -6.713  -4.860  0.00  0.00    -0.240 A 
ATOM     19  C   LIG    1       -2.795  -5.402  -5.132  0.00  0.00    +0.220 A 
ATOM     20  N   LIG    1       -1.702  -4.727  -4.717  0.00  0.00    -0.380 N 
ATOM     21  N   LIG    1       -0.801  -5.654  -4.178  0.00  0.00    -0.300 NA
ATOM     22  C   LIG    1       -1.341  -6.843  -4.259  0.00  0.00    +0.230 A 
ENDBRANCH  16  20
ENDBRANCH  15  16
ENDBRANCH   1  15
TORSDOF 5
