REMARK  Name = ZINCpe00000MJIxz.0
REMARK                            x       y       z     vdW  Elec       q    Type
REMARK                         _______ _______ _______ _____ _____    ______ ____
ROOT
ATOM      1  C   LIG    1        4.669  -0.744   4.171  0.00  0.00    +0.360 C 
ATOM      2  N   LIG    1        3.671  -0.517   3.123  0.00  0.00    -0.360 N 
ATOM      3  N   LIG    1        2.382  -1.070   3.076  0.00  0.00    -0.290 NA
ATOM      4  C   LIG    1        1.789  -0.639   1.990  0.00  0.00    +0.250 A 
ATOM      5  C   LIG    1        2.677   0.195   1.316  0.00  0.00    -0.250 A 
ATOM      6  C   LIG    1        2.458   0.929   0.015  0.00  0.00    +0.330 C 
ATOM      7  N   LIG    1        3.573   1.881  -0.143  0.00  0.00    -0.990 NA
ATOM      8  C   LIG    1        4.936   1.415   0.152  0.00  0.00    +0.330 C 
ATOM      9  C   LIG    1        5.038   1.065   1.641  0.00  0.00    +0.110 C 
ATOM     10  C   LIG    1        3.827   0.256   2.035  0.00  0.00    +0.110 A 
ENDROOT
BRANCH   6  11
ATOM     11  C   LIG    1        1.149   1.675   0.060  0.00  0.00    +0.530 C 
ATOM     12  N   LIG    1        0.105   1.249  -0.677  0.00  0.00    -0.710 N 
ATOM     13  H   LIG    1        0.195   0.462  -1.237  0.00  0.00    +0.400 HD
ATOM     14  O   LIG    1        1.036   2.659   0.760  0.00  0.00    -0.540 OA
BRANCH  12  15
ATOM     15  C   LIG    1       -1.166   1.977  -0.638  0.00  0.00    +0.270 C 
BRANCH  15  16
ATOM     16  C   LIG    1       -2.175   1.294  -1.563  0.00  0.00    +0.040 C 
BRANCH  16  17
ATOM     17  C   LIG    1       -3.501   2.055  -1.521  0.00  0.00    +0.010 C 
ATOM     18  C   LIG    1       -4.442   1.592  -0.397  0.00  0.00    +0.050 C 
ATOM     19  C   LIG    1       -5.594   1.743  -1.405  0.00  0.00    +0.250 C 
ATOM     20  F   LIG    1       -6.550   0.725  -1.323  0.00  0.00    -0.190 F 
ATOM     21  F   LIG    1       -6.161   3.022  -1.420  0.00  0.00    -0.180 F 
ATOM     22  C   LIG    1       -4.549   1.520  -2.511  0.00  0.00    +0.050 C 
ENDBRANCH  16  17
ENDBRANCH  15  16
ENDBRANCH  12  15
ENDBRANCH   6  11
BRANCH   7  23
ATOM     23  S   LIG    1        3.297   3.436  -0.638  0.00  0.00    +2.610 S 
ATOM     24  O   LIG    1        2.049   3.372  -1.315  0.00  0.00    -0.940 OA
ATOM     25  O   LIG    1        4.486   3.801  -1.326  0.00  0.00    -0.960 OA
ATOM     26  C   LIG    1        3.137   4.381   0.902  0.00  0.00    -0.260 C 
ENDBRANCH   7  23
TORSDOF 5
