REMARK  Name = ZINCqH0000037K5G.0
REMARK                            x       y       z     vdW  Elec       q    Type
REMARK                         _______ _______ _______ _____ _____    ______ ____
ROOT
ATOM      1  N   LIG    1       -2.481   2.347  -1.540  0.00  0.00    -1.060 N 
ATOM      2  H   LIG    1       -2.254   1.650  -2.176  0.00  0.00    +0.430 HD
ENDROOT
BRANCH   1   3
ATOM      3  C   LIG    1       -1.809   3.575  -1.579  0.00  0.00    +0.160 A 
ATOM      4  C   LIG    1       -0.426   3.606  -1.697  0.00  0.00    +0.060 A 
ATOM      5  C   LIG    1        0.236   4.818  -1.740  0.00  0.00    +0.050 A 
ATOM      6  C   LIG    1       -0.480   6.004  -1.660  0.00  0.00    +0.150 A 
ATOM      7  C   LIG    1       -1.864   5.973  -1.536  0.00  0.00    -0.030 A 
ATOM      8 CL   LIG    1       -2.760   7.456  -1.436  0.00  0.00    -0.050 Cl
ATOM      9  C   LIG    1       -2.526   4.761  -1.493  0.00  0.00    +0.020 A 
BRANCH   6  10
ATOM     10  N   LIG    1        0.192   7.232  -1.703  0.00  0.00    -1.050 N 
ATOM     11  H   LIG    1       -0.104   7.967  -1.143  0.00  0.00    +0.430 HD
BRANCH  10  12
ATOM     12  S   LIG    1        1.492   7.430  -2.710  0.00  0.00    +2.610 S 
ATOM     13  O   LIG    1        2.401   6.412  -2.312  0.00  0.00    -0.940 OA
ATOM     14  O   LIG    1        1.829   8.804  -2.581  0.00  0.00    -0.940 OA
ATOM     15  C   LIG    1        0.838   7.087  -4.367  0.00  0.00    -0.270 C 
ENDBRANCH  10  12
ENDBRANCH   6  10
ENDBRANCH   1   3
BRANCH   1  16
ATOM     16  S   LIG    1       -3.662   2.084  -0.410  0.00  0.00    +2.680 S 
ATOM     17  O   LIG    1       -3.138   2.535   0.831  0.00  0.00    -0.930 OA
ATOM     18  O   LIG    1       -4.131   0.759  -0.620  0.00  0.00    -0.940 OA
BRANCH  16  24
ATOM     19  C   LIG    1       -6.994   5.913   0.840  0.00  0.00    +0.090 C 
ATOM     20  C   LIG    1       -6.506   4.912  -0.177  0.00  0.00    -0.110 A 
ATOM     21  C   LIG    1       -7.114   4.834  -1.416  0.00  0.00    +0.080 A 
ATOM     22  C   LIG    1       -6.668   3.916  -2.348  0.00  0.00    -0.110 A 
ATOM     23  C   LIG    1       -5.613   3.076  -2.041  0.00  0.00    +0.010 A 
ATOM     24  C   LIG    1       -5.006   3.155  -0.802  0.00  0.00    -0.680 A 
ATOM     25  C   LIG    1       -5.127   2.075  -3.057  0.00  0.00    +0.100 C 
ATOM     26  C   LIG    1       -7.331   3.830  -3.699  0.00  0.00    +0.090 C 
ATOM     27  C   LIG    1       -5.455   4.069   0.132  0.00  0.00    +0.020 A 
ATOM     28  C   LIG    1       -4.797   4.150   1.485  0.00  0.00    +0.110 C 
ENDBRANCH  16  24
ENDBRANCH   1  16
TORSDOF 5
