REMARK  Name = ZINCrD00000hQ4XD.0
REMARK                            x       y       z     vdW  Elec       q    Type
REMARK                         _______ _______ _______ _____ _____    ______ ____
ROOT
ATOM      1  C   LIG    1        1.111   7.655   0.031  0.00  0.00    +0.560 C 
ATOM      2  N   LIG    1        1.130   6.308   0.024  0.00  0.00    -0.520 N 
ATOM      3  H   LIG    1        1.976   5.834   0.014  0.00  0.00    +0.430 HD
ATOM      4  O   LIG    1        0.051   8.249   0.045  0.00  0.00    -0.510 OA
ENDROOT
BRANCH   1   7
ATOM      5  C   LIG    1        3.553  10.508   0.021  0.00  0.00    -0.660 A 
ATOM      6  C   LIG    1        2.365   9.808   0.024  0.00  0.00    +0.230 A 
ATOM      7  C   LIG    1        2.381   8.412   0.023  0.00  0.00    -0.140 A 
ATOM      8  C   LIG    1        3.601   7.733   0.007  0.00  0.00    +0.120 A 
ATOM      9  C   LIG    1        4.783   8.444  -0.001  0.00  0.00    +0.030 A 
ATOM     10  C   LIG    1        4.761   9.829   0.006  0.00  0.00    +0.070 A 
ATOM     11 CL   LIG    1        6.252  10.717  -0.005  0.00  0.00    -0.030 Cl
BRANCH   5  13
ATOM     12  C   LIG    1        4.289  12.722   1.616  0.00  0.00    -0.240 C 
ATOM     13  S   LIG    1        3.535  12.270   0.029  0.00  0.00    +2.490 S 
ATOM     14  O   LIG    1        2.155  12.606   0.019  0.00  0.00    -0.920 OA
ATOM     15  O   LIG    1        4.386  12.634  -1.049  0.00  0.00    -0.910 OA
ENDBRANCH   5  13
ENDBRANCH   1   7
BRANCH   2  16
ATOM     16  N   LIG    1       -0.074   5.591   0.033  0.00  0.00    -0.520 N 
ATOM     17  H   LIG    1       -0.920   6.064   0.043  0.00  0.00    +0.440 HD
BRANCH  16  18
ATOM     18  C   LIG    1       -0.055   4.199   0.025  0.00  0.00    +0.290 A 
ATOM     19  C   LIG    1        1.160   3.521   0.010  0.00  0.00    -0.060 A 
ATOM     20  C   LIG    1        1.183   2.145   0.002  0.00  0.00    +0.170 A 
ATOM     21  C   LIG    1       -0.017   1.428   0.010  0.00  0.00    -0.080 A 
ATOM     22  C   LIG    1       -1.237   2.112   0.019  0.00  0.00    +0.190 A 
ATOM     23  C   LIG    1       -1.252   3.488   0.033  0.00  0.00    -0.260 A 
BRANCH  23  24
ATOM     24  C   LIG    1       -2.565   4.226   0.049  0.00  0.00    +0.510 C 
ATOM     25  F   LIG    1       -2.660   5.036  -1.088  0.00  0.00    -0.170 F 
ATOM     26  F   LIG    1       -2.638   5.024   1.197  0.00  0.00    -0.170 F 
ATOM     27  F   LIG    1       -3.618   3.305   0.054  0.00  0.00    -0.170 F 
ENDBRANCH  23  24
BRANCH  21  28
ATOM     28  C   LIG    1        0.002  -0.004   0.002  0.00  0.00    +0.250 C 
ATOM     29  N   LIG    1        0.018  -1.140  -0.004  0.00  0.00    -0.410 NA
ENDBRANCH  21  28
ENDBRANCH  16  18
ENDBRANCH   2  16
TORSDOF 6
