REMARK  Name = ZINCrD000000fTu9.1
REMARK                            x       y       z     vdW  Elec       q    Type
REMARK                         _______ _______ _______ _____ _____    ______ ____
ROOT
ATOM      1  C   LIG    1        2.588  -0.050   0.245  0.00  0.00    -0.160 A 
ATOM      2  C   LIG    1        1.452  -0.845   0.420  0.00  0.00    +0.120 A 
ATOM      3  C   LIG    1        0.208  -0.258   0.502  0.00  0.00    -0.010 A 
ATOM      4  C   LIG    1        0.076   1.118   0.412  0.00  0.00    +0.100 A 
ATOM      5  C   LIG    1        1.188   1.918   0.239  0.00  0.00    -0.030 A 
ATOM      6  C   LIG    1        2.450   1.345   0.154  0.00  0.00    +0.230 A 
ENDROOT
BRANCH   1   7
ATOM      7  C   LIG    1        3.921  -0.671   0.155  0.00  0.00    +0.520 C 
ATOM      8  O   LIG    1        4.906   0.024   0.003  0.00  0.00    -0.510 OA
BRANCH   7   9
ATOM      9  O   LIG    1        4.048  -2.010   0.243  0.00  0.00    -0.330 OA
BRANCH   9  10
ATOM     10  C   LIG    1        5.391  -2.552   0.146  0.00  0.00    +0.230 C 
BRANCH  10  11
ATOM     11  C   LIG    1        5.336  -4.053   0.265  0.00  0.00    +0.360 C 
ATOM     12  O   LIG    1        4.275  -4.609   0.414  0.00  0.00    -0.420 OA
BRANCH  11  14
ATOM     13  C   LIG    1        6.274  -6.348   0.341  0.00  0.00    +0.050 C 
ATOM     14  C   LIG    1        6.606  -4.862   0.196  0.00  0.00    -0.110 C 
ATOM     15  C   LIG    1        7.544  -4.436   1.327  0.00  0.00    +0.050 C 
ATOM     16  C   LIG    1        7.291  -4.622  -1.151  0.00  0.00    +0.050 C 
ENDBRANCH  11  14
ENDBRANCH  10  11
ENDBRANCH   9  10
ENDBRANCH   7   9
ENDBRANCH   1   7
BRANCH   6  17
ATOM     17  N   LIG    1        3.570   2.147  -0.020  0.00  0.00    -1.040 N 
ATOM     18  H   LIG    1        4.309   1.836  -0.566  0.00  0.00    +0.440 HD
BRANCH  17  19
ATOM     19  S   LIG    1        3.644   3.634   0.705  0.00  0.00    +2.690 S 
ATOM     20  O   LIG    1        2.461   4.324   0.327  0.00  0.00    -0.940 OA
ATOM     21  O   LIG    1        4.950   4.137   0.456  0.00  0.00    -0.940 OA
BRANCH  19  22
ATOM     22  C   LIG    1        3.535   3.372   2.444  0.00  0.00    -0.690 A 
ATOM     23  C   LIG    1        2.300   3.365   3.065  0.00  0.00    +0.160 A 
ATOM     24  C   LIG    1        2.212   3.154   4.428  0.00  0.00    -0.020 A 
ATOM     25  C   LIG    1        3.363   2.962   5.173  0.00  0.00    +0.160 A 
ATOM     26  C   LIG    1        4.600   2.975   4.551  0.00  0.00    -0.030 A 
ATOM     27  F   LIG    1        3.279   2.763   6.507  0.00  0.00    -0.130 F 
ATOM     28  C   LIG    1        4.685   3.180   3.187  0.00  0.00    +0.170 A 
ENDBRANCH  19  22
ENDBRANCH  17  19
ENDBRANCH   6  17
TORSDOF 8
