REMARK  Name = ZINCpe00000MJIYd.0
REMARK                            x       y       z     vdW  Elec       q    Type
REMARK                         _______ _______ _______ _____ _____    ______ ____
ROOT
ATOM      1  N   LIG    1       -0.703   1.561   1.216  0.00  0.00    -0.510 NA
ATOM      2  C   LIG    1       -0.013   1.086   0.008  0.00  0.00    +0.160 C 
ATOM      3  C   LIG    1       -0.755   1.594  -1.231  0.00  0.00    +0.240 C 
ATOM      4  O   LIG    1       -2.115   1.157  -1.178  0.00  0.00    -0.380 OA
ATOM      5  C   LIG    1       -2.819   1.602  -0.015  0.00  0.00    +0.180 C 
ATOM      6  C   LIG    1       -2.097   1.094   1.236  0.00  0.00    +0.210 C 
ENDROOT
BRANCH   6   7
ATOM      7  C   LIG    1       -2.788   1.624   2.466  0.00  0.00    +0.200 A 
ATOM      8  N   LIG    1       -2.708   2.846   2.916  0.00  0.00    -0.450 NA
ATOM      9  C   LIG    1       -3.453   2.959   4.026  0.00  0.00    +0.140 A 
ATOM     10  C   LIG    1       -4.011   1.759   4.277  0.00  0.00    +0.130 A 
ATOM     11  N   LIG    1       -3.589   0.912   3.288  0.00  0.00    -0.460 N 
ATOM     12  C   LIG    1       -3.941  -0.503   3.147  0.00  0.00    +0.320 C 
ENDBRANCH   6   7
BRANCH   1  14
ATOM     13  C   LIG    1        1.371   1.841   2.488  0.00  0.00    +0.030 C 
ATOM     14  C   LIG    1        0.012   1.142   2.429  0.00  0.00    +0.160 C 
ENDBRANCH   1  14
BRANCH   5  15
ATOM     15  C   LIG    1       -4.247   1.054  -0.040  0.00  0.00    +0.300 C 
BRANCH  15  16
ATOM     16  N   LIG    1       -4.934   1.537  -1.240  0.00  0.00    -0.720 N 
ATOM     17  H   LIG    1       -4.469   2.114  -1.866  0.00  0.00    +0.400 HD
ATOM     18  C   LIG    1       -6.212   1.179  -1.475  0.00  0.00    +0.590 C 
ATOM     19  O   LIG    1       -6.795   0.456  -0.690  0.00  0.00    -0.520 OA
BRANCH  18  20
ATOM     20  C   LIG    1       -6.902   1.665  -2.680  0.00  0.00    -0.010 A 
ATOM     21  C   LIG    1       -8.201   1.372  -3.042  0.00  0.00    +0.050 A 
ATOM     22  C   LIG    1       -8.460   2.031  -4.242  0.00  0.00    +0.040 A 
ATOM     23  C   LIG    1       -7.312   2.710  -4.599  0.00  0.00    +0.100 A 
ATOM     24  N   LIG    1       -6.364   2.481  -3.640  0.00  0.00    -0.520 N 
ATOM     25  H   LIG    1       -5.462   2.837  -3.640  0.00  0.00    +0.420 HD
BRANCH  23  26
ATOM     26  C   LIG    1       -7.142   3.514  -5.772  0.00  0.00    +0.270 C 
ATOM     27  N   LIG    1       -7.008   4.153  -6.702  0.00  0.00    -0.390 NA
ENDBRANCH  23  26
ENDBRANCH  18  20
ENDBRANCH  15  16
ENDBRANCH   5  15
TORSDOF 6
