REMARK  Name = ZINCrH000004lkpf.0
REMARK                            x       y       z     vdW  Elec       q    Type
REMARK                         _______ _______ _______ _____ _____    ______ ____
ROOT
ATOM      1  N   LIG    1        4.072   0.414  -1.720  0.00  0.00    -0.550 NA
ATOM      2  C   LIG    1        4.329  -1.033  -1.714  0.00  0.00    +0.200 C 
ATOM      3  C   LIG    1        4.897  -1.453  -3.072  0.00  0.00    +0.180 C 
ATOM      4  N   LIG    1        6.133  -0.703  -3.336  0.00  0.00    -0.530 NA
ATOM      5  C   LIG    1        5.876   0.744  -3.342  0.00  0.00    +0.200 C 
ATOM      6  C   LIG    1        5.308   1.164  -1.985  0.00  0.00    +0.200 C 
ENDROOT
BRANCH   4   7
ATOM      7  C   LIG    1        6.750  -1.134  -4.598  0.00  0.00    +0.180 C 
ATOM      8  C   LIG    1        8.052  -0.361  -4.818  0.00  0.00    +0.050 C 
BRANCH   7   9
ATOM      9  C   LIG    1        7.046  -2.610  -4.534  0.00  0.00    -0.070 A 
ATOM     10  C   LIG    1        7.288  -3.214  -3.315  0.00  0.00    +0.050 A 
ATOM     11  C   LIG    1        7.555  -4.570  -3.256  0.00  0.00    +0.010 A 
ATOM     12  C   LIG    1        7.591  -5.319  -4.417  0.00  0.00    +0.020 A 
ATOM     13  C   LIG    1        7.354  -4.714  -5.638  0.00  0.00    +0.020 A 
ATOM     14  C   LIG    1        7.082  -3.359  -5.697  0.00  0.00    -0.030 A 
ATOM     15 CL   LIG    1        6.784  -2.599  -7.229  0.00  0.00    -0.070 Cl
ENDBRANCH   7   9
ENDBRANCH   4   7
BRANCH   1  16
ATOM     16  C   LIG    1        3.455   0.844  -0.459  0.00  0.00    +0.500 C 
BRANCH  16  19
ATOM     17  C   LIG    1        0.240  -0.888  -0.402  0.00  0.00    +0.350 A 
ATOM     18  N   LIG    1        1.524  -0.711  -0.357  0.00  0.00    -0.340 NA
ATOM     19  N   LIG    1        2.017   0.567  -0.499  0.00  0.00    -0.320 N 
ATOM     20  C   LIG    1        1.113   1.548  -0.677  0.00  0.00    +0.250 A 
ATOM     21  S   LIG    1        1.412   3.222  -0.882  0.00  0.00    -0.450 S 
ATOM     22  S   LIG    1       -0.457   0.722  -0.659  0.00  0.00    +0.070 S 
BRANCH  17  23
ATOM     23  N   LIG    1       -0.445  -2.088  -0.280  0.00  0.00    -0.660 N 
ATOM     24  H   LIG    1        0.044  -2.915  -0.145  0.00  0.00    +0.420 HD
BRANCH  23  25
ATOM     25  C   LIG    1       -1.908  -2.108  -0.361  0.00  0.00    +0.300 C 
BRANCH  25  26
ATOM     26  C   LIG    1       -2.408  -3.545  -0.204  0.00  0.00    +0.190 C 
BRANCH  26  28
ATOM     27  C   LIG    1       -2.522  -5.358   1.361  0.00  0.00    +0.210 C 
ATOM     28  O   LIG    1       -2.096  -4.017   1.109  0.00  0.00    -0.390 OA
ENDBRANCH  26  28
ENDBRANCH  25  26
ENDBRANCH  23  25
ENDBRANCH  17  23
ENDBRANCH  16  19
ENDBRANCH   1  16
TORSDOF 8
