REMARK  Name = ZINCrD000000DgSi.0
REMARK                            x       y       z     vdW  Elec       q    Type
REMARK                         _______ _______ _______ _____ _____    ______ ____
ROOT
ATOM      1  C   LIG    1        1.282   1.686  -0.001  0.00  0.00    +0.220 A 
ATOM      2  N   LIG    1        2.004   0.596  -0.014  0.00  0.00    -0.370 NA
ATOM      3  O   LIG    1        1.285  -0.380  -0.012  0.00  0.00    +0.090 OA
ATOM      4  C   LIG    1        0.002  -0.004   0.002  0.00  0.00    +0.230 A 
ATOM      5  N   LIG    1       -0.016   1.306   0.009  0.00  0.00    -0.460 NA
ENDROOT
BRANCH   1  14
ATOM      6  C   LIG    1        0.897   4.149   0.010  0.00  0.00    +0.090 A 
ATOM      7  C   LIG    1        1.371   5.445   0.019  0.00  0.00    +0.050 A 
ATOM      8  C   LIG    1        2.737   5.688   0.007  0.00  0.00    +0.060 A 
ATOM      9  C   LIG    1        3.635   4.622  -0.008  0.00  0.00    +0.030 A 
ATOM     10  O   LIG    1        4.905   5.122  -0.018  0.00  0.00    -0.300 OA
ATOM     11  C   LIG    1        4.773   6.498  -0.422  0.00  0.00    +0.440 C 
ATOM     12  C   LIG    1        3.163   3.322  -0.010  0.00  0.00    +0.080 A 
ATOM     13  O   LIG    1        3.445   6.854   0.006  0.00  0.00    -0.300 OA
ATOM     14  C   LIG    1        1.791   3.080   0.002  0.00  0.00    -0.020 A 
ENDBRANCH   1  14
BRANCH   4  15
ATOM     15  C   LIG    1       -1.198  -0.915   0.009  0.00  0.00    -0.010 C 
ATOM     16  C   LIG    1       -1.451  -1.741   1.272  0.00  0.00    +0.100 C 
ATOM     17  C   LIG    1       -0.940  -2.424   0.000  0.00  0.00    +0.090 C 
BRANCH  15  18
ATOM     18  C   LIG    1       -2.402  -0.411  -0.745  0.00  0.00    -0.050 A 
ATOM     19  C   LIG    1       -3.218  -1.302  -1.416  0.00  0.00    +0.040 A 
ATOM     20  C   LIG    1       -4.326  -0.844  -2.104  0.00  0.00    +0.030 A 
ATOM     21  C   LIG    1       -4.613   0.513  -2.134  0.00  0.00    +0.050 A 
ATOM     22  O   LIG    1       -5.702   0.950  -2.825  0.00  0.00    -0.310 OA
ATOM     23  C   LIG    1       -6.168   2.269  -2.521  0.00  0.00    +0.220 C 
ATOM     24  C   LIG    1       -4.957   3.211  -2.485  0.00  0.00    +0.220 C 
ATOM     25  O   LIG    1       -4.056   2.743  -1.475  0.00  0.00    -0.300 OA
ATOM     26  C   LIG    1       -3.790   1.409  -1.463  0.00  0.00    +0.050 A 
ATOM     27  C   LIG    1       -2.683   0.942  -0.769  0.00  0.00    +0.060 A 
ENDBRANCH  15  18
ENDBRANCH   4  15
TORSDOF 3
