REMARK  Name = ZINCnE000001TZCd.1
REMARK                            x       y       z     vdW  Elec       q    Type
REMARK                         _______ _______ _______ _____ _____    ______ ____
ROOT
ATOM      1  O   LIG    1       11.224  -0.259   6.190  0.00  0.00    -0.540 OA
ATOM      2  C   LIG    1       10.259  -0.053   5.486  0.00  0.00    +0.520 C 
ATOM      3  C   LIG    1        9.160  -1.079   5.412  0.00  0.00    +0.070 C 
ATOM      4  C   LIG    1        7.806  -0.383   5.270  0.00  0.00    +0.090 C 
ATOM      5  C   LIG    1        7.885   0.654   4.179  0.00  0.00    -0.130 A 
ATOM      6  C   LIG    1        6.786   0.909   3.387  0.00  0.00    +0.090 A 
ATOM      7  C   LIG    1        6.863   1.869   2.379  0.00  0.00    -0.010 A 
ATOM      8  C   LIG    1        8.053   2.564   2.171  0.00  0.00    +0.050 A 
ATOM      9  C   LIG    1        9.148   2.308   2.969  0.00  0.00    -0.020 A 
ATOM     10  C   LIG    1        9.070   1.352   3.973  0.00  0.00    +0.140 A 
ATOM     11  N   LIG    1       10.182   1.089   4.779  0.00  0.00    -0.660 N 
ATOM     12  H   LIG    1       10.904   1.736   4.829  0.00  0.00    +0.410 HD
ENDROOT
BRANCH   7  13
ATOM     13  C   LIG    1        5.682   2.145   1.525  0.00  0.00    +0.130 A 
ATOM     14  C   LIG    1        5.705   3.061   0.540  0.00  0.00    -0.190 A 
ATOM     15  S   LIG    1        4.122   3.079  -0.233  0.00  0.00    -0.020 S 
ATOM     16  C   LIG    1        3.565   1.829   0.876  0.00  0.00    +0.380 A 
ATOM     17  N   LIG    1        4.530   1.507   1.680  0.00  0.00    -0.550 NA
BRANCH  16  18
ATOM     18  N   LIG    1        2.292   1.273   0.885  0.00  0.00    -0.660 NA
ATOM     19  C   LIG    1        1.368   1.690  -0.002  0.00  0.00    +0.470 C 
ATOM     20  O   LIG    1        1.647   2.551  -0.808  0.00  0.00    -0.600 OA
BRANCH  19  21
ATOM     21  C   LIG    1       -0.013   1.086   0.008  0.00  0.00    -0.020 C 
ATOM     22  C   LIG    1       -0.939   1.683   1.080  0.00  0.00    +0.030 C 
ATOM     23  C   LIG    1       -1.349   2.730   0.028  0.00  0.00    -0.000 C 
ATOM     24  C   LIG    1       -0.959   1.695  -1.040  0.00  0.00    +0.020 C 
ENDBRANCH  19  21
ENDBRANCH  16  18
ENDBRANCH   7  13
TORSDOF 3
