REMARK  Name = ZINCvU0000000IVc.0
REMARK                            x       y       z     vdW  Elec       q    Type
REMARK                         _______ _______ _______ _____ _____    ______ ____
ROOT
ATOM      1  C   LIG    1       -5.610   4.863  -1.340  0.00  0.00    +0.160 A 
ATOM      2  C   LIG    1       -5.650   4.240  -2.571  0.00  0.00    -0.080 A 
ATOM      3  C   LIG    1       -4.576   3.444  -2.966  0.00  0.00    +0.220 A 
ATOM      4  N   LIG    1       -3.537   3.289  -2.172  0.00  0.00    -0.470 NA
ATOM      5  C   LIG    1       -3.482   3.885  -0.977  0.00  0.00    +0.300 A 
ATOM      6  C   LIG    1       -2.516   3.885   0.037  0.00  0.00    -0.210 A 
ATOM      7  C   LIG    1       -3.004   4.690   1.074  0.00  0.00    +0.140 A 
ATOM      8  N   LIG    1       -4.177   5.160   0.729  0.00  0.00    -0.300 NA
ATOM      9  C   LIG    1       -2.294   4.971   2.373  0.00  0.00    +0.180 C 
ATOM     10  C   LIG    1       -4.604   2.757  -4.306  0.00  0.00    +0.160 C 
ATOM     11  N   LIG    1       -4.511   4.679  -0.541  0.00  0.00    -0.300 N 
ENDROOT
BRANCH   6  12
ATOM     12  C   LIG    1       -1.223   3.164   0.018  0.00  0.00    +0.020 A 
ATOM     13  C   LIG    1       -1.199   1.769  -0.003  0.00  0.00    +0.040 A 
ATOM     14  C   LIG    1        0.008   1.102  -0.016  0.00  0.00    +0.020 A 
ATOM     15  C   LIG    1        1.196   1.815  -0.018  0.00  0.00    -0.040 A 
ATOM     16  C   LIG    1        1.178   3.199  -0.002  0.00  0.00    +0.020 A 
ATOM     17 CL   LIG    1        2.711   0.969  -0.041  0.00  0.00    -0.070 Cl
ATOM     18  C   LIG    1       -0.024   3.876   0.016  0.00  0.00    +0.040 A 
ENDBRANCH   6  12
BRANCH   1  19
ATOM     19  S   LIG    1       -6.947   5.878  -0.805  0.00  0.00    +0.100 S 
BRANCH  19  20
ATOM     20  C   LIG    1       -8.045   5.732  -2.237  0.00  0.00    +0.080 C 
BRANCH  20  23
ATOM     21  N   LIG    1      -10.260   6.583  -2.936  0.00  0.00    -0.660 N 
ATOM     22  H   LIG    1      -10.125   6.145  -3.791  0.00  0.00    +0.410 HD
ATOM     23  C   LIG    1       -9.293   6.542  -1.998  0.00  0.00    +0.530 C 
ATOM     24  O   LIG    1       -9.427   7.159  -0.962  0.00  0.00    -0.500 OA
BRANCH  21  28
ATOM     25  C   LIG    1      -13.834   8.587  -2.160  0.00  0.00    +0.120 A 
ATOM     26  C   LIG    1      -12.640   9.075  -1.648  0.00  0.00    +0.010 A 
ATOM     27  C   LIG    1      -11.456   8.411  -1.905  0.00  0.00    +0.070 A 
ATOM     28  C   LIG    1      -11.461   7.256  -2.675  0.00  0.00    +0.100 A 
ATOM     29  C   LIG    1      -12.655   6.772  -3.192  0.00  0.00    +0.030 A 
ATOM     30  C   LIG    1      -13.839   7.433  -2.930  0.00  0.00    -0.060 A 
BRANCH  25  32
ATOM     31  C   LIG    1      -16.190   8.682  -2.466  0.00  0.00    +0.250 C 
ATOM     32  O   LIG    1      -14.999   9.241  -1.908  0.00  0.00    -0.320 OA
ENDBRANCH  25  32
ENDBRANCH  21  28
ENDBRANCH  20  23
ENDBRANCH  19  20
ENDBRANCH   1  19
TORSDOF 6
