REMARK  Name = ZINCqH0000032J01.0
REMARK                            x       y       z     vdW  Elec       q    Type
REMARK                         _______ _______ _______ _____ _____    ______ ____
ROOT
ATOM      1  C   LIG    1        8.718  -1.436  -2.530  0.00  0.00    -0.690 A 
ATOM      2  C   LIG    1        8.149  -1.107  -3.747  0.00  0.00    +0.140 A 
ATOM      3  C   LIG    1        6.899  -0.520  -3.790  0.00  0.00    +0.010 A 
ATOM      4  C   LIG    1        6.215  -0.259  -2.610  0.00  0.00    +0.200 A 
ATOM      5  C   LIG    1        6.792  -0.585  -1.390  0.00  0.00    -0.030 A 
ATOM      6  C   LIG    1        8.040  -1.177  -1.353  0.00  0.00    +0.140 A 
ENDROOT
BRANCH   4   7
ATOM      7  N   LIG    1        4.950   0.336  -2.651  0.00  0.00    -0.680 N 
ATOM      8  H   LIG    1        4.684   0.959  -1.956  0.00  0.00    +0.420 HD
ATOM      9  C   LIG    1        4.099   0.044  -3.654  0.00  0.00    +0.510 C 
ATOM     10  O   LIG    1        4.460  -0.669  -4.567  0.00  0.00    -0.510 OA
BRANCH   9  11
ATOM     11  C   LIG    1        2.700   0.602  -3.643  0.00  0.00    +0.070 C 
BRANCH  11  12
ATOM     12  C   LIG    1        1.948   0.121  -4.886  0.00  0.00    +0.110 C 
BRANCH  12  13
ATOM     13  C   LIG    1        0.549   0.680  -4.875  0.00  0.00    -0.100 A 
ATOM     14  C   LIG    1        0.239   1.850  -5.435  0.00  0.00    -0.050 A 
ATOM     15  S   LIG    1       -1.477   2.172  -5.219  0.00  0.00    +0.100 S 
ATOM     16  C   LIG    1       -1.684   0.650  -4.362  0.00  0.00    -0.040 A 
ATOM     17  C   LIG    1       -0.512   0.018  -4.283  0.00  0.00    +0.010 A 
ENDBRANCH  12  13
ENDBRANCH  11  12
ENDBRANCH   9  11
ENDBRANCH   4   7
BRANCH   1  18
ATOM     18  S   LIG    1       10.312  -2.184  -2.479  0.00  0.00    +2.690 S 
ATOM     19  O   LIG    1       10.502  -2.811  -3.741  0.00  0.00    -0.950 OA
ATOM     20  O   LIG    1       10.388  -2.884  -1.245  0.00  0.00    -0.950 OA
BRANCH  18  25
ATOM     21  C   LIG    1       15.506   0.225  -2.171  0.00  0.00    +0.030 C 
ATOM     22  C   LIG    1       13.978   0.248  -2.240  0.00  0.00    -0.020 C 
ATOM     23  C   LIG    1       13.402  -0.501  -1.037  0.00  0.00    +0.020 C 
ATOM     24  C   LIG    1       11.872  -0.446  -1.091  0.00  0.00    +0.280 C 
ATOM     25  N   LIG    1       11.426  -0.962  -2.393  0.00  0.00    -1.000 NA
ATOM     26  C   LIG    1       11.992  -0.376  -3.616  0.00  0.00    +0.280 C 
ATOM     27  C   LIG    1       13.516  -0.428  -3.533  0.00  0.00    +0.020 C 
ENDBRANCH  18  25
ENDBRANCH   1  18
TORSDOF 6
