REMARK  Name = ZINCpe00000znR9j.0
REMARK                            x       y       z     vdW  Elec       q    Type
REMARK                         _______ _______ _______ _____ _____    ______ ____
ROOT
ATOM      1  C   LIG    1       -0.019   1.526   0.010  0.00  0.00    +0.270 C 
ENDROOT
BRANCH   1   4
ATOM      2  O   LIG    1        0.362   3.943  -1.120  0.00  0.00    -0.510 OA
ATOM      3  C   LIG    1       -0.463   3.239  -1.664  0.00  0.00    +0.520 C 
ATOM      4  N   LIG    1       -0.727   2.011  -1.176  0.00  0.00    -0.730 N 
ATOM      5  H   LIG    1       -1.387   1.448  -1.611  0.00  0.00    +0.400 HD
BRANCH   3   6
ATOM      6  C   LIG    1       -1.192   3.739  -2.885  0.00  0.00    +0.150 C 
BRANCH   6   7
ATOM      7  C   LIG    1       -0.716   5.129  -3.220  0.00  0.00    +0.080 A 
ATOM      8  C   LIG    1       -0.228   5.455  -4.421  0.00  0.00    -0.070 A 
ATOM      9  S   LIG    1        0.204   7.163  -4.384  0.00  0.00    +0.120 S 
ATOM     10  C   LIG    1       -0.307   7.266  -2.756  0.00  0.00    +0.230 A 
ATOM     11  N   LIG    1       -0.742   6.120  -2.353  0.00  0.00    -0.450 NA
ENDBRANCH   6   7
ENDBRANCH   3   6
ENDBRANCH   1   4
BRANCH   1  12
ATOM     12  C   LIG    1       -0.735   2.019   1.269  0.00  0.00    -0.060 C 
ATOM     13  C   LIG    1       -2.092   2.701   1.088  0.00  0.00    +0.010 C 
ATOM     14  C   LIG    1       -0.862   3.532   1.463  0.00  0.00    +0.030 C 
ENDBRANCH   1  12
BRANCH   1  15
ATOM     15  C   LIG    1        0.002  -0.004   0.002  0.00  0.00    +0.290 C 
BRANCH  15  16
ATOM     16  N   LIG    1        0.580  -0.478  -1.258  0.00  0.00    -0.730 N 
ATOM     17  H   LIG    1        0.877   0.160  -1.926  0.00  0.00    +0.400 HD
ATOM     18  C   LIG    1        0.700  -1.800  -1.489  0.00  0.00    +0.570 C 
ATOM     19  O   LIG    1        0.329  -2.600  -0.653  0.00  0.00    -0.530 OA
BRANCH  18  20
ATOM     20  C   LIG    1        1.284  -2.278  -2.761  0.00  0.00    -0.190 A 
ATOM     21  C   LIG    1        1.414  -3.649  -3.014  0.00  0.00    +0.130 A 
ATOM     22  C   LIG    1        1.966  -4.044  -4.219  0.00  0.00    +0.000 A 
ATOM     23  CA  LIG    1        2.368  -3.081  -5.128  0.00  0.00    +0.150 A 
ATOM     24  N   LIG    1        2.233  -1.796  -4.862  0.00  0.00    -0.480 NA
ATOM     25  C   LIG    1        1.709  -1.370  -3.732  0.00  0.00    +0.300 A 
BRANCH  23  26
ATOM     26  C   LIG    1        2.970  -3.508  -6.442  0.00  0.00    +0.280 C 
BRANCH  26  27
ATOM     27  O   LIG    1        3.014  -4.935  -6.505  0.00  0.00    -0.570 OA
ATOM     28  H   LIG    1        3.390  -5.281  -7.326  0.00  0.00    +0.390 HD
ENDBRANCH  26  27
ENDBRANCH  23  26
ENDBRANCH  18  20
ENDBRANCH  15  16
ENDBRANCH   1  15
TORSDOF 9
