REMARK  Name = ZINCqH0000036wuW.0
REMARK                            x       y       z     vdW  Elec       q    Type
REMARK                         _______ _______ _______ _____ _____    ______ ____
ROOT
ATOM      1  C   LIG    1       -0.266   6.488  -1.981  0.00  0.00    +0.520 C 
ATOM      2  N   LIG    1        0.847   6.051  -1.358  0.00  0.00    -0.610 N 
ATOM      3  C   LIG    1        2.132   6.063  -2.061  0.00  0.00    +0.290 C 
ATOM      4  O   LIG    1       -1.330   6.478  -1.399  0.00  0.00    -0.540 OA
ENDROOT
BRANCH   1   5
ATOM      5  C   LIG    1       -0.188   6.988  -3.400  0.00  0.00    +0.070 C 
BRANCH   5   6
ATOM      6  C   LIG    1       -1.580   7.421  -3.866  0.00  0.00    +0.070 C 
BRANCH   6   7
ATOM      7  C   LIG    1       -1.502   7.921  -5.285  0.00  0.00    +0.400 C 
ATOM      8  O   LIG    1       -0.437   7.931  -5.867  0.00  0.00    -0.450 OA
BRANCH   7  12
ATOM      9  C   LIG    1       -4.993   9.291  -7.239  0.00  0.00    -0.060 A 
ATOM     10  C   LIG    1       -3.771   9.303  -7.910  0.00  0.00    +0.010 A 
ATOM     11  C   LIG    1       -2.642   8.862  -7.283  0.00  0.00    +0.100 A 
ATOM     12  C   LIG    1       -2.712   8.396  -5.963  0.00  0.00    -0.180 A 
ATOM     13  C   LIG    1       -3.944   8.381  -5.294  0.00  0.00    +0.090 A 
ATOM     14  C   LIG    1       -5.068   8.828  -5.927  0.00  0.00    -0.020 A 
BRANCH   9  16
ATOM     15  C   LIG    1       -7.664   9.613  -6.736  0.00  0.00    +0.140 C 
ATOM     16  S   LIG    1       -6.448   9.862  -8.054  0.00  0.00    -0.090 S 
ENDBRANCH   9  16
ENDBRANCH   7  12
ENDBRANCH   6   7
ENDBRANCH   5   6
ENDBRANCH   1   5
BRANCH   2  17
ATOM     17  C   LIG    1        0.771   5.565   0.022  0.00  0.00    +0.350 C 
BRANCH  17  18
ATOM     18  C   LIG    1        0.496   4.083   0.018  0.00  0.00    -0.100 A 
ATOM     19  C   LIG    1       -0.808   3.624   0.028  0.00  0.00    +0.060 A 
ATOM     20  C   LIG    1       -1.065   2.265   0.019  0.00  0.00    +0.040 A 
ATOM     21  C   LIG    1       -0.016   1.361   0.009  0.00  0.00    +0.040 A 
ATOM     22  O   LIG    1        0.002  -0.004   0.002  0.00  0.00    -0.310 OA
ATOM     23  C   LIG    1        1.336  -0.373   0.399  0.00  0.00    +0.430 C 
ATOM     24  O   LIG    1        2.139   0.749  -0.014  0.00  0.00    -0.310 OA
ATOM     25  C   LIG    1        1.297   1.824  -0.001  0.00  0.00    +0.030 A 
ATOM     26  C   LIG    1        1.548   3.186   0.004  0.00  0.00    +0.040 A 
ENDBRANCH  17  18
ENDBRANCH   2  17
TORSDOF 7
