REMARK  Name = ZINCpk00000l3Ljm.0
REMARK                            x       y       z     vdW  Elec       q    Type
REMARK                         _______ _______ _______ _____ _____    ______ ____
ROOT
ATOM      1  N   LIG    1       -0.067   1.120  -2.437  0.00  0.00    -0.730 N 
ATOM      2  H   LIG    1        0.730   0.573  -2.358  0.00  0.00    +0.400 HD
ATOM      3  C   LIG    1       -0.543   1.446  -3.655  0.00  0.00    +0.540 C 
ATOM      4  O   LIG    1       -1.540   2.130  -3.753  0.00  0.00    -0.530 OA
ENDROOT
BRANCH   3   5
ATOM      5  C   LIG    1        0.162   0.960  -4.895  0.00  0.00    -0.050 C 
ATOM      6  C   LIG    1        0.872   2.004  -5.758  0.00  0.00    +0.080 C 
ATOM      7  C   LIG    1       -0.428   1.364  -6.247  0.00  0.00    +0.050 C 
BRANCH   7   8
ATOM      8  C   LIG    1       -0.333   0.367  -7.373  0.00  0.00    -0.050 A 
ATOM      9  C   LIG    1        0.906  -0.067  -7.808  0.00  0.00    +0.020 A 
ATOM     10  C   LIG    1        0.997  -0.985  -8.837  0.00  0.00    +0.030 A 
ATOM     11  C   LIG    1       -0.153  -1.464  -9.445  0.00  0.00    +0.050 A 
ATOM     12  O   LIG    1       -0.047  -2.360 -10.464  0.00  0.00    -0.310 OA
ATOM     13  C   LIG    1       -1.226  -3.101 -10.794  0.00  0.00    +0.220 C 
ATOM     14  C   LIG    1       -2.405  -2.121 -10.865  0.00  0.00    +0.220 C 
ATOM     15  O   LIG    1       -2.541  -1.489  -9.588  0.00  0.00    -0.310 OA
ATOM     16  C   LIG    1       -1.399  -1.025  -9.011  0.00  0.00    +0.050 A 
ATOM     17  C   LIG    1       -1.484  -0.108  -7.974  0.00  0.00    +0.040 A 
ENDBRANCH   7   8
ENDBRANCH   3   5
BRANCH   1  18
ATOM     18  C   LIG    1       -0.753   1.593  -1.232  0.00  0.00    +0.260 C 
BRANCH  18  19
ATOM     19  C   LIG    1       -0.013   1.086   0.008  0.00  0.00    +0.100 C 
BRANCH  19  24
ATOM     20  O   LIG    1       -2.526   2.879   4.468  0.00  0.00    -0.530 OA
ATOM     21  C   LIG    1       -1.962   2.473   3.466  0.00  0.00    +0.630 A 
ATOM     22  N   LIG    1       -1.065   3.251   2.855  0.00  0.00    -0.540 NA
ATOM     23  C   LIG    1       -0.441   2.839   1.770  0.00  0.00    +0.440 A 
ATOM     24  C   LIG    1       -0.718   1.572   1.248  0.00  0.00    -0.260 A 
ATOM     25  C   LIG    1       -1.637   0.786   1.871  0.00  0.00    +0.370 A 
ATOM     26  N   LIG    1       -2.253   1.248   2.990  0.00  0.00    -0.620 N 
ATOM     27  H   LIG    1       -2.908   0.695   3.446  0.00  0.00    +0.420 HD
ENDBRANCH  19  24
ENDBRANCH  18  19
ENDBRANCH   1  18
TORSDOF 5
