REMARK  Name = ZINCrD00000F5LG7.0
REMARK                            x       y       z     vdW  Elec       q    Type
REMARK                         _______ _______ _______ _____ _____    ______ ____
ROOT
ATOM      1  C   LIG    1        4.942  -2.730  -0.070  0.00  0.00    +0.510 C 
ATOM      2  O   LIG    1        5.988  -2.108  -0.086  0.00  0.00    -0.510 OA
ENDROOT
BRANCH   1   4
ATOM      3  C   LIG    1        3.689  -0.685  -0.051  0.00  0.00    +0.170 C 
ATOM      4  C   LIG    1        3.706  -2.036  -0.051  0.00  0.00    -0.080 C 
BRANCH   3   8
ATOM      5  C   LIG    1       -0.016   1.385   0.006  0.00  0.00    +0.120 A 
ATOM      6  C   LIG    1        0.003  -0.003   0.005  0.00  0.00    -0.040 A 
ATOM      7  C   LIG    1        1.203  -0.680  -0.013  0.00  0.00    +0.060 A 
ATOM      8  C   LIG    1        2.407   0.033  -0.031  0.00  0.00    -0.090 A 
ATOM      9  C   LIG    1        2.387   1.433  -0.030  0.00  0.00    +0.000 A 
ATOM     10  C   LIG    1        1.180   2.103  -0.012  0.00  0.00    +0.100 A 
BRANCH   5  12
ATOM     11  C   LIG    1       -2.389   1.250   0.030  0.00  0.00    +0.240 C 
ATOM     12  O   LIG    1       -1.202   2.046   0.018  0.00  0.00    -0.300 OA
ENDBRANCH   5  12
BRANCH  10  13
ATOM     13  O   LIG    1        1.157   3.462  -0.011  0.00  0.00    -0.300 OA
ATOM     14  C   LIG    1        2.418   4.133  -0.030  0.00  0.00    +0.240 C 
ENDBRANCH  10  13
ENDBRANCH   3   8
ENDBRANCH   1   4
BRANCH   1  15
ATOM     15  O   LIG    1        4.959  -4.079  -0.071  0.00  0.00    -0.330 OA
BRANCH  15  16
ATOM     16  C   LIG    1        6.240  -4.712  -0.090  0.00  0.00    +0.270 C 
BRANCH  16  17
ATOM     17  C   LIG    1        6.062  -6.208  -0.088  0.00  0.00    +0.520 C 
ATOM     18  N   LIG    1        7.141  -7.015  -0.104  0.00  0.00    -0.670 N 
ATOM     19  H   LIG    1        8.030  -6.636  -0.185  0.00  0.00    +0.420 HD
ATOM     20  O   LIG    1        4.947  -6.686  -0.071  0.00  0.00    -0.490 OA
BRANCH  18  21
ATOM     21  C   LIG    1        6.979  -8.402  -0.004  0.00  0.00    +0.170 A 
ATOM     22  C   LIG    1        7.920  -9.165   0.674  0.00  0.00    -0.010 A 
ATOM     23  C   LIG    1        7.756 -10.533   0.776  0.00  0.00    +0.070 A 
ATOM     24  C   LIG    1        6.661 -11.145   0.195  0.00  0.00    -0.130 A 
ATOM     25  C   LIG    1        5.723 -10.388  -0.488  0.00  0.00    +0.120 A 
ATOM     26  F   LIG    1        4.654 -10.989  -1.056  0.00  0.00    -0.130 F 
ATOM     27  C   LIG    1        6.488 -12.638   0.303  0.00  0.00    +0.110 C 
ATOM     28  C   LIG    1        5.880  -9.017  -0.589  0.00  0.00    +0.000 A 
ENDBRANCH  18  21
ENDBRANCH  16  17
ENDBRANCH  15  16
ENDBRANCH   1  15
TORSDOF 8
