REMARK  Name = ZINCpe000000ZtGx.0
REMARK                            x       y       z     vdW  Elec       q    Type
REMARK                         _______ _______ _______ _____ _____    ______ ____
ROOT
ATOM      1  C   LIG    1        1.153   3.591   0.011  0.00  0.00    +0.190 C 
ENDROOT
BRANCH   1   2
ATOM      2  C   LIG    1        0.831   2.120  -0.064  0.00  0.00    -0.120 A 
ATOM      3  C   LIG    1        1.818   1.184   0.178  0.00  0.00    +0.100 A 
ATOM      4  C   LIG    1        1.523  -0.165   0.109  0.00  0.00    +0.010 A 
ATOM      5  C   LIG    1        0.240  -0.579  -0.201  0.00  0.00    +0.060 A 
ATOM      6  C   LIG    1       -0.748   0.357  -0.442  0.00  0.00    -0.010 A 
ATOM      7  C   LIG    1       -0.454   1.708  -0.373  0.00  0.00    +0.100 A 
ATOM      8  F   LIG    1       -1.419   2.623  -0.614  0.00  0.00    -0.140 F 
ENDBRANCH   1   2
BRANCH   1  10
ATOM      9  O   LIG    1        1.740   3.879   2.278  0.00  0.00    -0.490 OA
ATOM     10  C   LIG    1        0.915   4.087   1.414  0.00  0.00    +0.560 C 
ATOM     11  N   LIG    1       -0.214   4.761   1.708  0.00  0.00    -0.640 N 
ATOM     12  C   LIG    1       -1.444   5.130   0.991  0.00  0.00    +0.300 C 
ATOM     13  C   LIG    1       -2.162   5.151   2.351  0.00  0.00    +0.260 C 
ATOM     14  C   LIG    1       -0.756   5.457   2.885  0.00  0.00    +0.300 C 
BRANCH  13  15
ATOM     15  N   LIG    1       -3.118   6.251   2.510  0.00  0.00    -0.280 N 
ATOM     16  C   LIG    1       -3.280   7.290   1.658  0.00  0.00    +0.140 A 
ATOM     17  C   LIG    1       -4.258   8.061   2.187  0.00  0.00    +0.150 A 
ATOM     18  N   LIG    1       -4.641   7.464   3.321  0.00  0.00    -0.270 NA
ATOM     19  N   LIG    1       -3.950   6.391   3.481  0.00  0.00    -0.080 NA
ENDBRANCH  13  15
ENDBRANCH   1  10
BRANCH   1  20
ATOM     20  N   LIG    1        2.561   3.803  -0.351  0.00  0.00    -0.510 NA
ATOM     21  C   LIG    1        2.935   5.217  -0.207  0.00  0.00    +0.150 C 
ATOM     22  C   LIG    1        4.421   5.383  -0.536  0.00  0.00    +0.240 C 
ATOM     23  O   LIG    1        4.670   4.889  -1.855  0.00  0.00    -0.380 OA
ATOM     24  C   LIG    1        4.317   3.514  -2.031  0.00  0.00    +0.230 C 
ATOM     25  C   LIG    1        2.830   3.329  -1.717  0.00  0.00    +0.150 C 
ENDBRANCH   1  20
TORSDOF 4
