REMARK  Name = ZINCrH00000No58B.0
REMARK                            x       y       z     vdW  Elec       q    Type
REMARK                         _______ _______ _______ _____ _____    ______ ____
ROOT
ATOM      1  C   LIG    1       -0.162   2.972  -3.134  0.00  0.00    +0.340 C 
ENDROOT
BRANCH   1   2
ATOM      2  C   LIG    1       -1.592   2.936  -3.609  0.00  0.00    -0.200 A 
ATOM      3  C   LIG    1       -2.114   3.741  -4.531  0.00  0.00    +0.030 A 
ATOM      4  C   LIG    1       -3.457   3.532  -4.820  0.00  0.00    -0.150 A 
ATOM      5  C   LIG    1       -4.017   2.538  -4.100  0.00  0.00    -0.190 A 
ATOM      6  C   LIG    1       -5.468   2.123  -4.229  0.00  0.00    +0.100 C 
ATOM      7  C   LIG    1       -6.213   3.238  -4.975  0.00  0.00    +0.230 C 
ATOM      8  O   LIG    1       -5.459   3.613  -6.131  0.00  0.00    -0.380 OA
ATOM      9  C   LIG    1       -4.256   4.330  -5.841  0.00  0.00    +0.310 C 
ATOM     10  S   LIG    1       -2.826   1.830  -3.023  0.00  0.00    +0.210 S 
ENDBRANCH   1   2
BRANCH   1  15
ATOM     11  C   LIG    1        0.931   3.411   1.132  0.00  0.00    -0.030 C 
ATOM     12  C   LIG    1       -0.566   3.492   1.492  0.00  0.00    +0.010 C 
ATOM     13  C   LIG    1       -1.466   3.161   0.289  0.00  0.00    +0.030 C 
ATOM     14  C   LIG    1       -0.942   3.780  -0.983  0.00  0.00    +0.200 C 
ATOM     15  N   LIG    1       -0.123   2.769  -1.680  0.00  0.00    -0.530 NA
ATOM     16  C   LIG    1        1.194   2.665  -1.224  0.00  0.00    +0.160 C 
ATOM     17  C   LIG    1        1.254   2.227   0.256  0.00  0.00    +0.040 C 
BRANCH  11  19
ATOM     18  C   LIG    1        1.523   4.563   3.269  0.00  0.00    +0.010 C 
ATOM     19  C   LIG    1        1.745   3.307   2.424  0.00  0.00    +0.000 C 
ENDBRANCH  11  19
ENDBRANCH   1  15
BRANCH   1  20
ATOM     20  C   LIG    1        0.621   1.879  -3.815  0.00  0.00    +0.190 A 
ATOM     21  N   LIG    1        0.547   0.594  -3.569  0.00  0.00    -0.270 NA
ATOM     22  N   LIG    1        1.369  -0.010  -4.356  0.00  0.00    -0.070 NA
ATOM     23  N   LIG    1        1.966   0.857  -5.098  0.00  0.00    -0.090 NA
ATOM     24  N   LIG    1        1.528   2.033  -4.798  0.00  0.00    -0.270 N 
BRANCH  24  25
ATOM     25  C   LIG    1        1.942   3.298  -5.410  0.00  0.00    +0.200 C 
ATOM     26  C   LIG    1        2.838   3.224  -6.648  0.00  0.00    +0.090 C 
ATOM     27  C   LIG    1        3.420   3.680  -5.309  0.00  0.00    +0.070 C 
ENDBRANCH  24  25
ENDBRANCH   1  20
TORSDOF 5
