REMARK  Name = ZINCkj000005kSyw.2
REMARK                            x       y       z     vdW  Elec       q    Type
REMARK                         _______ _______ _______ _____ _____    ______ ____
ROOT
ATOM      1  C   LIG    1       -0.227   1.438   0.537  0.00  0.00    +0.590 C 
ATOM      2  N   LIG    1        0.922   2.029   0.918  0.00  0.00    -0.630 N 
ATOM      3  C   LIG    1        2.032   1.239   1.473  0.00  0.00    +0.310 C 
ATOM      4  C   LIG    1        2.489   1.886   2.780  0.00  0.00    +0.260 C 
ATOM      5  N   LIG    1        2.810   3.299   2.542  0.00  0.00    -0.390 N 
ATOM      6  C   LIG    1        1.599   4.026   2.141  0.00  0.00    +0.260 C 
ATOM      7  C   LIG    1        3.350   3.891   3.773  0.00  0.00    +0.330 C 
ATOM      8  H   LIG    1        3.500   3.367   1.808  0.00  0.00    +0.430 HD
ATOM      9  C   LIG    1        1.100   3.485   0.797  0.00  0.00    +0.230 C 
ATOM     10  C   LIG    1       -0.237   4.138   0.445  0.00  0.00    +0.100 C 
ATOM     11  O   LIG    1       -1.102   2.094   0.008  0.00  0.00    -0.490 OA
ENDROOT
BRANCH   1  19
ATOM     12  C   LIG    1       -4.330  -2.525   1.812  0.00  0.00    +0.190 C 
ATOM     13  C   LIG    1       -2.874  -2.835   1.577  0.00  0.00    +0.080 A 
ATOM     14  N   LIG    1       -2.299  -4.000   1.616  0.00  0.00    -0.300 NA
ATOM     15  O   LIG    1       -1.113  -3.960   1.387  0.00  0.00    +0.100 OA
ATOM     16  C   LIG    1       -0.664  -2.716   1.145  0.00  0.00    +0.240 A 
ATOM     17  N   LIG    1        0.513  -2.186   0.856  0.00  0.00    -0.450 NA
ATOM     18  C   LIG    1        0.662  -0.894   0.663  0.00  0.00    +0.360 A 
ATOM     19  C   LIG    1       -0.420  -0.010   0.756  0.00  0.00    -0.220 A 
ATOM     20  C   LIG    1       -1.687  -0.519   1.065  0.00  0.00    +0.230 A 
ATOM     21  C   LIG    1       -1.803  -1.887   1.254  0.00  0.00    -0.220 A 
ENDBRANCH   1  19
TORSDOF 1
