REMARK  Name = ZINCkj000005kSyw.1
REMARK                            x       y       z     vdW  Elec       q    Type
REMARK                         _______ _______ _______ _____ _____    ______ ____
ROOT
ATOM      1  C   LIG    1        0.002  -0.004   0.002  0.00  0.00    +0.590 C 
ATOM      2  N   LIG    1       -1.150  -0.694   0.111  0.00  0.00    -0.630 N 
ATOM      3  C   LIG    1       -2.448  -0.002   0.130  0.00  0.00    +0.310 C 
ATOM      4  C   LIG    1       -3.368  -0.666  -0.900  0.00  0.00    +0.270 C 
ATOM      5  N   LIG    1       -3.446  -2.107  -0.627  0.00  0.00    -0.390 N 
ATOM      6  C   LIG    1       -2.128  -2.724  -0.819  0.00  0.00    +0.270 C 
ATOM      7  C   LIG    1       -4.412  -2.725  -1.545  0.00  0.00    +0.330 C 
ATOM      8  H   LIG    1       -3.749  -2.252   0.324  0.00  0.00    +0.420 HD
ATOM      9  C   LIG    1       -1.147  -2.162   0.209  0.00  0.00    +0.270 C 
ATOM     10  C   LIG    1       -1.582  -2.585   1.613  0.00  0.00    +0.060 C 
ATOM     11  O   LIG    1        1.056  -0.597  -0.121  0.00  0.00    -0.500 OA
ENDROOT
BRANCH   1  19
ATOM     12  C   LIG    1        2.748   4.684  -2.154  0.00  0.00    +0.190 C 
ATOM     13  C   LIG    1        1.574   4.729  -1.211  0.00  0.00    +0.080 A 
ATOM     14  N   LIG    1        0.988   5.785  -0.729  0.00  0.00    -0.300 NA
ATOM     15  O   LIG    1        0.065   5.531   0.009  0.00  0.00    +0.100 OA
ATOM     16  C   LIG    1       -0.140   4.211   0.160  0.00  0.00    +0.240 A 
ATOM     17  N   LIG    1       -0.999   3.470   0.842  0.00  0.00    -0.450 NA
ATOM     18  C   LIG    1       -0.969   2.156   0.796  0.00  0.00    +0.360 A 
ATOM     19  C   LIG    1       -0.016   1.473   0.032  0.00  0.00    -0.220 A 
ATOM     20  C   LIG    1        0.916   2.209  -0.709  0.00  0.00    +0.230 A 
ATOM     21  C   LIG    1        0.847   3.592  -0.639  0.00  0.00    -0.220 A 
ENDBRANCH   1  19
TORSDOF 1
