REMARK  Name = ZINCvU0000000ARJ.0
REMARK                            x       y       z     vdW  Elec       q    Type
REMARK                         _______ _______ _______ _____ _____    ______ ____
ROOT
ATOM      1  C   LIG    1        2.380   2.986  -0.185  0.00  0.00    -0.230 A 
ATOM      2  C   LIG    1        1.153   3.653  -0.142  0.00  0.00    +0.090 A 
ATOM      3  C   LIG    1       -0.022   2.933  -0.165  0.00  0.00    -0.060 A 
ATOM      4  C   LIG    1        0.007   1.549  -0.231  0.00  0.00    +0.090 A 
ATOM      5  C   LIG    1        1.211   0.876  -0.274  0.00  0.00    -0.080 A 
ATOM      6  C   LIG    1        2.405   1.584  -0.251  0.00  0.00    +0.280 A 
ENDROOT
BRANCH   1   9
ATOM      7  N   LIG    1        3.613   5.097  -0.215  0.00  0.00    -0.670 N 
ATOM      8  H   LIG    1        2.765   5.566  -0.188  0.00  0.00    +0.410 HD
ATOM      9  C   LIG    1        3.640   3.751  -0.160  0.00  0.00    +0.570 C 
ATOM     10  O   LIG    1        4.705   3.166  -0.090  0.00  0.00    -0.520 OA
BRANCH   7  14
ATOM     11  C   LIG    1        7.176   7.244  -0.498  0.00  0.00    +0.120 A 
ATOM     12  C   LIG    1        7.057   6.012  -1.124  0.00  0.00    +0.000 A 
ATOM     13  C   LIG    1        5.878   5.300  -1.031  0.00  0.00    +0.060 A 
ATOM     14  C   LIG    1        4.810   5.818  -0.310  0.00  0.00    +0.110 A 
ATOM     15  C   LIG    1        4.928   7.054   0.312  0.00  0.00    +0.030 A 
ATOM     16  C   LIG    1        6.110   7.762   0.222  0.00  0.00    -0.060 A 
BRANCH  11  17
ATOM     17  O   LIG    1        8.338   7.944  -0.592  0.00  0.00    -0.320 OA
BRANCH  17  19
ATOM     18  C   LIG    1        9.764   9.842  -0.139  0.00  0.00    +0.070 C 
ATOM     19  C   LIG    1        8.390   9.206   0.077  0.00  0.00    +0.170 C 
ENDBRANCH  17  19
ENDBRANCH  11  17
ENDBRANCH   7  14
ENDBRANCH   1   9
BRANCH   6  20
ATOM     20  N   LIG    1        3.618   0.909  -0.295  0.00  0.00    -0.720 N 
ATOM     21  H   LIG    1        4.448   1.407  -0.362  0.00  0.00    +0.430 HD
BRANCH  20  22
ATOM     22  C   LIG    1        3.644  -0.554  -0.239  0.00  0.00    +0.300 C 
BRANCH  22  23
ATOM     23  C   LIG    1        5.072  -1.034  -0.303  0.00  0.00    +0.510 C 
ATOM     24  N   LIG    1        5.341  -2.354  -0.267  0.00  0.00    -0.670 N 
ATOM     25  H   LIG    1        4.615  -2.998  -0.282  0.00  0.00    +0.420 HD
ATOM     26  O   LIG    1        5.978  -0.232  -0.386  0.00  0.00    -0.500 OA
BRANCH  24  27
ATOM     27  C   LIG    1        6.669  -2.797  -0.207  0.00  0.00    +0.120 A 
ATOM     28  C   LIG    1        7.617  -2.060   0.488  0.00  0.00    +0.070 A 
ATOM     29  C   LIG    1        8.925  -2.501   0.549  0.00  0.00    +0.050 A 
ATOM     30  C   LIG    1        9.293  -3.671  -0.090  0.00  0.00    -0.020 A 
ATOM     31  C   LIG    1        8.352  -4.406  -0.789  0.00  0.00    +0.020 A 
ATOM     32 CL   LIG    1       10.939  -4.218  -0.015  0.00  0.00    -0.050 Cl
ATOM     33  C   LIG    1        7.041  -3.973  -0.850  0.00  0.00    +0.090 A 
ATOM     34  F   LIG    1        6.122  -4.691  -1.533  0.00  0.00    -0.130 F 
ENDBRANCH  24  27
ENDBRANCH  22  23
ENDBRANCH  20  22
ENDBRANCH   6  20
TORSDOF 8
