REMARK  Name = ZINCvU0000000AsA.0
REMARK                            x       y       z     vdW  Elec       q    Type
REMARK                         _______ _______ _______ _____ _____    ______ ____
ROOT
ATOM      1  N   LIG    1        0.142  -0.616   1.541  0.00  0.00    -0.590 N 
ATOM      2  C   LIG    1        1.246  -0.980   2.223  0.00  0.00    +0.550 C 
ATOM      3  O   LIG    1        2.348  -0.752   1.761  0.00  0.00    -0.540 OA
ENDROOT
BRANCH   2   4
ATOM      4  C   LIG    1        1.119  -1.653   3.524  0.00  0.00    -0.090 C 
ATOM      5  C   LIG    1        2.205  -1.925   4.242  0.00  0.00    +0.140 C 
ENDBRANCH   2   4
BRANCH   1   6
ATOM      6  C   LIG    1       -1.182  -0.803   2.139  0.00  0.00    +0.340 C 
BRANCH   6  12
ATOM      7  C   LIG    1       -2.262  -2.408   0.543  0.00  0.00    +0.140 A 
ATOM      8  C   LIG    1       -2.733  -3.673   0.223  0.00  0.00    -0.080 A 
ATOM      9  C   LIG    1       -2.655  -4.693   1.151  0.00  0.00    +0.060 A 
ATOM     10  C   LIG    1       -2.101  -4.456   2.396  0.00  0.00    -0.020 A 
ATOM     11  C   LIG    1       -1.625  -3.197   2.715  0.00  0.00    +0.060 A 
ATOM     12  C   LIG    1       -1.702  -2.174   1.790  0.00  0.00    -0.140 A 
BRANCH   7  13
ATOM     13  O   LIG    1       -2.343  -1.401  -0.366  0.00  0.00    -0.310 OA
BRANCH  13  14
ATOM     14  C   LIG    1       -2.829  -1.740  -1.667  0.00  0.00    +0.350 C 
BRANCH  14  16
ATOM     15  C   LIG    1       -2.665   0.376  -3.248  0.00  0.00    +0.080 C 
ATOM     16  C   LIG    1       -2.737  -0.563  -2.547  0.00  0.00    -0.210 C 
ENDBRANCH  14  16
ENDBRANCH  13  14
ENDBRANCH   7  13
ENDBRANCH   6  12
ENDBRANCH   1   6
BRANCH   1  17
ATOM     17  C   LIG    1        0.266  -0.033   0.203  0.00  0.00    +0.340 C 
BRANCH  17  18
ATOM     18  C   LIG    1        0.384   1.465   0.316  0.00  0.00    -0.110 A 
ATOM     19  C   LIG    1       -0.755   2.249   0.294  0.00  0.00    +0.020 A 
ATOM     20  C   LIG    1       -0.654   3.621   0.403  0.00  0.00    +0.000 A 
ATOM     21  C   LIG    1        0.600   4.217   0.523  0.00  0.00    -0.030 A 
ATOM     22  C   LIG    1        1.744   3.423   0.539  0.00  0.00    +0.000 A 
ATOM     23  C   LIG    1        1.631   2.051   0.436  0.00  0.00    +0.040 A 
BRANCH  21  24
ATOM     24  C   LIG    1        0.716   5.692   0.634  0.00  0.00    -0.080 A 
ATOM     25  C   LIG    1        1.970   6.287   0.760  0.00  0.00    +0.060 A 
ATOM     26  C   LIG    1        2.075   7.658   0.859  0.00  0.00    -0.080 A 
ATOM     27  C   LIG    1        0.931   8.446   0.842  0.00  0.00    +0.130 A 
ATOM     28  C   LIG    1       -0.320   7.856   0.721  0.00  0.00    -0.020 A 
ATOM     29  C   LIG    1       -0.430   6.486   0.618  0.00  0.00    +0.060 A 
BRANCH  27  30
ATOM     30  O   LIG    1        1.037   9.797   0.944  0.00  0.00    -0.320 OA
ATOM     31  C   LIG    1        2.355  10.337   1.065  0.00  0.00    +0.250 C 
ENDBRANCH  27  30
ENDBRANCH  21  24
ENDBRANCH  17  18
ENDBRANCH   1  17
TORSDOF 10
