REMARK  Name = ZINCpk00000eaC9D.1
REMARK                            x       y       z     vdW  Elec       q    Type
REMARK                         _______ _______ _______ _____ _____    ______ ____
ROOT
ATOM      1  N   LIG    1        2.024   0.870  -1.162  0.00  0.00    -0.540 NA
ATOM      2  C   LIG    1        2.428  -0.511  -0.863  0.00  0.00    +0.170 C 
ATOM      3  C   LIG    1        3.121  -1.114  -2.087  0.00  0.00    +0.190 C 
ATOM      4  N   LIG    1        4.286  -0.292  -2.442  0.00  0.00    -0.520 NA
ATOM      5  C   LIG    1        3.882   1.089  -2.741  0.00  0.00    +0.190 C 
ATOM      6  C   LIG    1        3.189   1.692  -1.517  0.00  0.00    +0.190 C 
ENDROOT
BRANCH   1   7
ATOM      7  C   LIG    1        1.288   1.458  -0.035  0.00  0.00    +0.180 C 
BRANCH   7   9
ATOM      8  C   LIG    1       -0.925   0.960  -1.084  0.00  0.00    +0.030 C 
ATOM      9  C   LIG    1       -0.043   0.724   0.144  0.00  0.00    +0.030 C 
BRANCH   9  10
ATOM     10  C   LIG    1       -0.742   1.245   1.373  0.00  0.00    -0.090 A 
ATOM     11  C   LIG    1       -1.079   2.583   1.461  0.00  0.00    +0.050 A 
ATOM     12  C   LIG    1       -1.725   3.061   2.585  0.00  0.00    -0.010 A 
ATOM     13  C   LIG    1       -2.025   2.201   3.628  0.00  0.00    +0.090 A 
ATOM     14  C   LIG    1       -1.683   0.862   3.541  0.00  0.00    -0.010 A 
ATOM     15  F   LIG    1       -2.652   2.668   4.730  0.00  0.00    -0.140 F 
ATOM     16  C   LIG    1       -1.042   0.386   2.414  0.00  0.00    +0.040 A 
ENDBRANCH   9  10
ENDBRANCH   7   9
ENDBRANCH   1   7
BRANCH   4  17
ATOM     17  C   LIG    1        5.022  -0.881  -3.569  0.00  0.00    +0.210 C 
BRANCH  17  18
ATOM     18  C   LIG    1        6.334  -0.160  -3.743  0.00  0.00    +0.520 C 
ATOM     19  N   LIG    1        7.125  -0.445  -4.796  0.00  0.00    -0.620 N 
ATOM     20  C   LIG    1        6.732  -1.461  -5.785  0.00  0.00    +0.240 C 
ATOM     21  C   LIG    1        6.866  -0.843  -7.186  0.00  0.00    +0.220 C 
ATOM     22  O   LIG    1        8.176  -0.289  -7.332  0.00  0.00    -0.380 OA
ATOM     23  C   LIG    1        8.465   0.777  -6.424  0.00  0.00    +0.220 C 
ATOM     24  C   LIG    1        8.411   0.245  -4.987  0.00  0.00    +0.260 C 
ATOM     25  O   LIG    1        6.678   0.677  -2.936  0.00  0.00    -0.520 OA
ENDBRANCH  17  18
ENDBRANCH   4  17
TORSDOF 5
