REMARK  Name = ZINCrH000004jzzB.0
REMARK                            x       y       z     vdW  Elec       q    Type
REMARK                         _______ _______ _______ _____ _____    ______ ____
ROOT
ATOM      1  C   LIG    1       -0.416   2.230  -0.597  0.00  0.00    -0.160 A 
ATOM      2  C   LIG    1        0.711   2.957  -0.982  0.00  0.00    +0.110 A 
ATOM      3  C   LIG    1        1.968   2.415  -0.815  0.00  0.00    +0.010 A 
ATOM      4  C   LIG    1        2.113   1.153  -0.267  0.00  0.00    +0.160 A 
ATOM      5  C   LIG    1        1.000   0.426   0.117  0.00  0.00    -0.690 A 
ATOM      6  C   LIG    1       -0.263   0.957  -0.045  0.00  0.00    +0.200 A 
ENDROOT
BRANCH   1   9
ATOM      7  C   LIG    1       -0.778   5.027  -0.686  0.00  0.00    +0.320 C 
ATOM      8  N   LIG    1       -1.926   4.137  -0.875  0.00  0.00    -0.550 N 
ATOM      9  C   LIG    1       -1.767   2.802  -0.779  0.00  0.00    +0.560 C 
ATOM     10  O   LIG    1       -2.735   2.068  -0.843  0.00  0.00    -0.500 OA
BRANCH   8  11
ATOM     11  C   LIG    1       -3.188   4.673  -1.153  0.00  0.00    +0.150 A 
ATOM     12  C   LIG    1       -4.300   3.842  -1.207  0.00  0.00    +0.010 A 
ATOM     13  C   LIG    1       -5.545   4.375  -1.477  0.00  0.00    +0.030 A 
ATOM     14  C   LIG    1       -5.684   5.733  -1.704  0.00  0.00    -0.020 A 
ATOM     15  C   LIG    1       -4.577   6.561  -1.656  0.00  0.00    +0.030 A 
ATOM     16  C   LIG    1       -3.330   6.035  -1.382  0.00  0.00    -0.030 A 
ENDBRANCH   8  11
ENDBRANCH   1   9
BRANCH   5  17
ATOM     17  S   LIG    1        1.196  -1.180   0.814  0.00  0.00    +2.690 S 
ATOM     18  O   LIG    1        0.029  -1.427   1.586  0.00  0.00    -0.940 OA
ATOM     19  O   LIG    1        2.509  -1.225   1.355  0.00  0.00    -0.940 OA
BRANCH  17  20
ATOM     20  N   LIG    1        1.168  -2.264  -0.437  0.00  0.00    -0.950 N 
ATOM     21  C   LIG    1        2.423  -2.718  -1.041  0.00  0.00    +0.320 C 
BRANCH  20  22
ATOM     22  C   LIG    1       -0.052  -2.746  -0.916  0.00  0.00    +0.130 A 
ATOM     23  C   LIG    1       -0.931  -3.394  -0.057  0.00  0.00    +0.030 A 
ATOM     24  C   LIG    1       -2.138  -3.865  -0.534  0.00  0.00    +0.030 A 
ATOM     25  C   LIG    1       -2.469  -3.701  -1.866  0.00  0.00    +0.020 A 
ATOM     26  C   LIG    1       -1.594  -3.062  -2.725  0.00  0.00    +0.020 A 
ATOM     27  C   LIG    1       -0.387  -2.583  -2.255  0.00  0.00    +0.010 A 
ENDBRANCH  20  22
ENDBRANCH  17  20
ENDBRANCH   5  17
TORSDOF 5
