REMARK  Name = ZINCrD0000074oAh.0
REMARK                            x       y       z     vdW  Elec       q    Type
REMARK                         _______ _______ _______ _____ _____    ______ ____
ROOT
ATOM      1  C   LIG    1       -2.826  -2.585   0.015  0.00  0.00    +0.470 C 
ATOM      2  O   LIG    1       -3.755  -1.812   0.028  0.00  0.00    -0.500 OA
ENDROOT
BRANCH   1   3
ATOM      3  O   LIG    1       -3.054  -3.908   0.010  0.00  0.00    -0.340 OA
BRANCH   3   4
ATOM      4  C   LIG    1       -4.440  -4.339   0.021  0.00  0.00    +0.400 C 
BRANCH   4  11
ATOM      5  C   LIG    1       -5.067 -12.071  -0.014  0.00  0.00    +0.170 C 
ATOM      6  C   LIG    1       -4.585 -10.643  -0.011  0.00  0.00    +0.200 A 
ATOM      7  C   LIG    1       -3.235 -10.362  -0.022  0.00  0.00    -0.110 A 
ATOM      8  C   LIG    1       -2.814  -9.032  -0.019  0.00  0.00    +0.540 A 
ATOM      9  N   LIG    1       -3.739  -8.029  -0.005  0.00  0.00    -0.370 N 
ATOM     10  N   LIG    1       -3.503  -6.659  -0.000  0.00  0.00    -0.200 NA
ATOM     11  C   LIG    1       -4.499  -5.844   0.014  0.00  0.00    +0.090 A 
ATOM     12  S   LIG    1       -5.953  -6.857   0.030  0.00  0.00    +0.180 S 
ATOM     13  C   LIG    1       -5.053  -8.383   0.005  0.00  0.00    +0.300 A 
ATOM     14  O   LIG    1       -1.622  -8.766  -0.029  0.00  0.00    -0.500 OA
ATOM     15  N   LIG    1       -5.454  -9.640   0.003  0.00  0.00    -0.490 NA
ENDBRANCH   4  11
ENDBRANCH   3   4
ENDBRANCH   1   3
BRANCH   1  16
ATOM     16  C   LIG    1       -1.413  -2.063   0.004  0.00  0.00    +0.130 C 
BRANCH  16  17
ATOM     17  C   LIG    1       -1.433  -0.534   0.013  0.00  0.00    +0.070 C 
BRANCH  17  18
ATOM     18  C   LIG    1        0.002  -0.004   0.002  0.00  0.00    +0.200 C 
BRANCH  18  19
ATOM     19  O   LIG    1       -0.017   1.425   0.010  0.00  0.00    -0.310 OA
BRANCH  19  20
ATOM     20  C   LIG    1        1.185   2.058   0.002  0.00  0.00    +0.130 A 
ATOM     21  C   LIG    1        2.359   1.320  -0.013  0.00  0.00    -0.050 A 
ATOM     22  C   LIG    1        3.580   1.965  -0.022  0.00  0.00    +0.060 A 
ATOM     23  C   LIG    1        3.633   3.348  -0.016  0.00  0.00    -0.070 A 
ATOM     24  C   LIG    1        2.463   4.087  -0.001  0.00  0.00    +0.070 A 
ATOM     25 CL   LIG    1        5.169   4.157  -0.026  0.00  0.00    -0.070 Cl
ATOM     26  C   LIG    1        1.240   3.445   0.003  0.00  0.00    -0.100 A 
ATOM     27  C   LIG    1       -0.034   4.250   0.013  0.00  0.00    +0.100 C 
ENDBRANCH  19  20
ENDBRANCH  18  19
ENDBRANCH  17  18
ENDBRANCH  16  17
ENDBRANCH   1  16
TORSDOF 8
