REMARK  Name = ZINCvU0000000Ckf.0
REMARK                            x       y       z     vdW  Elec       q    Type
REMARK                         _______ _______ _______ _____ _____    ______ ____
ROOT
ATOM      1  C   LIG    1        1.200   0.445  -3.005  0.00  0.00    +0.220 A 
ATOM      2  C   LIG    1        1.026   0.507  -4.380  0.00  0.00    -0.060 A 
ATOM      3  C   LIG    1        2.056   0.139  -5.223  0.00  0.00    +0.130 A 
ATOM      4  C   LIG    1        3.264  -0.294  -4.695  0.00  0.00    +0.090 A 
ATOM      5  C   LIG    1        3.439  -0.351  -3.319  0.00  0.00    +0.140 A 
ATOM      6  C   LIG    1        2.408   0.013  -2.476  0.00  0.00    -0.690 A 
ENDROOT
BRANCH   4   7
ATOM      7  N   LIG    1        4.309  -0.668  -5.550  0.00  0.00    -0.660 N 
ATOM      8  H   LIG    1        4.928  -1.365  -5.284  0.00  0.00    +0.420 HD
ATOM      9  C   LIG    1        4.454  -0.058  -6.744  0.00  0.00    +0.530 C 
ATOM     10  O   LIG    1        3.741   0.878  -7.037  0.00  0.00    -0.500 OA
BRANCH   9  11
ATOM     11  C   LIG    1        5.502  -0.540  -7.713  0.00  0.00    +0.090 C 
BRANCH  11  12
ATOM     12  S   LIG    1        5.448   0.476  -9.216  0.00  0.00    -0.010 S 
BRANCH  12  13
ATOM     13  C   LIG    1        6.721  -0.224 -10.213  0.00  0.00    -0.100 A 
ATOM     14  C   LIG    1        7.465  -1.298  -9.740  0.00  0.00    +0.000 A 
ATOM     15  C   LIG    1        8.459  -1.847 -10.526  0.00  0.00    +0.050 A 
ATOM     16  C   LIG    1        8.721  -1.322 -11.779  0.00  0.00    -0.040 A 
ATOM     17  C   LIG    1        7.985  -0.249 -12.251  0.00  0.00    +0.050 A 
ATOM     18 CL   LIG    1        9.976  -2.010 -12.762  0.00  0.00    -0.060 Cl
ATOM     19  C   LIG    1        6.987   0.301 -11.472  0.00  0.00    +0.050 A 
ENDBRANCH  12  13
ENDBRANCH  11  12
ENDBRANCH   9  11
ENDBRANCH   4   7
BRANCH   6  20
ATOM     20  S   LIG    1        2.627  -0.064  -0.730  0.00  0.00    +2.700 S 
ATOM     21  O   LIG    1        1.463  -0.688  -0.206  0.00  0.00    -0.930 OA
ATOM     22  O   LIG    1        3.940  -0.562  -0.512  0.00  0.00    -0.950 OA
BRANCH  20  23
ATOM     23  N   LIG    1        2.618   1.492  -0.165  0.00  0.00    -1.060 N 
ATOM     24  H   LIG    1        3.419   1.869   0.232  0.00  0.00    +0.430 HD
BRANCH  23  25
ATOM     25  C   LIG    1        1.457   2.264  -0.261  0.00  0.00    +0.150 A 
ATOM     26  C   LIG    1        0.332   1.922   0.478  0.00  0.00    +0.070 A 
ATOM     27  C   LIG    1       -0.817   2.683   0.376  0.00  0.00    +0.030 A 
ATOM     28  C   LIG    1       -0.844   3.790  -0.451  0.00  0.00    +0.030 A 
ATOM     29  C   LIG    1        0.275   4.134  -1.188  0.00  0.00    +0.030 A 
ATOM     30  C   LIG    1        1.425   3.375  -1.096  0.00  0.00    -0.030 A 
ATOM     31 CL   LIG    1        2.829   3.807  -2.021  0.00  0.00    -0.060 Cl
ENDBRANCH  23  25
ENDBRANCH  20  23
ENDBRANCH   6  20
BRANCH   1  33
ATOM     32  C   LIG    1       -1.030   1.244  -2.787  0.00  0.00    +0.250 C 
ATOM     33  O   LIG    1        0.186   0.809  -2.175  0.00  0.00    -0.300 OA
ENDBRANCH   1  33
TORSDOF 8
