REMARK  Name = ZINCpk00000KfLG1.0
REMARK                            x       y       z     vdW  Elec       q    Type
REMARK                         _______ _______ _______ _____ _____    ______ ____
ROOT
ATOM      1  N   LIG    1       -5.237   1.436   4.059  0.00  0.00    -0.730 N 
ATOM      2  H   LIG    1       -5.309   0.470   4.008  0.00  0.00    +0.400 HD
ATOM      3  C   LIG    1       -4.026   2.015   4.191  0.00  0.00    +0.710 C 
ATOM      4  N   LIG    1       -2.917   1.251   4.250  0.00  0.00    -0.730 N 
ATOM      5  H   LIG    1       -2.990   0.285   4.198  0.00  0.00    +0.390 HD
ATOM      6  O   LIG    1       -3.935   3.225   4.256  0.00  0.00    -0.600 OA
ENDROOT
BRANCH   1   7
ATOM      7  C   LIG    1       -6.442   2.266   3.995  0.00  0.00    +0.290 C 
BRANCH   7   9
ATOM      8  C   LIG    1       -7.883   0.463   4.953  0.00  0.00    +0.040 C 
ATOM      9  C   LIG    1       -7.661   1.376   3.745  0.00  0.00    +0.130 C 
BRANCH   9  10
ATOM     10  N   LIG    1       -7.432   0.557   2.547  0.00  0.00    -0.530 NA
ATOM     11  C   LIG    1       -7.166   1.402   1.374  0.00  0.00    +0.150 C 
ATOM     12  C   LIG    1       -6.875   0.510   0.165  0.00  0.00    +0.190 C 
ATOM     13  O   LIG    1       -7.978  -0.376  -0.045  0.00  0.00    -0.380 OA
ATOM     14  C   LIG    1       -8.264  -1.215   1.078  0.00  0.00    +0.160 C 
ATOM     15  C   LIG    1       -9.476  -2.094   0.763  0.00  0.00    +0.050 C 
ATOM     16  C   LIG    1       -5.607  -0.305   0.425  0.00  0.00    +0.020 C 
ATOM     17  C   LIG    1       -8.569  -0.340   2.297  0.00  0.00    +0.150 C 
ENDBRANCH   9  10
ENDBRANCH   7   9
ENDBRANCH   1   7
BRANCH   4  18
ATOM     18  C   LIG    1       -1.602   1.880   4.392  0.00  0.00    +0.350 C 
BRANCH  18  19
ATOM     19  C   LIG    1       -0.537   0.814   4.433  0.00  0.00    -0.130 A 
ATOM     20  C   LIG    1        0.047   0.453   5.633  0.00  0.00    +0.090 A 
ATOM     21  C   LIG    1        1.028  -0.530   5.624  0.00  0.00    -0.040 A 
ATOM     22  C   LIG    1        1.385  -1.117   4.427  0.00  0.00    +0.280 A 
ATOM     23  N   LIG    1        0.806  -0.756   3.297  0.00  0.00    -0.510 NA
ATOM     24  C   LIG    1       -0.133   0.176   3.265  0.00  0.00    +0.310 A 
BRANCH  24  25
ATOM     25  N   LIG    1       -0.716   0.526   2.052  0.00  0.00    -0.490 N 
ATOM     26  C   LIG    1        0.259   1.180   1.169  0.00  0.00    +0.220 C 
ATOM     27  C   LIG    1       -1.314  -0.646   1.399  0.00  0.00    +0.200 C 
ENDBRANCH  24  25
ENDBRANCH  18  19
ENDBRANCH   4  18
TORSDOF 6
