REMARK  Name = ZINCrD00000748gZ.0
REMARK                            x       y       z     vdW  Elec       q    Type
REMARK                         _______ _______ _______ _____ _____    ______ ____
ROOT
ATOM      1  C   LIG    1       -0.202   1.624  -1.011  0.00  0.00    +0.510 C 
ATOM      2  N   LIG    1       -1.108   1.727  -0.018  0.00  0.00    -0.670 N 
ATOM      3  H   LIG    1       -0.913   2.270   0.762  0.00  0.00    +0.420 HD
ATOM      4  O   LIG    1       -0.386   0.845  -1.922  0.00  0.00    -0.510 OA
ENDROOT
BRANCH   2   5
ATOM      5  C   LIG    1       -2.330   1.050  -0.113  0.00  0.00    +0.140 A 
ATOM      6  C   LIG    1       -3.469   1.588   0.472  0.00  0.00    +0.010 A 
ATOM      7  C   LIG    1       -4.675   0.923   0.373  0.00  0.00    +0.040 A 
ATOM      8  C   LIG    1       -4.747  -0.288  -0.300  0.00  0.00    +0.070 A 
ATOM      9  C   LIG    1       -3.609  -0.828  -0.880  0.00  0.00    +0.010 A 
ATOM     10  C   LIG    1       -2.403  -0.162  -0.787  0.00  0.00    +0.040 A 
BRANCH   8  11
ATOM     11  O   LIG    1       -5.934  -0.945  -0.392  0.00  0.00    -0.260 OA
BRANCH  11  12
ATOM     12  C   LIG    1       -6.543  -0.994  -1.606  0.00  0.00    +0.120 A 
ATOM     13  C   LIG    1       -6.035  -0.262  -2.670  0.00  0.00    -0.060 A 
ATOM     14  C   LIG    1       -6.654  -0.318  -3.903  0.00  0.00    +0.050 A 
ATOM     15  C   LIG    1       -7.785  -1.094  -4.076  0.00  0.00    -0.020 A 
ATOM     16  C   LIG    1       -8.296  -1.820  -3.017  0.00  0.00    +0.050 A 
ATOM     17  C   LIG    1       -7.679  -1.772  -1.782  0.00  0.00    -0.020 A 
ENDBRANCH  11  12
ENDBRANCH   8  11
ENDBRANCH   2   5
BRANCH   1  19
ATOM     18  C   LIG    1        0.637   3.958  -1.001  0.00  0.00    +0.060 C 
ATOM     19  C   LIG    1        1.038   2.481  -0.991  0.00  0.00    +0.250 C 
BRANCH  19  20
ATOM     20  N   LIG    1        1.852   2.188  -2.173  0.00  0.00    -0.720 N 
ATOM     21  H   LIG    1        1.436   1.831  -2.973  0.00  0.00    +0.410 HD
ATOM     22  C   LIG    1        3.181   2.415  -2.150  0.00  0.00    +0.530 C 
ATOM     23  O   LIG    1        3.702   2.862  -1.149  0.00  0.00    -0.530 OA
BRANCH  22  24
ATOM     24  C   LIG    1        4.019   2.114  -3.365  0.00  0.00    -0.010 C 
ATOM     25  C   LIG    1        3.914   0.624  -3.703  0.00  0.00    +0.010 C 
ATOM     26  C   LIG    1        4.829   0.312  -4.890  0.00  0.00    +0.210 C 
ATOM     27  O   LIG    1        6.170   0.685  -4.567  0.00  0.00    -0.380 OA
ATOM     28  C   LIG    1        6.337   2.077  -4.288  0.00  0.00    +0.210 C 
ATOM     29  C   LIG    1        5.483   2.459  -3.077  0.00  0.00    +0.020 C 
ENDBRANCH  22  24
ENDBRANCH  19  20
ENDBRANCH   1  19
TORSDOF 6
