REMARK  Name = ZINCrg00000JKhJg.0
REMARK                            x       y       z     vdW  Elec       q    Type
REMARK                         _______ _______ _______ _____ _____    ______ ____
ROOT
ATOM      1  C   LIG    1        2.576   2.400  -2.225  0.00  0.00    +0.510 C 
ATOM      2  N   LIG    1        2.074   1.615  -1.251  0.00  0.00    -0.610 N 
ATOM      3  C   LIG    1        2.239   0.156  -1.306  0.00  0.00    +0.260 C 
ATOM      4  C   LIG    1        0.862  -0.501  -1.173  0.00  0.00    +0.030 C 
ATOM      5  C   LIG    1        0.180   0.006   0.099  0.00  0.00    +0.030 C 
ATOM      6  C   LIG    1       -0.015   1.521   0.006  0.00  0.00    +0.110 C 
ATOM      7  C   LIG    1        1.352   2.202  -0.114  0.00  0.00    +0.330 C 
ATOM      8  O   LIG    1        2.433   3.603  -2.168  0.00  0.00    -0.500 OA
ENDROOT
BRANCH   6   9
ATOM      9  C   LIG    1       -0.716   2.016   1.246  0.00  0.00    +0.510 C 
ATOM     10  N   LIG    1       -1.385   3.185   1.220  0.00  0.00    -0.610 N 
ATOM     11  C   LIG    1       -1.594   4.028   0.034  0.00  0.00    +0.270 C 
ATOM     12  C   LIG    1       -2.388   5.270   0.487  0.00  0.00    +0.020 C 
ATOM     13  C   LIG    1       -2.085   5.337   2.008  0.00  0.00    +0.040 C 
ATOM     14  C   LIG    1       -2.024   3.835   2.379  0.00  0.00    +0.250 C 
ATOM     15  O   LIG    1       -0.678   1.361   2.266  0.00  0.00    -0.530 OA
ENDBRANCH   6   9
BRANCH   6  16
ATOM     16  O   LIG    1       -0.805   1.831  -1.144  0.00  0.00    -0.530 OA
ATOM     17  H   LIG    1       -1.653   1.367  -1.176  0.00  0.00    +0.380 HD
ENDBRANCH   6  16
BRANCH   1  18
ATOM     18  C   LIG    1        3.314   1.784  -3.385  0.00  0.00    +0.090 C 
BRANCH  18  29
ATOM     19  O   LIG    1        1.700   4.161  -4.423  0.00  0.00    -0.460 OA
ATOM     20  C   LIG    1        2.585   3.557  -4.990  0.00  0.00    +0.530 C 
ATOM     21  N   LIG    1        2.693   3.357  -6.315  0.00  0.00    -0.670 N 
ATOM     22  H   LIG    1        2.054   3.687  -6.965  0.00  0.00    +0.410 HD
ATOM     23  C   LIG    1        3.831   2.621  -6.647  0.00  0.00    +0.150 A 
ATOM     24  C   LIG    1        4.314   2.198  -7.883  0.00  0.00    -0.010 A 
ATOM     25  C   LIG    1        5.482   1.468  -7.958  0.00  0.00    +0.050 A 
ATOM     26  C   LIG    1        6.182   1.150  -6.809  0.00  0.00    -0.010 A 
ATOM     27  C   LIG    1        5.709   1.566  -5.577  0.00  0.00    +0.070 A 
ATOM     28  C   LIG    1        4.544   2.295  -5.499  0.00  0.00    -0.140 A 
ATOM     29  C   LIG    1        3.776   2.886  -4.340  0.00  0.00    +0.070 C 
ENDBRANCH  18  29
ENDBRANCH   1  18
TORSDOF 4
