REMARK  Name = ZINCpk00000y6x5c.0
REMARK                            x       y       z     vdW  Elec       q    Type
REMARK                         _______ _______ _______ _____ _____    ______ ____
ROOT
ATOM      1  C   LIG    1        0.568   4.671  -1.700  0.00  0.00    +0.000 C 
ATOM      2  C   LIG    1       -0.672   4.075  -2.378  0.00  0.00    +0.060 C 
ATOM      3  C   LIG    1       -0.551   2.551  -2.362  0.00  0.00    +0.090 C 
ATOM      4  C   LIG    1        0.807   2.139  -2.851  0.00  0.00    +0.520 C 
ATOM      5  N   LIG    1        1.848   2.970  -2.921  0.00  0.00    -0.590 N 
ATOM      6  C   LIG    1        3.131   2.427  -3.376  0.00  0.00    +0.280 C 
ATOM      7  O   LIG    1        0.966   0.989  -3.204  0.00  0.00    -0.550 OA
ATOM      8  C   LIG    1        1.789   4.384  -2.575  0.00  0.00    +0.360 C 
ENDROOT
BRANCH   8   9
ATOM      9  C   LIG    1        3.039   4.766  -1.825  0.00  0.00    +0.180 A 
ATOM     10  N   LIG    1        3.581   4.084  -0.853  0.00  0.00    -0.480 NA
ATOM     11  C   LIG    1        4.682   4.721  -0.426  0.00  0.00    +0.140 A 
ATOM     12  C   LIG    1        4.823   5.844  -1.156  0.00  0.00    +0.120 A 
ATOM     13  N   LIG    1        3.781   5.873  -2.044  0.00  0.00    -0.430 N 
ATOM     14  C   LIG    1        3.520   6.911  -3.044  0.00  0.00    +0.340 C 
ENDBRANCH   8   9
BRANCH   1  17
ATOM     15  N   LIG    1       -0.623   6.647  -0.809  0.00  0.00    -0.730 N 
ATOM     16  H   LIG    1       -1.246   6.039  -0.380  0.00  0.00    +0.400 HD
ATOM     17  C   LIG    1        0.396   6.160  -1.544  0.00  0.00    +0.530 C 
ATOM     18  O   LIG    1        1.175   6.920  -2.080  0.00  0.00    -0.530 OA
BRANCH  15  19
ATOM     19  C   LIG    1       -0.789   8.095  -0.656  0.00  0.00    +0.270 C 
BRANCH  19  20
ATOM     20  C   LIG    1       -2.012   8.378   0.219  0.00  0.00    +0.000 C 
BRANCH  20  21
ATOM     21  C   LIG    1       -2.118   9.883   0.476  0.00  0.00    +0.090 C 
ATOM     22  C   LIG    1       -3.463  10.310   1.086  0.00  0.00    +0.000 C 
ATOM     23  C   LIG    1       -3.402  11.537   0.158  0.00  0.00    +0.010 C 
ATOM     24  C   LIG    1       -2.511  10.694  -0.770  0.00  0.00    +0.040 C 
BRANCH  21  26
ATOM     25  C   LIG    1       -0.826   9.904   2.495  0.00  0.00    +0.200 C 
ATOM     26  O   LIG    1       -0.983  10.408   1.167  0.00  0.00    -0.360 OA
ENDBRANCH  21  26
ENDBRANCH  20  21
ENDBRANCH  19  20
ENDBRANCH  15  19
ENDBRANCH   1  17
TORSDOF 6
