REMARK  Name = ZINCpk00000e9y3j.0
REMARK                            x       y       z     vdW  Elec       q    Type
REMARK                         _______ _______ _______ _____ _____    ______ ____
ROOT
ATOM      1  N   LIG    1        4.600   5.648  -0.703  0.00  0.00    -0.530 NA
ATOM      2  C   LIG    1        3.283   6.286  -0.835  0.00  0.00    +0.170 C 
ATOM      3  C   LIG    1        2.334   5.714   0.223  0.00  0.00    +0.300 C 
ATOM      4  N   LIG    1        2.330   4.248   0.104  0.00  0.00    -0.610 N 
ATOM      5  C   LIG    1        3.623   3.547   0.097  0.00  0.00    +0.290 C 
ATOM      6  C   LIG    1        1.172   3.565   0.009  0.00  0.00    +0.560 C 
ATOM      7  O   LIG    1        0.118   4.164  -0.084  0.00  0.00    -0.530 OA
ATOM      8  C   LIG    1        4.521   4.205  -0.963  0.00  0.00    +0.170 C 
ENDROOT
BRANCH   6   9
ATOM      9  C   LIG    1        1.183   2.087   0.020  0.00  0.00    -0.120 A 
ATOM     10  C   LIG    1        0.328   1.373  -0.823  0.00  0.00    +0.080 A 
ATOM     11  C   LIG    1        0.344  -0.006  -0.808  0.00  0.00    +0.030 A 
ATOM     12  C   LIG    1        1.205  -0.682   0.037  0.00  0.00    -0.100 A 
ATOM     13  C   LIG    1        2.055   0.018   0.874  0.00  0.00    +0.030 A 
ATOM     14  C   LIG    1        2.049   1.398   0.871  0.00  0.00    +0.050 A 
BRANCH  12  15
ATOM     15  C   LIG    1        1.217  -2.189   0.047  0.00  0.00    +0.350 C 
BRANCH  15  16
ATOM     16  N   LIG    1        2.189  -2.676  -0.935  0.00  0.00    -0.460 N 
ATOM     17  C   LIG    1        3.514  -2.935  -0.706  0.00  0.00    +0.120 A 
ATOM     18  C   LIG    1        4.034  -3.361  -1.873  0.00  0.00    +0.140 A 
ATOM     19  N   LIG    1        3.054  -3.363  -2.788  0.00  0.00    -0.490 NA
ATOM     20  C   LIG    1        1.945  -2.959  -2.232  0.00  0.00    +0.380 A 
ENDBRANCH  15  16
ENDBRANCH  12  15
ENDBRANCH   6   9
BRANCH   1  21
ATOM     21  C   LIG    1        5.586   6.289  -1.583  0.00  0.00    +0.140 C 
BRANCH  21  22
ATOM     22  C   LIG    1        6.867   5.453  -1.608  0.00  0.00    +0.200 C 
BRANCH  22  24
ATOM     23  C   LIG    1        9.127   5.223  -2.649  0.00  0.00    +0.010 C 
ATOM     24  C   LIG    1        7.894   6.120  -2.525  0.00  0.00    -0.020 C 
ENDBRANCH  22  24
BRANCH  22  25
ATOM     25  O   LIG    1        7.400   5.359  -0.285  0.00  0.00    -0.550 OA
ATOM     26  H   LIG    1        7.624   6.212   0.110  0.00  0.00    +0.380 HD
ENDBRANCH  22  25
ENDBRANCH  21  22
ENDBRANCH   1  21
TORSDOF 7
