REMARK  Name = ZINCrH000004uZ7i.0
REMARK                            x       y       z     vdW  Elec       q    Type
REMARK                         _______ _______ _______ _____ _____    ______ ____
ROOT
ATOM      1  O   LIG    1        1.249   3.287   2.323  0.00  0.00    -0.490 OA
ATOM      2  C   LIG    1        1.394   3.970   1.327  0.00  0.00    +0.600 C 
ATOM      3  N   LIG    1        1.439   3.389   0.112  0.00  0.00    -0.710 N 
ATOM      4  H   LIG    1        1.480   3.938  -0.687  0.00  0.00    +0.410 HD
ENDROOT
BRANCH   3   5
ATOM      5  C   LIG    1        1.425   1.929  -0.003  0.00  0.00    +0.220 C 
ATOM      6  C   LIG    1       -0.022   1.421   0.021  0.00  0.00    +0.240 C 
ATOM      7  O   LIG    1        0.001  -0.007   0.012  0.00  0.00    -0.300 OA
ATOM      8  C   LIG    1        0.779  -0.624  -0.915  0.00  0.00    +0.140 A 
ATOM      9  C   LIG    1        0.549  -1.968  -1.187  0.00  0.00    +0.010 A 
ATOM     10  C   LIG    1        1.322  -2.631  -2.119  0.00  0.00    +0.060 A 
ATOM     11  C   LIG    1        2.328  -1.958  -2.786  0.00  0.00    +0.020 A 
ATOM     12  C   LIG    1        2.558  -0.621  -2.521  0.00  0.00    -0.060 A 
ATOM     13 BR   LIG    1        3.935   0.296  -3.436  0.00  0.00    -0.040 Br
ATOM     14  C   LIG    1        1.785   0.049  -1.587  0.00  0.00    -0.130 A 
ATOM     15  C   LIG    1        2.060   1.510  -1.331  0.00  0.00    +0.100 C 
ENDBRANCH   3   5
BRANCH   2  16
ATOM     16  C   LIG    1        1.521   5.427   1.449  0.00  0.00    -0.010 A 
ATOM     17  C   LIG    1        0.504   6.330   1.604  0.00  0.00    -0.030 A 
ATOM     18  N   LIG    1        1.047   7.547   1.677  0.00  0.00    -0.450 NA
ATOM     19  C   LIG    1        2.345   7.458   1.568  0.00  0.00    +0.250 A 
ATOM     20  C   LIG    1        3.342   8.593   1.594  0.00  0.00    +0.170 C 
ATOM     21  C   LIG    1        4.736   8.001   1.839  0.00  0.00    +0.040 C 
ATOM     22  C   LIG    1        4.963   6.831   0.877  0.00  0.00    +0.040 C 
ATOM     23  C   LIG    1        4.053   5.663   1.271  0.00  0.00    +0.290 C 
ATOM     24  N   LIG    1        2.684   6.160   1.424  0.00  0.00    -0.420 N 
BRANCH  17  25
ATOM     25  C   LIG    1       -0.966   6.008   1.681  0.00  0.00    +0.550 C 
ATOM     26  F   LIG    1       -1.230   4.856   0.933  0.00  0.00    -0.170 F 
ATOM     27  F   LIG    1       -1.706   7.078   1.168  0.00  0.00    -0.160 F 
ATOM     28  F   LIG    1       -1.325   5.789   3.016  0.00  0.00    -0.170 F 
ENDBRANCH  17  25
ENDBRANCH   2  16
TORSDOF 3
