REMARK  Name = ZINCqH0000000kkM.0
REMARK                            x       y       z     vdW  Elec       q    Type
REMARK                         _______ _______ _______ _____ _____    ______ ____
ROOT
ATOM      1  C   LIG    1       -3.627   3.361   0.035  0.00  0.00    +0.000 C 
ATOM      2  C   LIG    1       -3.323   4.100  -1.270  0.00  0.00    +0.090 C 
ENDROOT
BRANCH   1   3
ATOM      3  C   LIG    1       -5.115   3.162   0.164  0.00  0.00    +0.420 C 
ATOM      4  O   LIG    1       -5.622   2.123  -0.204  0.00  0.00    -0.440 OA
BRANCH   3   5
ATOM      5  C   LIG    1       -5.952   4.225   0.736  0.00  0.00    -0.170 A 
ATOM      6  C   LIG    1       -5.369   5.424   1.161  0.00  0.00    +0.080 A 
ATOM      7  C   LIG    1       -6.156   6.420   1.696  0.00  0.00    -0.040 A 
ATOM      8  C   LIG    1       -7.527   6.237   1.815  0.00  0.00    +0.140 A 
ATOM      9  C   LIG    1       -8.116   5.044   1.394  0.00  0.00    +0.090 A 
ATOM     10  C   LIG    1       -7.336   4.044   0.851  0.00  0.00    +0.040 A 
BRANCH   9  11
ATOM     11  O   LIG    1       -9.459   4.870   1.513  0.00  0.00    -0.300 OA
ATOM     12  C   LIG    1       -9.994   3.624   1.062  0.00  0.00    +0.240 C 
ENDBRANCH   9  11
BRANCH   8  13
ATOM     13  O   LIG    1       -8.298   7.222   2.344  0.00  0.00    -0.300 OA
ATOM     14  C   LIG    1       -7.631   8.417   2.755  0.00  0.00    +0.250 C 
ENDBRANCH   8  13
ENDBRANCH   3   5
ENDBRANCH   1   3
BRANCH   1  15
ATOM     15  S   LIG    1       -2.801   1.751   0.023  0.00  0.00    +0.050 S 
BRANCH  15  17
ATOM     16  N   LIG    1       -0.018   1.461   0.010  0.00  0.00    -0.450 N 
ATOM     17  C   LIG    1       -1.117   2.270   0.019  0.00  0.00    +0.150 A 
ATOM     18  N   LIG    1       -0.683   3.509   0.026  0.00  0.00    -0.290 NA
ATOM     19  N   LIG    1        0.603   3.521   0.014  0.00  0.00    -0.280 NA
ATOM     20  C   LIG    1        1.061   2.301   0.004  0.00  0.00    +0.220 A 
BRANCH  20  21
ATOM     21  C   LIG    1        2.511   1.893  -0.011  0.00  0.00    +0.030 C 
ATOM     22  C   LIG    1        3.557   2.991   0.192  0.00  0.00    +0.070 C 
ATOM     23  C   LIG    1        3.365   2.361  -1.190  0.00  0.00    +0.050 C 
ENDBRANCH  20  21
BRANCH  16  24
ATOM     24  C   LIG    1        0.002  -0.004   0.002  0.00  0.00    +0.340 C 
BRANCH  24  26
ATOM     25  C   LIG    1       -0.892  -1.361   1.825  0.00  0.00    +0.070 C 
ATOM     26  C   LIG    1        0.022  -0.514   1.420  0.00  0.00    -0.070 C 
ENDBRANCH  24  26
ENDBRANCH  16  24
ENDBRANCH  15  17
ENDBRANCH   1  15
TORSDOF 9
