REMARK  Name = ZINCpk00000FcV6w.0
REMARK                            x       y       z     vdW  Elec       q    Type
REMARK                         _______ _______ _______ _____ _____    ______ ____
ROOT
ATOM      1  C   LIG    1       -1.302   1.932   0.019  0.00  0.00    -0.220 A 
ATOM      2  C   LIG    1       -2.514   1.224   0.015  0.00  0.00    +0.160 A 
ATOM      3  C   LIG    1       -3.684   1.933   0.031  0.00  0.00    -0.040 A 
ATOM      4  C   LIG    1       -3.640   3.326   0.037  0.00  0.00    +0.340 A 
ATOM      5  N   LIG    1       -2.481   3.971   0.035  0.00  0.00    -0.520 NA
ATOM      6  C   LIG    1       -1.333   3.328   0.026  0.00  0.00    +0.330 A 
ENDROOT
BRANCH   4   7
ATOM      7  N   LIG    1       -4.822   4.047   0.047  0.00  0.00    -0.480 N 
ATOM      8  C   LIG    1       -5.673   3.678  -1.094  0.00  0.00    +0.190 C 
ATOM      9  C   LIG    1       -6.991   4.452  -1.011  0.00  0.00    +0.250 C 
ATOM     10  O   LIG    1       -6.713   5.854  -0.974  0.00  0.00    -0.360 OA
ATOM     11  C   LIG    1       -5.887   6.249   0.124  0.00  0.00    +0.270 C 
ATOM     12  C   LIG    1       -4.558   5.493   0.054  0.00  0.00    +0.220 C 
BRANCH  11  13
ATOM     13  C   LIG    1       -5.627   7.731   0.052  0.00  0.00    +0.170 A 
ATOM     14  N   LIG    1       -5.302   8.409  -1.015  0.00  0.00    -0.260 NA
ATOM     15  N   LIG    1       -5.157   9.650  -0.713  0.00  0.00    -0.300 NA
ATOM     16  C   LIG    1       -5.385   9.822   0.560  0.00  0.00    +0.380 A 
ATOM     17  N   LIG    1       -5.694   8.610   1.081  0.00  0.00    -0.470 N 
BRANCH  17  18
ATOM     18  C   LIG    1       -6.030   8.310   2.476  0.00  0.00    +0.310 C 
ATOM     19  C   LIG    1       -4.771   7.855   3.217  0.00  0.00    +0.040 C 
ENDBRANCH  17  18
ENDBRANCH  11  13
ENDBRANCH   4   7
BRANCH   1  22
ATOM     20  N   LIG    1        1.143   1.901   0.001  0.00  0.00    -0.730 N 
ATOM     21  H   LIG    1        1.130   2.871   0.007  0.00  0.00    +0.400 HD
ATOM     22  C   LIG    1       -0.014   1.212   0.009  0.00  0.00    +0.570 C 
ATOM     23  O   LIG    1        0.002  -0.004   0.002  0.00  0.00    -0.530 OA
BRANCH  20  24
ATOM     24  C   LIG    1        2.422   1.186  -0.015  0.00  0.00    +0.260 C 
BRANCH  24  26
ATOM     25  C   LIG    1        4.907   1.449  -0.037  0.00  0.00    +0.030 C 
ATOM     26  C   LIG    1        3.571   2.196  -0.020  0.00  0.00    +0.000 C 
ENDBRANCH  24  26
ENDBRANCH  20  24
ENDBRANCH   1  22
TORSDOF 6
