REMARK  Name = ZINCqH0000035CWE.0
REMARK                            x       y       z     vdW  Elec       q    Type
REMARK                         _______ _______ _______ _____ _____    ______ ____
ROOT
ATOM      1  C   LIG    1        4.078  -0.409   2.820  0.00  0.00    +0.070 C 
ENDROOT
BRANCH   1   2
ATOM      2  C   LIG    1        4.701  -0.996   4.088  0.00  0.00    +0.200 C 
BRANCH   2   3
ATOM      3  O   LIG    1        6.069  -0.594   4.177  0.00  0.00    -0.290 OA
BRANCH   3   9
ATOM      4  C   LIG    1        8.114  -0.682   5.397  0.00  0.00    +0.100 A 
ATOM      5  C   LIG    1        8.830  -1.124   6.493  0.00  0.00    +0.020 A 
ATOM      6  C   LIG    1        8.209  -1.932   7.449  0.00  0.00    -0.030 A 
ATOM      7  C   LIG    1        6.866  -2.285   7.295  0.00  0.00    +0.080 A 
ATOM      8  C   LIG    1        6.156  -1.836   6.202  0.00  0.00    -0.030 A 
ATOM      9  C   LIG    1        6.773  -1.033   5.253  0.00  0.00    +0.140 A 
BRANCH   4  11
ATOM     10  C   LIG    1       10.093   0.421   4.674  0.00  0.00    +0.250 C 
ATOM     11  O   LIG    1        8.717   0.100   4.462  0.00  0.00    -0.300 OA
ENDBRANCH   4  11
BRANCH   6  12
ATOM     12  C   LIG    1        8.947  -2.398   8.584  0.00  0.00    +0.250 C 
ATOM     13  N   LIG    1        9.534  -2.768   9.485  0.00  0.00    -0.410 NA
ENDBRANCH   6  12
ENDBRANCH   3   9
ENDBRANCH   2   3
ENDBRANCH   1   2
BRANCH   1  14
ATOM     14  C   LIG    1        2.613  -0.840   2.725  0.00  0.00    +0.080 C 
BRANCH  14  15
ATOM     15  C   LIG    1        1.999  -0.261   1.476  0.00  0.00    +0.530 C 
ATOM     16  N   LIG    1        0.707  -0.509   1.183  0.00  0.00    -0.550 N 
ATOM     17  C   LIG    1       -0.156  -1.288   1.960  0.00  0.00    +0.140 A 
ATOM     18  C   LIG    1        0.094  -1.957   3.159  0.00  0.00    -0.020 A 
ATOM     19  C   LIG    1       -0.906  -2.680   3.774  0.00  0.00    +0.040 A 
ATOM     20  C   LIG    1       -2.166  -2.747   3.207  0.00  0.00    -0.010 A 
ATOM     21  C   LIG    1       -2.421  -2.086   2.019  0.00  0.00    +0.060 A 
ATOM     22  C   LIG    1       -1.421  -1.361   1.400  0.00  0.00    -0.130 A 
ATOM     23  C   LIG    1       -1.427  -0.557   0.119  0.00  0.00    +0.090 C 
ATOM     24  C   LIG    1        0.002  -0.004   0.002  0.00  0.00    +0.220 C 
ATOM     25  C   LIG    1       -0.019   1.526   0.010  0.00  0.00    +0.040 C 
ATOM     26  O   LIG    1        2.668   0.428   0.735  0.00  0.00    -0.510 OA
ENDBRANCH  14  15
ENDBRANCH   1  14
TORSDOF 7
