REMARK  Name = ZINCtj0000000I5p.1
REMARK                            x       y       z     vdW  Elec       q    Type
REMARK                         _______ _______ _______ _____ _____    ______ ____
ROOT
ATOM      1  N   LIG    1        1.173   1.511   5.621  0.00  0.00    -0.370 N 
ATOM      2  C   LIG    1        0.321   2.619   6.069  0.00  0.00    +0.260 C 
ATOM      3  C   LIG    1        1.114   3.531   7.008  0.00  0.00    +0.050 C 
ATOM      4  C   LIG    1        1.579   2.721   8.222  0.00  0.00    +0.250 C 
ATOM      5  C   LIG    1        2.405   1.525   7.739  0.00  0.00    +0.070 C 
ATOM      6  C   LIG    1        1.565   0.689   6.772  0.00  0.00    +0.270 C 
ATOM      7  H   LIG    1        2.000   1.883   5.178  0.00  0.00    +0.430 HD
ENDROOT
BRANCH   4   8
ATOM      8  N   LIG    1        2.403   3.568   9.088  0.00  0.00    -0.730 N 
ATOM      9  H   LIG    1        3.369   3.561   8.998  0.00  0.00    +0.410 HD
ATOM     10  C   LIG    1        1.819   4.358  10.011  0.00  0.00    +0.570 C 
ATOM     11  O   LIG    1        0.609   4.367  10.125  0.00  0.00    -0.530 OA
BRANCH  10  12
ATOM     12  C   LIG    1        2.651   5.212  10.886  0.00  0.00    -0.150 A 
ATOM     13  C   LIG    1        4.041   5.199  10.762  0.00  0.00    +0.030 A 
ATOM     14  C   LIG    1        4.810   6.002  11.578  0.00  0.00    +0.000 A 
ATOM     15  C   LIG    1        4.208   6.811  12.524  0.00  0.00    +0.050 A 
ATOM     16  C   LIG    1        2.830   6.825  12.656  0.00  0.00    +0.020 A 
ATOM     17  C   LIG    1        2.049   6.031  11.843  0.00  0.00    +0.080 A 
ENDBRANCH  10  12
ENDBRANCH   4   8
BRANCH   1  18
ATOM     18  C   LIG    1        0.433   0.683   4.659  0.00  0.00    +0.160 C 
ATOM     19  C   LIG    1        1.309  -0.490   4.216  0.00  0.00    +0.120 C 
BRANCH  18  21
ATOM     20  N   LIG    1       -1.026   1.204   2.731  0.00  0.00    -0.580 N 
ATOM     21  C   LIG    1        0.064   1.517   3.459  0.00  0.00    +0.510 C 
ATOM     22  O   LIG    1        0.749   2.469   3.148  0.00  0.00    -0.520 OA
BRANCH  20  23
ATOM     23  C   LIG    1       -1.327   1.950   1.506  0.00  0.00    +0.270 C 
ATOM     24  C   LIG    1       -1.211   1.024   0.283  0.00  0.00    +0.060 C 
ATOM     25  C   LIG    1       -1.856   1.726  -0.929  0.00  0.00    -0.290 C 
ATOM     26  S   LIG    1       -3.126   2.833  -0.216  0.00  0.00    +2.400 S 
ATOM     27  O   LIG    1       -4.418   2.351  -0.562  0.00  0.00    -0.920 OA
ATOM     28  O   LIG    1       -2.778   4.184  -0.484  0.00  0.00    -0.920 OA
ATOM     29  C   LIG    1       -2.789   2.456   1.545  0.00  0.00    -0.320 C 
ENDBRANCH  20  23
BRANCH  20  31
ATOM     30  C   LIG    1       -2.916   0.655   4.182  0.00  0.00    +0.030 C 
ATOM     31  C   LIG    1       -1.909   0.118   3.163  0.00  0.00    +0.280 C 
ENDBRANCH  20  31
ENDBRANCH  18  21
ENDBRANCH   1  18
TORSDOF 6
