REMARK  Name = ZINCpk000000nPEe.0
REMARK                            x       y       z     vdW  Elec       q    Type
REMARK                         _______ _______ _______ _____ _____    ______ ____
ROOT
ATOM      1  N   LIG    1       -3.420   4.347  -1.112  0.00  0.00    -1.110 NA
ATOM      2  H   LIG    1       -4.043   3.901  -0.518  0.00  0.00    +0.420 HD
ENDROOT
BRANCH   1   3
ATOM      3  S   LIG    1       -3.722   5.894  -1.619  0.00  0.00    +2.690 S 
ATOM      4  O   LIG    1       -2.522   6.626  -1.413  0.00  0.00    -0.950 OA
ATOM      5  O   LIG    1       -4.968   6.268  -1.047  0.00  0.00    -0.950 OA
BRANCH   3   9
ATOM      6  C   LIG    1       -4.369   5.735  -6.096  0.00  0.00    -0.020 A 
ATOM      7  C   LIG    1       -5.441   5.587  -5.238  0.00  0.00    -0.010 A 
ATOM      8  C   LIG    1       -5.244   5.636  -3.870  0.00  0.00    +0.130 A 
ATOM      9  C   LIG    1       -3.974   5.832  -3.362  0.00  0.00    -0.690 A 
ATOM     10  C   LIG    1       -2.902   5.985  -4.221  0.00  0.00    +0.120 A 
ATOM     11  C   LIG    1       -3.098   5.932  -5.588  0.00  0.00    -0.010 A 
BRANCH   6  13
ATOM     12  C   LIG    1       -4.135   7.004  -8.214  0.00  0.00    +0.030 C 
ATOM     13  C   LIG    1       -4.584   5.682  -7.587  0.00  0.00    +0.010 C 
ATOM     14  C   LIG    1       -3.766   4.533  -8.180  0.00  0.00    +0.030 C 
ENDBRANCH   6  13
ENDBRANCH   3   9
ENDBRANCH   1   3
BRANCH   1  15
ATOM     15  C   LIG    1       -2.210   3.653  -1.560  0.00  0.00    +0.270 C 
BRANCH  15  16
ATOM     16  C   LIG    1       -1.973   2.423  -0.682  0.00  0.00    +0.020 C 
ATOM     17  C   LIG    1       -1.538   2.845   0.745  0.00  0.00    +0.050 C 
ATOM     18  C   LIG    1       -0.767   1.600   1.254  0.00  0.00    +0.040 C 
ATOM     19  C   LIG    1       -0.013   1.086   0.008  0.00  0.00    +0.060 C 
ATOM     20  C   LIG    1       -0.783   1.608  -1.207  0.00  0.00    +0.120 C 
ATOM     21  N   LIG    1       -1.231   0.512  -2.068  0.00  0.00    -0.710 N 
ATOM     22  H   LIG    1       -1.816  -0.221  -1.821  0.00  0.00    +0.440 HD
ATOM     23  C   LIG    1       -0.666   0.725  -3.274  0.00  0.00    +0.700 C 
ATOM     24  N   LIG    1        0.093   1.829  -3.293  0.00  0.00    -0.680 N 
ATOM     25  H   LIG    1        0.579   2.143  -4.072  0.00  0.00    +0.430 HD
ATOM     26  O   LIG    1       -0.827  -0.002  -4.234  0.00  0.00    -0.540 OA
ATOM     27  C   LIG    1        0.099   2.449  -2.094  0.00  0.00    +0.530 C 
ATOM     28  O   LIG    1        0.687   3.466  -1.794  0.00  0.00    -0.450 OA
ENDBRANCH  15  16
ENDBRANCH   1  15
TORSDOF 5
