REMARK  Name = ZINCpe00000gN4AJ.0
REMARK                            x       y       z     vdW  Elec       q    Type
REMARK                         _______ _______ _______ _____ _____    ______ ____
ROOT
ATOM      1  C   LIG    1        0.279  11.108  -3.347  0.00  0.00    -0.020 A 
ATOM      2  C   LIG    1        0.664  11.242  -2.012  0.00  0.00    +0.080 A 
ATOM      3  C   LIG    1        0.340  10.258  -1.103  0.00  0.00    +0.050 A 
ATOM      4  C   LIG    1       -0.367   9.137  -1.508  0.00  0.00    -0.080 A 
ATOM      5  C   LIG    1       -0.849   7.936  -0.732  0.00  0.00    +0.320 C 
ATOM      6  N   LIG    1       -1.545   7.049  -1.669  0.00  0.00    -0.620 N 
ATOM      7  C   LIG    1       -1.499   7.697  -2.984  0.00  0.00    +0.330 C 
ATOM      8  C   LIG    1       -2.122   5.867  -1.377  0.00  0.00    +0.560 C 
ATOM      9  O   LIG    1       -2.674   5.230  -2.249  0.00  0.00    -0.510 OA
ATOM     10  C   LIG    1       -0.752   8.998  -2.829  0.00  0.00    -0.100 A 
ATOM     11  C   LIG    1       -0.433   9.977  -3.750  0.00  0.00    +0.090 A 
ENDROOT
BRANCH   8  12
ATOM     12  C   LIG    1       -2.082   5.337   0.033  0.00  0.00    +0.180 C 
ATOM     13  C   LIG    1       -3.219   5.964   0.878  0.00  0.00    +0.090 C 
ATOM     14  C   LIG    1       -3.408   4.897   1.988  0.00  0.00    +0.170 C 
ATOM     15  C   LIG    1       -3.161   3.570   1.242  0.00  0.00    +0.210 C 
ATOM     16  N   LIG    1       -2.359   3.885   0.045  0.00  0.00    -0.440 N 
BRANCH  16  17
ATOM     17  C   LIG    1       -1.182   3.154   0.030  0.00  0.00    +0.350 A 
ATOM     18  C   LIG    1       -1.213   1.758   0.017  0.00  0.00    -0.080 A 
ATOM     19  C   LIG    1       -0.013   1.076   0.008  0.00  0.00    +0.340 A 
ATOM     20  N   LIG    1        1.121   1.762   0.001  0.00  0.00    -0.540 NA
ATOM     21  C   LIG    1        1.118   3.080   0.007  0.00  0.00    +0.520 A 
ATOM     22  N   LIG    1       -0.004   3.772   0.022  0.00  0.00    -0.560 NA
ENDBRANCH  16  17
BRANCH  14  23
ATOM     23  O   LIG    1       -4.738   4.943   2.511  0.00  0.00    -0.550 OA
ATOM     24  H   LIG    1       -4.931   4.248   3.154  0.00  0.00    +0.390 HD
ENDBRANCH  14  23
ENDBRANCH   8  12
BRANCH   1  26
ATOM     25  N   LIG    1        0.877  12.932  -5.053  0.00  0.00    -0.410 NA
ATOM     26  C   LIG    1        0.612  12.125  -4.298  0.00  0.00    +0.250 C 
ENDBRANCH   1  26
TORSDOF 4
