REMARK  Name = ZINCvU0000000Gb8.0
REMARK                            x       y       z     vdW  Elec       q    Type
REMARK                         _______ _______ _______ _____ _____    ______ ____
ROOT
ATOM      1  O   LIG    1        3.881   3.328   0.201  0.00  0.00    -0.520 OA
ATOM      2  C   LIG    1        4.920   3.941   0.034  0.00  0.00    +0.550 C 
ATOM      3  N   LIG    1        6.077   3.271  -0.140  0.00  0.00    -0.580 N 
ENDROOT
BRANCH   3   4
ATOM      4  C   LIG    1        6.067   1.811  -0.258  0.00  0.00    +0.200 C 
ATOM      5  C   LIG    1        4.729   1.135  -0.563  0.00  0.00    +0.050 C 
ATOM      6  C   LIG    1        5.344   1.018   0.833  0.00  0.00    +0.010 C 
ENDBRANCH   3   4
BRANCH   2   7
ATOM      7  C   LIG    1        4.913   5.403   0.023  0.00  0.00    -0.110 C 
ATOM      8  C   LIG    1        3.742   6.073   0.094  0.00  0.00    +0.160 C 
BRANCH   8   9
ATOM      9  C   LIG    1        3.735   7.541   0.083  0.00  0.00    -0.060 A 
ATOM     10  C   LIG    1        4.926   8.256  -0.001  0.00  0.00    +0.060 A 
ATOM     11  C   LIG    1        4.918   9.643  -0.011  0.00  0.00    +0.010 A 
ATOM     12  C   LIG    1        3.758  10.354   0.065  0.00  0.00    +0.050 A 
ATOM     13  C   LIG    1        2.520   9.697   0.146  0.00  0.00    -0.110 A 
ATOM     14  C   LIG    1        1.312  10.416   0.220  0.00  0.00    +0.090 A 
ATOM     15  C   LIG    1        0.145   9.708   0.302  0.00  0.00    -0.030 A 
ATOM     16  C   LIG    1        0.175   8.317   0.311  0.00  0.00    +0.300 A 
ATOM     17  N   LIG    1        1.305   7.651   0.242  0.00  0.00    -0.470 NA
ATOM     18  C   LIG    1        2.475   8.282   0.160  0.00  0.00    +0.150 A 
ENDBRANCH   8   9
ENDBRANCH   2   7
BRANCH   3  19
ATOM     19  C   LIG    1        7.343   4.003  -0.211  0.00  0.00    +0.470 C 
BRANCH  19  20
ATOM     20  C   LIG    1        7.924   4.140   1.173  0.00  0.00    +0.140 A 
ATOM     21  N   LIG    1        8.733   3.299   1.754  0.00  0.00    -0.260 NA
ATOM     22  N   LIG    1        9.030   3.731   2.929  0.00  0.00    -0.270 NA
ATOM     23  C   LIG    1        8.409   4.867   3.143  0.00  0.00    +0.210 A 
ATOM     24  O   LIG    1        7.696   5.147   2.033  0.00  0.00    -0.210 OA
BRANCH  23  25
ATOM     25  C   LIG    1        8.477   5.687   4.371  0.00  0.00    -0.020 A 
ATOM     26  C   LIG    1        7.762   6.882   4.456  0.00  0.00    +0.070 A 
ATOM     27  C   LIG    1        7.825   7.640   5.607  0.00  0.00    +0.040 A 
ATOM     28  C   LIG    1        8.605   7.223   6.672  0.00  0.00    -0.010 A 
ATOM     29  C   LIG    1        9.321   6.040   6.591  0.00  0.00    +0.040 A 
ATOM     30 CL   LIG    1        8.686   8.186   8.114  0.00  0.00    -0.050 Cl
ATOM     31  C   LIG    1        9.261   5.271   5.448  0.00  0.00    +0.100 A 
ENDBRANCH  23  25
ENDBRANCH  19  20
ENDBRANCH   3  19
TORSDOF 6
