REMARK  Name = ZINCqH00000060lr.0
REMARK                            x       y       z     vdW  Elec       q    Type
REMARK                         _______ _______ _______ _____ _____    ______ ____
ROOT
ATOM      1  N   LIG    1       -0.288   1.272  -2.443  0.00  0.00    -0.670 N 
ATOM      2  H   LIG    1        0.547   0.789  -2.544  0.00  0.00    +0.420 HD
ATOM      3  C   LIG    1       -0.743   1.583  -1.213  0.00  0.00    +0.530 C 
ATOM      4  O   LIG    1       -1.742   2.259  -1.088  0.00  0.00    -0.490 OA
ENDROOT
BRANCH   1   9
ATOM      5  C   LIG    1       -2.450   3.212  -4.715  0.00  0.00    -0.110 A 
ATOM      6  C   LIG    1       -2.470   2.373  -5.830  0.00  0.00    +0.070 A 
ATOM      7  C   LIG    1       -1.771   1.183  -5.811  0.00  0.00    +0.030 A 
ATOM      8  C   LIG    1       -1.044   0.821  -4.693  0.00  0.00    +0.030 A 
ATOM      9  C   LIG    1       -1.022   1.647  -3.575  0.00  0.00    +0.130 A 
ATOM     10  C   LIG    1       -1.721   2.843  -3.583  0.00  0.00    +0.100 A 
BRANCH   5  11
ATOM     11  C   LIG    1       -3.198   4.486  -4.731  0.00  0.00    +0.510 C 
ATOM     12  O   LIG    1       -3.179   5.214  -3.760  0.00  0.00    -0.500 OA
BRANCH  11  14
ATOM     13  C   LIG    1       -4.612   6.104  -5.771  0.00  0.00    +0.290 C 
ATOM     14  O   LIG    1       -3.901   4.839  -5.825  0.00  0.00    -0.350 OA
ENDBRANCH  11  14
ENDBRANCH   5  11
ENDBRANCH   1   9
BRANCH   3  15
ATOM     15  C   LIG    1       -0.009   1.091   0.008  0.00  0.00    +0.120 C 
BRANCH  15  16
ATOM     16  S   LIG    1       -0.861   1.672   1.501  0.00  0.00    -0.170 S 
BRANCH  16  17
ATOM     17  C   LIG    1        0.154   0.990   2.841  0.00  0.00    +0.120 C 
ATOM     18  C   LIG    1        1.544   1.629   2.803  0.00  0.00    +0.080 C 
BRANCH  17  19
ATOM     19  C   LIG    1       -0.499   1.287   4.166  0.00  0.00    +0.300 A 
ATOM     20  N   LIG    1        0.018   1.016   5.329  0.00  0.00    -0.480 NA
ATOM     21  C   LIG    1       -0.832   1.414   6.310  0.00  0.00    +0.050 A 
ATOM     22  C   LIG    1       -0.781   1.369   7.706  0.00  0.00    +0.070 A 
ATOM     23  C   LIG    1       -1.821   1.863   8.441  0.00  0.00    +0.000 A 
ATOM     24  C   LIG    1       -2.931   2.413   7.816  0.00  0.00    +0.030 A 
ATOM     25  C   LIG    1       -3.002   2.469   6.440  0.00  0.00    +0.020 A 
ATOM     26  C   LIG    1       -1.956   1.971   5.677  0.00  0.00    +0.050 A 
ATOM     27  N   LIG    1       -1.713   1.881   4.321  0.00  0.00    -0.590 N 
ATOM     28  H   LIG    1       -2.300   2.183   3.610  0.00  0.00    +0.430 HD
ENDBRANCH  17  19
ENDBRANCH  16  17
ENDBRANCH  15  16
ENDBRANCH   3  15
TORSDOF 7
