REMARK  Name = ZINCpe000000YBYk.0
REMARK                            x       y       z     vdW  Elec       q    Type
REMARK                         _______ _______ _______ _____ _____    ______ ____
ROOT
ATOM      1  N   LIG    1        1.159   5.497  -2.079  0.00  0.00    -1.090 NA
ATOM      2  H   LIG    1        1.990   5.481  -1.579  0.00  0.00    +0.420 HD
ENDROOT
BRANCH   1   3
ATOM      3  S   LIG    1        1.154   5.107  -3.689  0.00  0.00    +2.700 S 
ATOM      4  O   LIG    1        0.101   4.172  -3.872  0.00  0.00    -0.950 OA
ATOM      5  O   LIG    1        2.504   4.837  -4.040  0.00  0.00    -0.950 OA
BRANCH   3   6
ATOM      6  C   LIG    1        0.691   6.558  -4.574  0.00  0.00    -0.670 A 
ATOM      7  C   LIG    1       -0.642   6.805  -4.846  0.00  0.00    +0.130 A 
ATOM      8  C   LIG    1       -1.010   7.945  -5.536  0.00  0.00    +0.010 A 
ATOM      9  C   LIG    1       -0.041   8.838  -5.969  0.00  0.00    +0.110 A 
ATOM     10  O   LIG    1       -0.418   9.951  -6.655  0.00  0.00    -0.300 OA
ATOM     11  C   LIG    1        0.544  11.008  -6.745  0.00  0.00    +0.230 C 
ATOM     12  C   LIG    1        1.898  10.394  -7.125  0.00  0.00    +0.230 C 
ATOM     13  O   LIG    1        2.266   9.454  -6.110  0.00  0.00    -0.300 OA
ATOM     14  C   LIG    1        1.299   8.588  -5.699  0.00  0.00    +0.030 A 
ATOM     15  C   LIG    1        1.661   7.445  -5.002  0.00  0.00    +0.160 A 
ENDBRANCH   3   6
ENDBRANCH   1   3
BRANCH   1  16
ATOM     16  C   LIG    1       -0.091   5.864  -1.410  0.00  0.00    +0.260 C 
BRANCH  16  20
ATOM     17  N   LIG    1       -1.317   7.934  -0.837  0.00  0.00    -0.850 N 
ATOM     18  H   LIG    1       -1.410   8.900  -0.833  0.00  0.00    +0.400 HD
ATOM     19  H   LIG    1       -2.003   7.379  -0.434  0.00  0.00    +0.400 HD
ATOM     20  C   LIG    1       -0.235   7.364  -1.404  0.00  0.00    +0.490 C 
ATOM     21  O   LIG    1        0.622   8.058  -1.908  0.00  0.00    -0.520 OA
ENDBRANCH  16  20
BRANCH  16  22
ATOM     22  C   LIG    1       -0.070   5.347   0.030  0.00  0.00    +0.100 C 
BRANCH  22  23
ATOM     23  C   LIG    1       -0.050   3.840   0.022  0.00  0.00    -0.090 A 
ATOM     24  C   LIG    1        1.156   3.165   0.008  0.00  0.00    +0.010 A 
ATOM     25  C   LIG    1        1.175   1.783   0.000  0.00  0.00    +0.000 A 
ATOM     26  C   LIG    1       -0.013   1.076   0.008  0.00  0.00    +0.000 A 
ATOM     27  C   LIG    1       -1.219   1.751   0.017  0.00  0.00    +0.000 A 
ATOM     28  C   LIG    1       -1.238   3.133   0.030  0.00  0.00    +0.010 A 
ENDBRANCH  22  23
ENDBRANCH  16  22
ENDBRANCH   1  16
TORSDOF 6
