REMARK  Name = ZINCah0000006lu9.0
REMARK                            x       y       z     vdW  Elec       q    Type
REMARK                         _______ _______ _______ _____ _____    ______ ____
ROOT
ATOM      1  C   LIG    1        1.175   1.805   0.001  0.00  0.00    +0.220 A 
ATOM      2  C   LIG    1       -0.013   1.076   0.008  0.00  0.00    -0.020 A 
ATOM      3  C   LIG    1       -1.210   1.767   0.017  0.00  0.00    +0.090 A 
ATOM      4  CA  LIG    1       -1.190   3.164   0.029  0.00  0.00    -0.030 A 
ATOM      5  N   LIG    1       -0.036   3.827   0.022  0.00  0.00    -0.380 NA
ATOM      6  C   LIG    1        1.119   3.202   0.008  0.00  0.00    +0.090 A 
ATOM      7 CL   LIG    1        2.592   4.121  -0.001  0.00  0.00    -0.030 Cl
ENDROOT
BRANCH   1   8
ATOM      8  N   LIG    1        2.401   1.151  -0.015  0.00  0.00    -0.850 N 
ATOM      9  H   LIG    1        3.224   1.665  -0.020  0.00  0.00    +0.410 HD
ATOM     10  H   LIG    1        2.434   0.182  -0.020  0.00  0.00    +0.410 HD
ENDBRANCH   1   8
BRANCH   4  11
ATOM     11  C   LIG    1       -2.458   3.910   0.045  0.00  0.00    +0.510 C 
ATOM     12  O   LIG    1       -2.448   5.122   0.052  0.00  0.00    -0.440 OA
ENDBRANCH   4  11
TORSDOF 2
