REMARK  Name = ZINCpe000000XhKo.0
REMARK                            x       y       z     vdW  Elec       q    Type
REMARK                         _______ _______ _______ _____ _____    ______ ____
ROOT
ATOM      1  N   LIG    1        1.030   2.022   0.003  0.00  0.00    -0.360 N 
ATOM      2  N   LIG    1       -0.015   1.279   0.009  0.00  0.00    +0.120 NA
ATOM      3  N   LIG    1        0.002  -0.004   0.002  0.00  0.00    -0.230 NA
ATOM      4  C   LIG    1        1.152  -0.696  -0.013  0.00  0.00    +0.270 A 
ATOM      5  C   LIG    1        2.361   0.021  -0.020  0.00  0.00    -0.300 A 
ATOM      6  C   LIG    1        3.405  -0.918  -0.035  0.00  0.00    +0.350 A 
ATOM      7  N   LIG    1        2.881  -2.115  -0.037  0.00  0.00    -0.240 NA
ATOM      8  N   LIG    1        1.484  -2.014  -0.023  0.00  0.00    -0.280 N 
ATOM      9  C   LIG    1        2.272   1.483  -0.012  0.00  0.00    +0.550 A 
ATOM     10  O   LIG    1        3.270   2.182  -0.018  0.00  0.00    -0.490 OA
ENDROOT
BRANCH   8  11
ATOM     11  C   LIG    1        0.584  -3.087  -0.020  0.00  0.00    +0.130 A 
ATOM     12  C   LIG    1       -0.609  -2.993   0.686  0.00  0.00    +0.030 A 
ATOM     13  C   LIG    1       -1.496  -4.051   0.683  0.00  0.00    +0.040 A 
ATOM     14  C   LIG    1       -1.194  -5.207  -0.014  0.00  0.00    +0.020 A 
ATOM     15  C   LIG    1       -0.006  -5.306  -0.713  0.00  0.00    +0.040 A 
ATOM     16  C   LIG    1        0.884  -4.249  -0.719  0.00  0.00    +0.040 A 
ENDBRANCH   8  11
BRANCH   1  17
ATOM     17  C   LIG    1        0.877   3.479   0.012  0.00  0.00    +0.370 C 
BRANCH  17  20
ATOM     18  N   LIG    1        0.672   5.305  -1.644  0.00  0.00    -0.720 N 
ATOM     19  H   LIG    1        0.613   5.928  -0.903  0.00  0.00    +0.410 HD
ATOM     20  C   LIG    1        0.812   3.986  -1.406  0.00  0.00    +0.510 C 
ATOM     21  O   LIG    1        0.885   3.207  -2.332  0.00  0.00    -0.520 OA
BRANCH  18  23
ATOM     22  C   LIG    1       -0.831   5.702  -3.532  0.00  0.00    +0.020 C 
ATOM     23  C   LIG    1        0.608   5.798  -3.022  0.00  0.00    +0.260 C 
BRANCH  23  24
ATOM     24  C   LIG    1        1.068   7.256  -3.064  0.00  0.00    -0.060 C 
ATOM     25  C   LIG    1        0.015   8.320  -3.381  0.00  0.00    +0.020 C 
ATOM     26  C   LIG    1        1.074   7.957  -4.425  0.00  0.00    +0.030 C 
ENDBRANCH  23  24
ENDBRANCH  18  23
ENDBRANCH  17  20
ENDBRANCH   1  17
TORSDOF 5
