REMARK  Name = ZINCpk00000eaUrw.0
REMARK                            x       y       z     vdW  Elec       q    Type
REMARK                         _______ _______ _______ _____ _____    ______ ____
ROOT
ATOM      1  C   LIG    1       -0.539   1.447   7.391  0.00  0.00    +0.090 C 
ATOM      2  C   LIG    1       -1.077   1.810   6.031  0.00  0.00    -0.120 A 
ATOM      3  C   LIG    1       -0.441   1.356   4.898  0.00  0.00    +0.100 A 
ATOM      4  C   LIG    1       -0.937   1.696   3.636  0.00  0.00    -0.150 A 
ATOM      5  C   LIG    1       -2.084   2.488   3.530  0.00  0.00    +0.060 A 
ATOM      6  C   LIG    1       -2.718   2.934   4.668  0.00  0.00    +0.030 A 
ATOM      7  C   LIG    1       -2.218   2.598   5.922  0.00  0.00    +0.190 A 
ENDROOT
BRANCH   7   8
ATOM      8  N   LIG    1       -2.863   3.051   7.072  0.00  0.00    -0.680 N 
ATOM      9  H   LIG    1       -2.890   2.493   7.865  0.00  0.00    +0.410 HD
ATOM     10  C   LIG    1       -3.448   4.265   7.083  0.00  0.00    +0.710 C 
ATOM     11  N   LIG    1       -3.991   4.742   8.221  0.00  0.00    -0.730 N 
ATOM     12  H   LIG    1       -3.961   4.211   9.032  0.00  0.00    +0.400 HD
ATOM     13  O   LIG    1       -3.486   4.931   6.066  0.00  0.00    -0.560 OA
BRANCH  11  14
ATOM     14  C   LIG    1       -4.627   6.061   8.232  0.00  0.00    +0.290 C 
ATOM     15  C   LIG    1       -6.143   5.947   7.952  0.00  0.00    +0.080 C 
ATOM     16  C   LIG    1       -6.766   7.000   8.843  0.00  0.00    +0.510 C 
ATOM     17  N   LIG    1       -5.886   7.389   9.782  0.00  0.00    -0.480 N 
ATOM     18  O   LIG    1       -7.894   7.430   8.726  0.00  0.00    -0.520 OA
ATOM     19  C   LIG    1       -4.614   6.669   9.652  0.00  0.00    +0.310 C 
BRANCH  17  20
ATOM     20  O   LIG    1       -6.153   8.369  10.769  0.00  0.00    -0.310 OA
ATOM     21  H   LIG    1       -7.041   8.748  10.716  0.00  0.00    +0.400 HD
ENDBRANCH  17  20
ENDBRANCH  11  14
ENDBRANCH   7   8
BRANCH   4  22
ATOM     22  C   LIG    1       -0.255   1.216   2.419  0.00  0.00    +0.560 C 
ATOM     23  N   LIG    1       -0.739   1.541   1.203  0.00  0.00    -0.730 N 
ATOM     24  H   LIG    1       -1.535   2.090   1.128  0.00  0.00    +0.400 HD
ATOM     25  O   LIG    1        0.743   0.528   2.512  0.00  0.00    -0.540 OA
BRANCH  23  26
ATOM     26  C   LIG    1       -0.061   1.064  -0.005  0.00  0.00    +0.260 C 
BRANCH  26  27
ATOM     27  C   LIG    1       -0.808   1.571  -1.242  0.00  0.00    -0.030 C 
ATOM     28  C   LIG    1       -2.204   0.945  -1.286  0.00  0.00    +0.020 C 
ATOM     29  C   LIG    1       -0.033   1.179  -2.501  0.00  0.00    +0.030 C 
ENDBRANCH  26  27
ENDBRANCH  23  26
ENDBRANCH   4  22
TORSDOF 6
