REMARK  Name = ZINCpe00000MJJt8.0
REMARK                            x       y       z     vdW  Elec       q    Type
REMARK                         _______ _______ _______ _____ _____    ______ ____
ROOT
ATOM      1  C   LIG    1        2.785   5.379  -0.801  0.00  0.00    +0.230 C 
ATOM      2  C   LIG    1        3.312   5.336  -2.238  0.00  0.00    +0.030 C 
ATOM      3  C   LIG    1        3.502   6.766  -2.750  0.00  0.00    +0.200 C 
ATOM      4  N   LIG    1        4.450   7.476  -1.882  0.00  0.00    -0.470 N 
ATOM      5  C   LIG    1        3.944   7.571  -0.507  0.00  0.00    +0.220 C 
ATOM      6  C   LIG    1        3.767   6.165   0.071  0.00  0.00    +0.030 C 
ENDROOT
BRANCH   4   7
ATOM      7  C   LIG    1        4.745   8.731  -2.390  0.00  0.00    +0.360 A 
ATOM      8  C   LIG    1        5.243   8.871  -3.688  0.00  0.00    -0.100 A 
ATOM      9  C   LIG    1        5.521  10.143  -4.148  0.00  0.00    +0.190 A 
ATOM     10  N   LIG    1        5.308  11.181  -3.351  0.00  0.00    -0.540 NA
ATOM     11  C   LIG    1        4.838  11.015  -2.131  0.00  0.00    +0.350 A 
ATOM     12  C   LIG    1        4.613  12.225  -1.262  0.00  0.00    +0.180 C 
ATOM     13  C   LIG    1        6.060  10.349  -5.541  0.00  0.00    +0.140 C 
ATOM     14  N   LIG    1        4.554   9.821  -1.653  0.00  0.00    -0.560 NA
ENDBRANCH   4   7
BRANCH   1  16
ATOM     15  C   LIG    1        1.538   3.304  -0.531  0.00  0.00    +0.530 C 
ATOM     16  N   LIG    1        2.656   4.014  -0.286  0.00  0.00    -0.730 N 
ATOM     17  H   LIG    1        3.377   3.621   0.232  0.00  0.00    +0.400 HD
ATOM     18  O   LIG    1        0.637   3.795  -1.179  0.00  0.00    -0.510 OA
BRANCH  15  21
ATOM     19  C   LIG    1        1.333  -0.434  -0.643  0.00  0.00    +0.150 C 
ATOM     20  C   LIG    1        2.070   0.885  -0.966  0.00  0.00    +0.080 C 
ATOM     21  C   LIG    1        1.405   1.899  -0.001  0.00  0.00    +0.120 C 
ATOM     22  N   LIG    1       -0.018   1.475   0.010  0.00  0.00    -0.490 NA
ATOM     23  C   LIG    1       -0.710   1.985   1.201  0.00  0.00    +0.200 C 
ATOM     24  C   LIG    1        0.002  -0.004   0.002  0.00  0.00    +0.150 C 
BRANCH  19  26
ATOM     25  C   LIG    1        0.995  -2.584  -1.647  0.00  0.00    +0.200 C 
ATOM     26  O   LIG    1        1.087  -1.172  -1.842  0.00  0.00    -0.370 OA
ENDBRANCH  19  26
ENDBRANCH  15  21
ENDBRANCH   1  16
TORSDOF 4
