REMARK  Name = ZINCvU00000007GJ.0
REMARK                            x       y       z     vdW  Elec       q    Type
REMARK                         _______ _______ _______ _____ _____    ______ ____
ROOT
ATOM      1  C   LIG    1        5.948   1.769   0.667  0.00  0.00    +0.440 A 
ATOM      2  N   LIG    1        6.875   2.342  -0.050  0.00  0.00    -0.550 NA
ATOM      3  C   LIG    1        7.867   3.044   0.522  0.00  0.00    +0.540 A 
ATOM      4  C   LIG    1        7.900   3.161   1.992  0.00  0.00    -0.210 A 
ATOM      5  C   LIG    1        6.892   2.533   2.701  0.00  0.00    +0.050 A 
ATOM      6  S   LIG    1        7.115   2.795   4.424  0.00  0.00    +0.190 S 
ATOM      7  C   LIG    1        8.564   3.747   4.163  0.00  0.00    -0.040 A 
ATOM      8  C   LIG    1        8.842   3.849   2.864  0.00  0.00    +0.010 A 
ATOM      9  O   LIG    1        8.727   3.575  -0.163  0.00  0.00    -0.460 OA
ATOM     10  N   LIG    1        5.920   1.845   2.007  0.00  0.00    -0.580 N 
ATOM     11  H   LIG    1        5.207   1.404   2.494  0.00  0.00    +0.420 HD
ENDROOT
BRANCH   8  12
ATOM     12  C   LIG    1       10.013   4.598   2.349  0.00  0.00    -0.040 A 
ATOM     13  C   LIG    1       10.880   4.000   1.435  0.00  0.00    +0.060 A 
ATOM     14  C   LIG    1       11.964   4.705   0.954  0.00  0.00    +0.000 A 
ATOM     15  C   LIG    1       12.200   5.997   1.387  0.00  0.00    +0.010 A 
ATOM     16  C   LIG    1       11.347   6.593   2.299  0.00  0.00    -0.010 A 
ATOM     17  C   LIG    1       10.256   5.901   2.781  0.00  0.00    +0.020 A 
ENDBRANCH   8  12
BRANCH   1  19
ATOM     18  C   LIG    1        5.282   0.733  -1.485  0.00  0.00    +0.100 C 
ATOM     19  C   LIG    1        4.863   0.997  -0.037  0.00  0.00    +0.260 C 
BRANCH  19  20
ATOM     20  O   LIG    1        3.632   1.768  -0.022  0.00  0.00    -0.340 OA
BRANCH  20  21
ATOM     21  C   LIG    1        2.477   1.075  -0.015  0.00  0.00    +0.520 C 
ATOM     22  O   LIG    1        2.496  -0.139  -0.021  0.00  0.00    -0.500 OA
BRANCH  21  23
ATOM     23  C   LIG    1        1.188   1.792   0.000  0.00  0.00    -0.160 A 
ATOM     24  C   LIG    1       -0.013   1.076   0.008  0.00  0.00    +0.140 A 
ATOM     25  C   LIG    1       -1.214   1.749   0.017  0.00  0.00    -0.050 A 
ATOM     26  C   LIG    1       -1.234   3.139   0.029  0.00  0.00    +0.150 A 
ATOM     27  C   LIG    1       -0.042   3.855   0.022  0.00  0.00    +0.000 A 
ATOM     28  C   LIG    1        1.163   3.190   0.008  0.00  0.00    +0.130 A 
BRANCH  26  29
ATOM     29  O   LIG    1       -2.419   3.798   0.043  0.00  0.00    -0.320 OA
BRANCH  29  30
ATOM     30  C   LIG    1       -3.605   3.001   0.050  0.00  0.00    +0.600 C 
ATOM     31  F   LIG    1       -3.614   2.188   1.188  0.00  0.00    -0.190 F 
ATOM     32  F   LIG    1       -3.634   2.199  -1.096  0.00  0.00    -0.190 F 
ENDBRANCH  29  30
ENDBRANCH  26  29
ENDBRANCH  21  23
ENDBRANCH  20  21
ENDBRANCH  19  20
ENDBRANCH   1  19
TORSDOF 7
