REMARK  Name = ZINCpk000000pWIH.0
REMARK                            x       y       z     vdW  Elec       q    Type
REMARK                         _______ _______ _______ _____ _____    ______ ____
ROOT
ATOM      1  C   LIG    1       -3.614   2.038   0.031  0.00  0.00    +0.200 A 
ATOM      2  C   LIG    1       -3.655   3.419   0.039  0.00  0.00    -0.060 A 
ATOM      3  C   LIG    1       -2.447   4.122   0.037  0.00  0.00    +0.330 A 
ATOM      4  N   LIG    1       -1.306   3.442   0.032  0.00  0.00    -0.540 NA
ATOM      5  C   LIG    1       -1.310   2.116   0.020  0.00  0.00    +0.370 A 
ATOM      6  N   LIG    1       -2.440   1.424   0.021  0.00  0.00    -0.510 NA
ENDROOT
BRANCH   5   7
ATOM      7  C   LIG    1       -0.017   1.389   0.010  0.00  0.00    +0.010 A 
ATOM      8  C   LIG    1        1.184   2.098   0.002  0.00  0.00    +0.090 A 
ATOM      9  C   LIG    1        2.384   1.416  -0.013  0.00  0.00    +0.100 A 
ATOM     10  C   LIG    1        2.396   0.033  -0.021  0.00  0.00    -0.030 A 
ATOM     11  C   LIG    1        1.208  -0.675  -0.013  0.00  0.00    +0.100 A 
ATOM     12  C   LIG    1        0.002  -0.004   0.002  0.00  0.00    +0.090 A 
BRANCH  10  13
ATOM     13  N   LIG    1        3.687  -0.693  -0.038  0.00  0.00    +0.020 N 
ATOM     14  O   LIG    1        4.734  -0.071  -0.045  0.00  0.00    -0.150 OA
ATOM     15  O   LIG    1        3.700  -1.911  -0.044  0.00  0.00    -0.150 OA
ENDBRANCH  10  13
ENDBRANCH   5   7
BRANCH   3  16
ATOM     16  N   LIG    1       -2.440   5.507   0.045  0.00  0.00    -0.430 N 
ATOM     17  C   LIG    1       -2.574   6.028   1.418  0.00  0.00    +0.210 C 
ATOM     18  C   LIG    1       -1.515   7.081   1.062  0.00  0.00    -0.080 C 
ATOM     19  C   LIG    1       -1.061   6.029   0.041  0.00  0.00    +0.230 C 
BRANCH  18  20
ATOM     20  C   LIG    1       -2.081   8.358   0.436  0.00  0.00    +0.210 C 
BRANCH  20  21
ATOM     21  O   LIG    1       -2.470   9.263   1.471  0.00  0.00    -0.540 OA
ATOM     22  H   LIG    1       -2.839  10.096   1.146  0.00  0.00    +0.370 HD
ENDBRANCH  20  21
ENDBRANCH  18  20
BRANCH  18  23
ATOM     23  C   LIG    1       -0.502   7.352   2.176  0.00  0.00    +0.190 C 
BRANCH  23  24
ATOM     24  O   LIG    1       -1.024   8.342   3.064  0.00  0.00    -0.540 OA
ATOM     25  H   LIG    1       -0.433   8.564   3.797  0.00  0.00    +0.370 HD
ENDBRANCH  23  24
ENDBRANCH  18  23
ENDBRANCH   3  16
BRANCH   1  27
ATOM     26  C   LIG    1       -4.890   0.272  -1.154  0.00  0.00    +0.040 C 
ATOM     27  C   LIG    1       -4.891   1.238   0.033  0.00  0.00    +0.100 C 
ENDBRANCH   1  27
TORSDOF 8
