REMARK  Name = ZINCvU0000000G4z.0
REMARK                            x       y       z     vdW  Elec       q    Type
REMARK                         _______ _______ _______ _____ _____    ______ ____
ROOT
ATOM      1  C   LIG    1       -8.536   5.551  -1.226  0.00  0.00    +0.260 A 
ATOM      2  N   LIG    1       -7.266   5.334  -1.109  0.00  0.00    -0.380 NA
ATOM      3  C   LIG    1       -6.493   6.423  -1.038  0.00  0.00    +0.050 A 
ATOM      4  C   LIG    1       -7.173   7.608  -1.110  0.00  0.00    -0.040 A 
ATOM      5  S   LIG    1       -8.844   7.282  -1.266  0.00  0.00    +0.170 S 
ENDROOT
BRANCH   3   6
ATOM      6  C   LIG    1       -5.084   6.356  -0.903  0.00  0.00    +0.240 C 
ATOM      7  C   LIG    1       -4.463   5.132  -0.729  0.00  0.00    -0.060 C 
ATOM      8  N   LIG    1       -3.155   4.907  -0.412  0.00  0.00    -0.480 NA
ATOM      9  C   LIG    1       -2.951   3.621  -0.335  0.00  0.00    +0.350 C 
ATOM     10  O   LIG    1       -4.076   2.926  -0.594  0.00  0.00    -0.300 OA
ATOM     11  C   LIG    1       -5.074   3.800  -0.846  0.00  0.00    +0.460 C 
ATOM     12  O   LIG    1       -6.232   3.539  -1.117  0.00  0.00    -0.350 OA
BRANCH   9  13
ATOM     13  C   LIG    1       -1.649   3.004  -0.012  0.00  0.00    -0.060 A 
ATOM     14  C   LIG    1       -1.496   1.617  -0.070  0.00  0.00    +0.070 A 
ATOM     15  C   LIG    1       -0.278   1.047   0.239  0.00  0.00    +0.000 A 
ATOM     16  C   LIG    1        0.793   1.847   0.595  0.00  0.00    +0.050 A 
ATOM     17  C   LIG    1        0.650   3.223   0.650  0.00  0.00    +0.000 A 
ATOM     18  C   LIG    1       -0.563   3.805   0.349  0.00  0.00    -0.020 A 
ATOM     19  C   LIG    1       -0.717   5.303   0.408  0.00  0.00    +0.120 C 
ENDBRANCH   9  13
ENDBRANCH   3   6
BRANCH   1  22
ATOM     20  C   LIG    1       -9.895   4.838   1.116  0.00  0.00    +0.120 C 
ATOM     21  C   LIG    1      -10.152   4.152  -0.200  0.00  0.00    +0.530 C 
ATOM     22  N   LIG    1       -9.510   4.564  -1.312  0.00  0.00    -0.480 N 
ATOM     23  O   LIG    1      -10.935   3.228  -0.260  0.00  0.00    -0.500 OA
BRANCH  22  24
ATOM     24  C   LIG    1       -9.826   3.998  -2.553  0.00  0.00    +0.120 A 
ATOM     25  C   LIG    1       -9.140   2.877  -3.002  0.00  0.00    +0.040 A 
ATOM     26  C   LIG    1       -9.458   2.318  -4.224  0.00  0.00    +0.010 A 
ATOM     27  C   LIG    1      -10.450   2.880  -5.006  0.00  0.00    +0.030 A 
ATOM     28  C   LIG    1      -11.131   4.000  -4.565  0.00  0.00    -0.080 A 
ATOM     29  C   LIG    1      -12.212   4.609  -5.421  0.00  0.00    +0.090 C 
ATOM     30  C   LIG    1      -10.822   4.560  -3.341  0.00  0.00    -0.070 A 
ATOM     31  C   LIG    1      -11.566   5.780  -2.861  0.00  0.00    +0.090 C 
ENDBRANCH  22  24
ENDBRANCH   1  22
TORSDOF 4
