REMARK  Name = ZINCvU00000007AM.0
REMARK                            x       y       z     vdW  Elec       q    Type
REMARK                         _______ _______ _______ _____ _____    ______ ____
ROOT
ATOM      1  C   LIG    1       -0.952   2.861   1.576  0.00  0.00    +0.120 A 
ATOM      2  N   LIG    1       -1.385   2.815   2.816  0.00  0.00    -0.280 NA
ATOM      3  N   LIG    1       -1.608   1.598   3.161  0.00  0.00    -0.260 NA
ATOM      4  C   LIG    1       -1.336   0.792   2.162  0.00  0.00    +0.230 A 
ATOM      5  N   LIG    1       -0.911   1.577   1.114  0.00  0.00    -0.440 N 
ENDROOT
BRANCH   5   6
ATOM      6  C   LIG    1       -0.495   1.127  -0.216  0.00  0.00    +0.230 C 
ATOM      7  C   LIG    1        0.955   1.547  -0.467  0.00  0.00    +0.040 C 
ATOM      8  C   LIG    1        1.066   3.071  -0.385  0.00  0.00    +0.020 C 
ATOM      9  C   LIG    1        0.162   3.705  -1.443  0.00  0.00    +0.050 C 
ATOM     10  C   LIG    1       -1.288   3.286  -1.193  0.00  0.00    +0.020 C 
ATOM     11  C   LIG    1       -1.399   1.762  -1.275  0.00  0.00    +0.010 C 
ATOM     12  C   LIG    1       -2.849   1.343  -1.025  0.00  0.00    +0.030 C 
ENDBRANCH   5   6
BRANCH   4  13
ATOM     13  C   LIG    1       -1.462  -0.681   2.161  0.00  0.00    -0.070 A 
ATOM     14  C   LIG    1       -2.452  -1.311   2.924  0.00  0.00    +0.120 A 
ATOM     15  C   LIG    1       -2.530  -2.692   2.885  0.00  0.00    -0.010 A 
ATOM     16  C   LIG    1       -1.631  -3.400   2.109  0.00  0.00    +0.270 A 
ATOM     17  N   LIG    1       -0.704  -2.780   1.404  0.00  0.00    -0.480 NA
ATOM     18  C   LIG    1       -0.592  -1.468   1.404  0.00  0.00    +0.270 A 
ENDBRANCH   4  13
BRANCH   1  19
ATOM     19  S   LIG    1       -0.510   4.310   0.676  0.00  0.00    +0.200 S 
BRANCH  19  20
ATOM     20  C   LIG    1       -0.827   5.571   1.935  0.00  0.00    +0.040 C 
BRANCH  20  31
ATOM     21  C   LIG    1        1.835   6.651   2.225  0.00  0.00    +0.160 C 
ATOM     22  C   LIG    1        0.778   7.455   1.513  0.00  0.00    +0.120 A 
ATOM     23  N   LIG    1        1.079   8.637   1.027  0.00  0.00    -0.420 NA
ATOM     24  C   LIG    1        0.141   9.354   0.400  0.00  0.00    +0.080 A 
ATOM     25  C   LIG    1        0.429  10.625  -0.127  0.00  0.00    +0.060 A 
ATOM     26  C   LIG    1       -0.547  11.331  -0.760  0.00  0.00    +0.040 A 
ATOM     27  C   LIG    1       -1.834  10.812  -0.895  0.00  0.00    +0.040 A 
ATOM     28  C   LIG    1       -2.150   9.585  -0.398  0.00  0.00    +0.060 A 
ATOM     29  C   LIG    1       -1.168   8.827   0.263  0.00  0.00    +0.080 A 
ATOM     30  N   LIG    1       -1.449   7.618   0.762  0.00  0.00    -0.410 NA
ATOM     31  C   LIG    1       -0.510   6.933   1.373  0.00  0.00    +0.130 A 
ENDBRANCH  20  31
ENDBRANCH  19  20
ENDBRANCH   1  19
TORSDOF 5
