REMARK  Name = ZINCrD00000l51M6.0
REMARK                            x       y       z     vdW  Elec       q    Type
REMARK                         _______ _______ _______ _____ _____    ______ ____
ROOT
ATOM      1  C   LIG    1        5.964   1.617  -0.046  0.00  0.00    +0.500 C 
ATOM      2  O   LIG    1        6.106   2.817  -0.041  0.00  0.00    -0.500 OA
ENDROOT
BRANCH   1   3
ATOM      3  C   LIG    1        7.171   0.715  -0.063  0.00  0.00    +0.000 C 
ATOM      4  C   LIG    1        8.021   0.696  -1.335  0.00  0.00    +0.100 C 
ATOM      5  C   LIG    1        8.549   1.380  -0.072  0.00  0.00    +0.040 C 
BRANCH   5   6
ATOM      6  C   LIG    1        9.659   0.692   0.680  0.00  0.00    -0.010 A 
ATOM      7  C   LIG    1       10.040  -0.590   0.330  0.00  0.00    +0.020 A 
ATOM      8  C   LIG    1       11.058  -1.222   1.020  0.00  0.00    +0.060 A 
ATOM      9  C   LIG    1       11.695  -0.571   2.059  0.00  0.00    +0.020 A 
ATOM     10  C   LIG    1       11.315   0.711   2.410  0.00  0.00    +0.070 A 
ATOM     11  C   LIG    1       10.300   1.344   1.717  0.00  0.00    -0.170 A 
BRANCH  11  12
ATOM     12  C   LIG    1        9.889   2.744   2.095  0.00  0.00    +0.510 C 
ATOM     13  F   LIG    1        8.542   2.748   2.474  0.00  0.00    -0.170 F 
ATOM     14  F   LIG    1       10.068   3.594   0.998  0.00  0.00    -0.170 F 
ATOM     15  F   LIG    1       10.676   3.189   3.163  0.00  0.00    -0.180 F 
ENDBRANCH  11  12
ENDBRANCH   5   6
ENDBRANCH   1   3
BRANCH   1  16
ATOM     16  O   LIG    1        4.731   1.087  -0.037  0.00  0.00    -0.330 OA
BRANCH  16  17
ATOM     17  C   LIG    1        3.614   2.015  -0.022  0.00  0.00    +0.270 C 
BRANCH  17  19
ATOM     18  O   LIG    1        2.336   0.032  -0.020  0.00  0.00    -0.440 OA
ATOM     19  C   LIG    1        2.320   1.244  -0.013  0.00  0.00    +0.510 C 
ATOM     20  N   LIG    1        1.143   1.902   0.001  0.00  0.00    -0.680 N 
ATOM     21  H   LIG    1        1.130   2.872   0.007  0.00  0.00    +0.410 HD
ATOM     22  C   LIG    1       -0.014   1.212   0.009  0.00  0.00    +0.590 C 
ATOM     23  O   LIG    1        0.002  -0.004   0.002  0.00  0.00    -0.450 OA
BRANCH  22  24
ATOM     24  C   LIG    1       -1.292   1.927   0.019  0.00  0.00    -0.290 A 
ATOM     25  C   LIG    1       -2.529   1.343   0.021  0.00  0.00    +0.120 A 
ATOM     26  C   LIG    1       -3.559   2.251   0.032  0.00  0.00    +0.000 A 
ATOM     27  C   LIG    1       -3.184   3.536   0.038  0.00  0.00    -0.040 A 
ATOM     28  S   LIG    1       -1.484   3.675   0.037  0.00  0.00    +0.210 S 
ENDBRANCH  22  24
ENDBRANCH  17  19
ENDBRANCH  16  17
ENDBRANCH   1  16
TORSDOF 7
