REMARK  Name = ZINCrD00000F5Lzw.0
REMARK                            x       y       z     vdW  Elec       q    Type
REMARK                         _______ _______ _______ _____ _____    ______ ____
ROOT
ATOM      1  N   LIG    1        2.954   1.298  -1.399  0.00  0.00    -0.530 NA
ATOM      2  C   LIG    1        2.197   0.319  -2.192  0.00  0.00    +0.170 C 
ATOM      3  C   LIG    1        2.614   0.427  -3.663  0.00  0.00    +0.300 C 
ATOM      4  N   LIG    1        4.077   0.297  -3.745  0.00  0.00    -0.610 N 
ATOM      5  C   LIG    1        4.901   1.151  -2.876  0.00  0.00    +0.280 C 
ATOM      6  C   LIG    1        4.647  -0.582  -4.593  0.00  0.00    +0.550 C 
ATOM      7  O   LIG    1        3.951  -1.347  -5.235  0.00  0.00    -0.540 OA
ATOM      8  C   LIG    1        4.394   1.014  -1.437  0.00  0.00    +0.170 C 
ENDROOT
BRANCH   6   9
ATOM      9  C   LIG    1        6.101  -0.616  -4.743  0.00  0.00    -0.090 C 
ATOM     10  C   LIG    1        6.667  -1.425  -5.666  0.00  0.00    +0.150 C 
BRANCH  10  11
ATOM     11  C   LIG    1        8.126  -1.458  -5.816  0.00  0.00    -0.050 A 
ATOM     12  C   LIG    1        8.941  -0.659  -5.020  0.00  0.00    +0.060 A 
ATOM     13  C   LIG    1       10.320  -0.695  -5.159  0.00  0.00    +0.010 A 
ATOM     14  C   LIG    1       10.927  -1.498  -6.077  0.00  0.00    +0.050 A 
ATOM     15  C   LIG    1       10.166  -2.327  -6.918  0.00  0.00    -0.110 A 
ATOM     16  C   LIG    1       10.777  -3.162  -7.872  0.00  0.00    +0.090 A 
ATOM     17  C   LIG    1        9.972  -3.941  -8.656  0.00  0.00    -0.030 A 
ATOM     18  C   LIG    1        8.590  -3.893  -8.496  0.00  0.00    +0.300 A 
ATOM     19  N   LIG    1        8.026  -3.112  -7.604  0.00  0.00    -0.470 NA
ATOM     20  C   LIG    1        8.755  -2.330  -6.811  0.00  0.00    +0.150 A 
ENDBRANCH  10  11
ENDBRANCH   6   9
BRANCH   1  21
ATOM     21  C   LIG    1        2.462   1.346  -0.016  0.00  0.00    +0.280 C 
BRANCH  21  25
ATOM     22  C   LIG    1       -0.987   4.914   0.035  0.00  0.00    +0.180 C 
ATOM     23  C   LIG    1       -0.473   3.497   0.021  0.00  0.00    +0.050 A 
ATOM     24  N   LIG    1        0.774   3.164   0.009  0.00  0.00    -0.460 NA
ATOM     25  C   LIG    1        1.051   1.876  -0.002  0.00  0.00    +0.080 A 
ATOM     26  C   LIG    1       -0.021   1.078  -0.001  0.00  0.00    -0.090 A 
ATOM     27  S   LIG    1       -1.457   2.099   0.009  0.00  0.00    +0.120 S 
ENDBRANCH  21  25
ENDBRANCH   1  21
TORSDOF 4
