REMARK  Name = ZINCpk00000e9CPD.1
REMARK                            x       y       z     vdW  Elec       q    Type
REMARK                         _______ _______ _______ _____ _____    ______ ____
ROOT
ATOM      1  N   LIG    1       -0.700   1.560   1.217  0.00  0.00    -0.530 NA
ATOM      2  C   LIG    1       -2.152   1.364   1.107  0.00  0.00    +0.170 C 
ATOM      3  C   LIG    1       -2.845   1.998   2.315  0.00  0.00    +0.030 C 
ATOM      4  C   LIG    1       -2.320   1.350   3.598  0.00  0.00    -0.020 C 
ATOM      5  C   LIG    1       -0.800   1.525   3.664  0.00  0.00    +0.190 C 
ATOM      6  C   LIG    1       -0.165   0.905   2.417  0.00  0.00    +0.200 C 
ENDROOT
BRANCH   5   7
ATOM      7  N   LIG    1       -0.280   0.856   4.864  0.00  0.00    -0.660 NA
ATOM      8  H   LIG    1       -0.763  -0.015   5.030  0.00  0.00    +0.350 HD
BRANCH   7   9
ATOM      9  C   LIG    1       -0.365   1.736   6.036  0.00  0.00    +0.200 C 
BRANCH   9  10
ATOM     10  C   LIG    1       -0.426   0.901   7.289  0.00  0.00    -0.100 A 
ATOM     11  C   LIG    1        0.352  -0.236   7.400  0.00  0.00    +0.040 A 
ATOM     12  C   LIG    1        0.299  -1.000   8.551  0.00  0.00    +0.010 A 
ATOM     13  C   LIG    1       -0.540  -0.633   9.586  0.00  0.00    +0.010 A 
ATOM     14  C   LIG    1       -1.322   0.501   9.473  0.00  0.00    +0.010 A 
ATOM     15  C   LIG    1       -1.265   1.268   8.324  0.00  0.00    +0.010 A 
ENDBRANCH   9  10
BRANCH   9  16
ATOM     16  C   LIG    1        0.851   2.626   6.085  0.00  0.00    +0.520 C 
ATOM     17  O   LIG    1        1.704   2.535   5.228  0.00  0.00    -0.510 OA
ATOM     18  N   LIG    1        0.990   3.522   7.082  0.00  0.00    -0.860 N 
ATOM     19  H   LIG    1        1.773   4.095   7.113  0.00  0.00    +0.400 HD
ATOM     20  H   LIG    1        0.308   3.595   7.768  0.00  0.00    +0.400 HD
ENDBRANCH   9  16
ENDBRANCH   7   9
ENDBRANCH   5   7
BRANCH   1  21
ATOM     21  C   LIG    1       -0.013   1.086   0.008  0.00  0.00    +0.330 C 
BRANCH  21  24
ATOM     22  C   LIG    1       -2.071   1.743  -2.852  0.00  0.00    +0.180 A 
ATOM     23  N   LIG    1       -1.737   0.953  -1.860  0.00  0.00    -0.480 NA
ATOM     24  C   LIG    1       -0.742   1.585  -1.213  0.00  0.00    +0.170 A 
ATOM     25  N   LIG    1       -0.520   2.703  -1.837  0.00  0.00    -0.360 NA
ATOM     26  O   LIG    1       -1.273   2.813  -2.782  0.00  0.00    +0.080 OA
BRANCH  22  28
ATOM     27  C   LIG    1       -4.472   2.066  -3.380  0.00  0.00    +0.050 C 
ATOM     28  C   LIG    1       -3.145   1.490  -3.878  0.00  0.00    +0.180 C 
ENDBRANCH  22  28
ENDBRANCH  21  24
ENDBRANCH   1  21
TORSDOF 7
