REMARK  Name = ZINC9u0000000C3M.0
REMARK                            x       y       z     vdW  Elec       q    Type
REMARK                         _______ _______ _______ _____ _____    ______ ____
ROOT
ATOM      1  C   LIG    1       -0.013   1.086   0.008  0.00  0.00    +0.080 C 
ATOM      2  C   LIG    1       -0.729   1.579   1.267  0.00  0.00    +0.040 C 
ATOM      3  C   LIG    1       -2.164   1.050   1.278  0.00  0.00    +0.050 C 
ATOM      4  C   LIG    1       -2.880   1.543   2.537  0.00  0.00    +0.000 C 
ATOM      5  C   LIG    1       -2.901   3.073   2.545  0.00  0.00    +0.010 C 
ATOM      6  C   LIG    1       -1.466   3.603   2.534  0.00  0.00    +0.000 C 
ATOM      7  C   LIG    1       -0.750   3.109   1.275  0.00  0.00    +0.050 C 
ENDROOT
BRANCH   2   8
ATOM      8  C   LIG    1       -0.017   1.092   2.459  0.00  0.00    +0.220 C 
ATOM      9  N   LIG    1        0.532   0.715   3.380  0.00  0.00    -0.440 NA
ENDBRANCH   2   8
TORSDOF 1
