REMARK  Name = ZINCqH0000033Imw.0
REMARK                            x       y       z     vdW  Elec       q    Type
REMARK                         _______ _______ _______ _____ _____    ______ ____
ROOT
ATOM      1  N   LIG    1       -0.708   1.975   1.213  0.00  0.00    -0.750 N 
ATOM      2  H   LIG    1       -1.065   1.336   1.850  0.00  0.00    +0.400 HD
ATOM      3  C   LIG    1       -0.843   3.297   1.437  0.00  0.00    +0.710 C 
ATOM      4  N   LIG    1       -1.560   3.732   2.492  0.00  0.00    -0.630 N 
ATOM      5  C   LIG    1       -2.110   2.780   3.467  0.00  0.00    +0.260 C 
ATOM      6  C   LIG    1       -1.653   3.200   4.872  0.00  0.00    +0.020 C 
ATOM      7  C   LIG    1       -2.056   4.656   5.119  0.00  0.00    +0.000 C 
ATOM      8  C   LIG    1       -1.363   5.560   4.097  0.00  0.00    +0.030 C 
ATOM      9  C   LIG    1       -1.813   5.166   2.686  0.00  0.00    +0.300 C 
ATOM     10  O   LIG    1       -0.318   4.098   0.688  0.00  0.00    -0.590 OA
ENDROOT
BRANCH   7  11
ATOM     11  C   LIG    1       -1.636   5.069   6.532  0.00  0.00    +0.160 C 
ATOM     12  C   LIG    1       -2.330   4.165   7.555  0.00  0.00    -0.010 C 
ATOM     13  C   LIG    1       -1.952   4.623   8.967  0.00  0.00    +0.010 C 
ATOM     14  C   LIG    1       -2.338   6.096   9.135  0.00  0.00    -0.020 C 
ATOM     15  C   LIG    1       -1.644   6.924   8.051  0.00  0.00    +0.200 C 
ATOM     16  O   LIG    1       -2.014   6.427   6.763  0.00  0.00    -0.380 OA
ENDBRANCH   7  11
BRANCH   1  17
ATOM     17  C   LIG    1       -0.022   1.503   0.008  0.00  0.00    +0.340 C 
BRANCH  17  21
ATOM     18  C   LIG    1        0.025  -2.771  -0.023  0.00  0.00    +0.110 A 
ATOM     19  C   LIG    1        1.061  -2.069   0.573  0.00  0.00    -0.050 A 
ATOM     20  C   LIG    1        1.046  -0.687   0.577  0.00  0.00    +0.070 A 
ATOM     21  C   LIG    1       -0.006  -0.004  -0.004  0.00  0.00    -0.120 A 
ATOM     22  C   LIG    1       -1.041  -0.700  -0.600  0.00  0.00    +0.060 A 
ATOM     23  C   LIG    1       -1.029  -2.083  -0.611  0.00  0.00    +0.070 A 
ATOM     24  F   LIG    1       -2.040  -2.764  -1.193  0.00  0.00    -0.130 F 
BRANCH  18  25
ATOM     25  O   LIG    1        0.041  -4.131  -0.033  0.00  0.00    -0.310 OA
BRANCH  25  27
ATOM     26  C   LIG    1        1.000  -6.289   0.480  0.00  0.00    +0.070 C 
ATOM     27  C   LIG    1        1.156  -4.771   0.590  0.00  0.00    +0.190 C 
ENDBRANCH  25  27
ENDBRANCH  18  25
ENDBRANCH  17  21
ENDBRANCH   1  17
TORSDOF 5
