REMARK  Name = ZINCnE00000rhnRR.0
REMARK                            x       y       z     vdW  Elec       q    Type
REMARK                         _______ _______ _______ _____ _____    ______ ____
ROOT
ATOM      1  O   LIG    1       -0.011   0.012   0.272  0.00  0.00    -0.610 OA
ATOM      2  C   LIG    1       -0.020   1.222   0.118  0.00  0.00    +0.640 A 
ATOM      3  N   LIG    1       -1.172   1.863  -0.086  0.00  0.00    -0.720 NA
ATOM      4  C   LIG    1       -1.186   3.181  -0.248  0.00  0.00    +0.630 A 
ATOM      5  N   LIG    1       -0.050   3.882  -0.221  0.00  0.00    -0.710 NA
ATOM      6  C   LIG    1        1.107   3.272  -0.026  0.00  0.00    +0.600 A 
ATOM      7  N   LIG    1        1.136   1.918   0.148  0.00  0.00    -0.710 NA
ENDROOT
BRANCH   4   8
ATOM      8  N   LIG    1       -2.380   3.829  -0.452  0.00  0.00    -0.580 N 
ATOM      9  C   LIG    1       -2.369   5.264  -0.626  0.00  0.00    +0.280 C 
ATOM     10  C   LIG    1       -2.493   5.961   0.745  0.00  0.00    +0.000 C 
ATOM     11  C   LIG    1       -3.852   5.791   1.283  0.00  0.00    -0.010 C 
ATOM     12  C   LIG    1       -4.243   4.342   1.556  0.00  0.00    +0.010 C 
ATOM     13  C   LIG    1       -4.768   3.717   0.287  0.00  0.00    +0.000 C 
ATOM     14  C   LIG    1       -3.622   3.032  -0.478  0.00  0.00    +0.280 C 
ENDBRANCH   4   8
BRANCH   6  15
ATOM     15  N   LIG    1        2.268   3.993   0.001  0.00  0.00    -0.640 N 
ATOM     16  H   LIG    1        2.239   4.962  -0.042  0.00  0.00    +0.410 HD
BRANCH  15  17
ATOM     17  C   LIG    1        3.500   3.334   0.091  0.00  0.00    +0.200 A 
ATOM     18  C   LIG    1        4.555   3.922   0.775  0.00  0.00    +0.010 A 
ATOM     19  C   LIG    1        5.768   3.268   0.868  0.00  0.00    +0.020 A 
ATOM     20  C   LIG    1        5.936   2.030   0.270  0.00  0.00    +0.070 A 
ATOM     21  C   LIG    1        4.886   1.444  -0.419  0.00  0.00    -0.050 A 
ATOM     22 CL   LIG    1        5.099  -0.107  -1.168  0.00  0.00    -0.060 Cl
ATOM     23  F   LIG    1        7.125   1.395   0.358  0.00  0.00    -0.140 F 
ATOM     24  C   LIG    1        3.670   2.093  -0.509  0.00  0.00    +0.090 A 
ENDBRANCH  15  17
ENDBRANCH   6  15
TORSDOF 3
