REMARK  Name = ZINCpe000000UDge.0
REMARK                            x       y       z     vdW  Elec       q    Type
REMARK                         _______ _______ _______ _____ _____    ______ ____
ROOT
ATOM      1  C   LIG    1       -0.729   1.579   1.267  0.00  0.00    +0.210 C 
ENDROOT
BRANCH   1   2
ATOM      2  O   LIG    1       -2.030   0.991   1.336  0.00  0.00    -0.540 OA
ATOM      3  H   LIG    1       -2.023   0.025   1.372  0.00  0.00    +0.370 HD
ENDBRANCH   1   2
BRANCH   1   4
ATOM      4  C   LIG    1        0.079   1.179   2.503  0.00  0.00    +0.280 C 
BRANCH   4   6
ATOM      5  C   LIG    1       -1.591   0.794   4.375  0.00  0.00    +0.290 C 
ATOM      6  N   LIG    1       -0.607   1.651   3.708  0.00  0.00    -0.610 N 
ATOM      7  C   LIG    1       -0.333   2.874   4.204  0.00  0.00    +0.530 C 
ATOM      8  O   LIG    1        0.481   3.584   3.652  0.00  0.00    -0.520 OA
BRANCH   7   9
ATOM      9  C   LIG    1       -1.039   3.360   5.444  0.00  0.00    +0.150 C 
ATOM     10  C   LIG    1       -0.374   2.752   6.682  0.00  0.00    +0.200 C 
ATOM     11  O   LIG    1       -0.998   3.275   7.857  0.00  0.00    -0.370 OA
ATOM     12  C   LIG    1       -0.930   4.700   7.960  0.00  0.00    +0.180 C 
ATOM     13  C   LIG    1       -1.601   5.327   6.735  0.00  0.00    +0.210 C 
ATOM     14  N   LIG    1       -0.950   4.826   5.516  0.00  0.00    -0.670 NA
ATOM     15  H   LIG    1        0.010   5.133   5.466  0.00  0.00    +0.350 HD
ENDBRANCH   7   9
ENDBRANCH   4   6
ENDBRANCH   1   4
BRANCH   1  16
ATOM     16  C   LIG    1       -0.013   1.086   0.008  0.00  0.00    +0.180 C 
BRANCH  16  17
ATOM     17  O   LIG    1       -0.704   1.559  -1.150  0.00  0.00    -0.300 OA
BRANCH  17  18
ATOM     18  C   LIG    1       -0.194   1.208  -2.359  0.00  0.00    +0.160 A 
ATOM     19  C   LIG    1        0.951   0.428  -2.431  0.00  0.00    -0.070 A 
ATOM     20  C   LIG    1        1.464   0.067  -3.662  0.00  0.00    +0.110 A 
ATOM     21  C   LIG    1        0.844   0.492  -4.822  0.00  0.00    -0.220 A 
ATOM     22  C   LIG    1       -0.294   1.274  -4.753  0.00  0.00    +0.110 A 
ATOM     23  C   LIG    1       -0.815   1.633  -3.525  0.00  0.00    -0.010 A 
BRANCH  21  24
ATOM     24  C   LIG    1        1.409   0.102  -6.163  0.00  0.00    +0.510 C 
ATOM     25  F   LIG    1        0.372   0.013  -7.098  0.00  0.00    -0.180 F 
ATOM     26  F   LIG    1        2.049  -1.138  -6.057  0.00  0.00    -0.180 F 
ATOM     27  F   LIG    1        2.331   1.068  -6.580  0.00  0.00    -0.180 F 
ENDBRANCH  21  24
ENDBRANCH  17  18
ENDBRANCH  16  17
ENDBRANCH   1  16
TORSDOF 8
