REMARK  Name = ZINCtV00000L6jrE.0
REMARK                            x       y       z     vdW  Elec       q    Type
REMARK                         _______ _______ _______ _____ _____    ______ ____
ROOT
ATOM      1  C   LIG    1       -0.043   3.843   0.024  0.00  0.00    -0.100 A 
ATOM      2  C   LIG    1        1.160   3.166   0.008  0.00  0.00    +0.110 A 
ATOM      3  C   LIG    1        1.176   1.782   0.000  0.00  0.00    -0.120 A 
ATOM      4  C   LIG    1       -0.013   1.076   0.008  0.00  0.00    +0.110 A 
ATOM      5  C   LIG    1       -1.220   1.750   0.017  0.00  0.00    -0.200 A 
ATOM      6  C   LIG    1       -2.510   0.969   0.013  0.00  0.00    +0.300 C 
ATOM      7  O   LIG    1       -3.585   1.830   0.399  0.00  0.00    -0.370 OA
ATOM      8  C   LIG    1       -3.590   3.074  -0.313  0.00  0.00    +0.390 C 
ATOM      9  O   LIG    1       -2.418   3.811   0.057  0.00  0.00    -0.310 OA
ATOM     10 BR   LIG    1        2.825   0.857  -0.020  0.00  0.00    -0.040 Br
ATOM     11  C   LIG    1       -1.238   3.135   0.033  0.00  0.00    +0.170 A 
ENDROOT
BRANCH   8  12
ATOM     12  C   LIG    1       -4.818   3.864   0.059  0.00  0.00    -0.090 A 
ATOM     13  C   LIG    1       -4.688   5.110   0.643  0.00  0.00    +0.050 A 
ATOM     14  C   LIG    1       -5.814   5.838   0.979  0.00  0.00    +0.010 A 
ATOM     15  C   LIG    1       -7.071   5.314   0.742  0.00  0.00    +0.030 A 
ATOM     16  C   LIG    1       -7.202   4.065   0.164  0.00  0.00    +0.010 A 
ATOM     17  C   LIG    1       -6.075   3.340  -0.178  0.00  0.00    +0.040 A 
ENDBRANCH   8  12
BRANCH   1  18
ATOM     18  C   LIG    1       -0.060   5.350   0.032  0.00  0.00    +0.110 C 
BRANCH  18  19
ATOM     19  S   LIG    1       -0.085   5.963  -1.675  0.00  0.00    +0.050 S 
BRANCH  19  26
ATOM     20  C   LIG    1       -0.118   8.546  -2.579  0.00  0.00    -0.030 A 
ATOM     21  C   LIG    1       -0.136   9.917  -2.413  0.00  0.00    +0.150 A 
ATOM     22  C   LIG    1       -0.129  10.461  -1.140  0.00  0.00    -0.050 A 
ATOM     23  C   LIG    1       -0.108   9.634  -0.031  0.00  0.00    +0.130 A 
ATOM     24  C   LIG    1       -0.095   8.262  -0.191  0.00  0.00    +0.030 A 
ATOM     25 CL   LIG    1       -0.146  12.185  -0.935  0.00  0.00    -0.030 Cl
ATOM     26  C   LIG    1       -0.102   7.713  -1.467  0.00  0.00    -0.040 A 
BRANCH  20  28
ATOM     27  O   LIG    1       -0.133   8.696  -4.914  0.00  0.00    -0.160 OA
ATOM     28  N   LIG    1       -0.119   7.965  -3.940  0.00  0.00    +0.030 N 
ATOM     29  O   LIG    1       -0.107   6.756  -4.086  0.00  0.00    -0.140 OA
ENDBRANCH  20  28
ENDBRANCH  19  26
ENDBRANCH  18  19
ENDBRANCH   1  18
TORSDOF 5
