REMARK  Name = ZINCrg000000rSR5.0
REMARK                            x       y       z     vdW  Elec       q    Type
REMARK                         _______ _______ _______ _____ _____    ______ ____
ROOT
ATOM      1  C   LIG    1       -0.343   7.595   5.976  0.00  0.00    +0.090 C 
ATOM      2  C   LIG    1       -1.649   6.872   6.313  0.00  0.00    +0.170 C 
ATOM      3  N   LIG    1       -1.375   5.574   6.955  0.00  0.00    -0.720 N 
ATOM      4  H   LIG    1       -0.910   5.429   7.793  0.00  0.00    +0.440 HD
ATOM      5  C   LIG    1       -1.899   4.630   6.152  0.00  0.00    +0.710 C 
ATOM      6  N   LIG    1       -2.475   5.148   5.061  0.00  0.00    -0.560 N 
ATOM      7  O   LIG    1       -1.853   3.439   6.391  0.00  0.00    -0.530 OA
ATOM      8  C   LIG    1       -2.391   6.493   5.046  0.00  0.00    +0.540 C 
ATOM      9  O   LIG    1       -2.819   7.244   4.196  0.00  0.00    -0.430 OA
ENDROOT
BRANCH   2  10
ATOM     10  C   LIG    1       -2.515   7.729   7.199  0.00  0.00    -0.090 A 
ATOM     11  C   LIG    1       -2.839   7.301   8.472  0.00  0.00    +0.060 A 
ATOM     12  C   LIG    1       -3.629   8.090   9.287  0.00  0.00    +0.050 A 
ATOM     13  C   LIG    1       -4.106   9.303   8.825  0.00  0.00    -0.010 A 
ATOM     14  C   LIG    1       -3.787   9.730   7.548  0.00  0.00    +0.050 A 
ATOM     15 CL   LIG    1       -5.103  10.291   9.846  0.00  0.00    -0.050 Cl
ATOM     16  C   LIG    1       -2.991   8.943   6.735  0.00  0.00    -0.010 A 
ATOM     17 CL   LIG    1       -2.590   9.478   5.133  0.00  0.00    -0.020 Cl
ENDBRANCH   2  10
BRANCH   6  18
ATOM     18  C   LIG    1       -3.122   4.352   4.015  0.00  0.00    +0.360 C 
BRANCH  18  19
ATOM     19  C   LIG    1       -2.109   3.994   2.958  0.00  0.00    +0.500 C 
ATOM     20  N   LIG    1       -2.481   3.260   1.891  0.00  0.00    -0.710 N 
ATOM     21  H   LIG    1       -3.399   2.961   1.803  0.00  0.00    +0.410 HD
ATOM     22  O   LIG    1       -0.961   4.367   3.067  0.00  0.00    -0.520 OA
BRANCH  20  23
ATOM     23  C   LIG    1       -1.496   2.912   0.863  0.00  0.00    +0.270 C 
ATOM     24  C   LIG    1       -0.777   1.604   1.243  0.00  0.00    +0.060 C 
ATOM     25  C   LIG    1       -0.013   1.086   0.008  0.00  0.00    -0.310 C 
ATOM     26  S   LIG    1       -0.947   1.716  -1.433  0.00  0.00    +2.400 S 
ATOM     27  O   LIG    1       -1.569   0.629  -2.103  0.00  0.00    -0.930 OA
ATOM     28  O   LIG    1       -0.133   2.626  -2.160  0.00  0.00    -0.930 OA
ATOM     29  C   LIG    1       -2.210   2.651  -0.489  0.00  0.00    -0.310 C 
ENDBRANCH  20  23
ENDBRANCH  18  19
ENDBRANCH   6  18
TORSDOF 4
