REMARK  Name = ZINCrH000004muvK.0
REMARK                            x       y       z     vdW  Elec       q    Type
REMARK                         _______ _______ _______ _____ _____    ______ ____
ROOT
ATOM      1  C   LIG    1       -4.901  -0.510   0.439  0.00  0.00    +0.250 A 
ATOM      2  C   LIG    1       -3.707  -1.219   0.401  0.00  0.00    -0.080 A 
ATOM      3  C   LIG    1       -2.509  -0.549   0.280  0.00  0.00    +0.150 A 
ATOM      4  C   LIG    1       -2.497   0.845   0.195  0.00  0.00    -0.190 A 
ATOM      5  C   LIG    1       -3.700   1.555   0.238  0.00  0.00    +0.250 A 
ATOM      6  C   LIG    1       -4.893   0.878   0.355  0.00  0.00    -0.720 A 
ENDROOT
BRANCH   4   7
ATOM      7  C   LIG    1       -1.216   1.567   0.065  0.00  0.00    +0.560 C 
ATOM      8  N   LIG    1       -0.057   0.881   0.029  0.00  0.00    -0.670 N 
ATOM      9  H   LIG    1       -0.067  -0.089   0.021  0.00  0.00    +0.410 HD
ATOM     10  O   LIG    1       -1.207   2.781  -0.009  0.00  0.00    -0.510 OA
BRANCH   8  11
ATOM     11  C   LIG    1        1.161   1.568  -0.003  0.00  0.00    +0.140 A 
ATOM     12  C   LIG    1        1.263   2.772  -0.688  0.00  0.00    +0.020 A 
ATOM     13  C   LIG    1        2.467   3.448  -0.718  0.00  0.00    +0.020 A 
ATOM     14  C   LIG    1        3.571   2.926  -0.068  0.00  0.00    -0.010 A 
ATOM     15  C   LIG    1        3.473   1.727   0.615  0.00  0.00    +0.030 A 
ATOM     16  C   LIG    1        2.270   1.050   0.654  0.00  0.00    -0.100 A 
BRANCH  16  17
ATOM     17  C   LIG    1        2.162  -0.253   1.403  0.00  0.00    +0.020 C 
ATOM     18  C   LIG    1        2.378  -0.002   2.897  0.00  0.00    +0.040 C 
ATOM     19  C   LIG    1        3.226  -1.226   0.890  0.00  0.00    +0.030 C 
ENDBRANCH  16  17
ENDBRANCH   8  11
ENDBRANCH   4   7
BRANCH   6  20
ATOM     20  S   LIG    1       -6.411   1.771   0.406  0.00  0.00    +2.700 S 
ATOM     21  O   LIG    1       -6.073   3.144   0.265  0.00  0.00    -0.960 OA
ATOM     22  O   LIG    1       -7.141   1.260   1.512  0.00  0.00    -0.940 OA
BRANCH  20  23
ATOM     23  N   LIG    1       -7.267   1.359  -0.951  0.00  0.00    -1.110 NA
ATOM     24  H   LIG    1       -7.456   2.028  -1.627  0.00  0.00    +0.420 HD
BRANCH  23  25
ATOM     25  C   LIG    1       -7.740  -0.016  -1.129  0.00  0.00    +0.250 C 
ATOM     26  C   LIG    1       -6.730  -0.797  -1.973  0.00  0.00    +0.020 C 
ATOM     27  C   LIG    1       -9.095  -0.002  -1.838  0.00  0.00    +0.030 C 
ENDBRANCH  23  25
ENDBRANCH  20  23
ENDBRANCH   6  20
BRANCH   1  29
ATOM     28  C   LIG    1       -6.015  -2.599   0.641  0.00  0.00    +0.270 C 
ATOM     29  O   LIG    1       -6.079  -1.174   0.559  0.00  0.00    -0.300 OA
ENDBRANCH   1  29
TORSDOF 7
