REMARK  Name = ZINCrH000004ssJ1.0
REMARK                            x       y       z     vdW  Elec       q    Type
REMARK                         _______ _______ _______ _____ _____    ______ ____
ROOT
ATOM      1  C   LIG    1        0.154   0.023  -0.453  0.00  0.00    +0.160 A 
ATOM      2  C   LIG    1        1.323  -0.667  -0.154  0.00  0.00    -0.090 A 
ATOM      3  C   LIG    1        1.302  -2.038  -0.030  0.00  0.00    +0.080 A 
ATOM      4  C   LIG    1        0.106  -2.737  -0.216  0.00  0.00    -0.170 A 
ATOM      5  C   LIG    1       -1.066  -2.039  -0.522  0.00  0.00    +0.120 A 
ATOM      6  C   LIG    1       -1.037  -0.667  -0.639  0.00  0.00    -0.020 A 
ENDROOT
BRANCH   4   7
ATOM      7  C   LIG    1        0.080  -4.207  -0.090  0.00  0.00    +0.570 C 
ATOM      8  N   LIG    1        1.230  -4.908  -0.137  0.00  0.00    -0.600 N 
ATOM      9  C   LIG    1        2.516  -4.206  -0.127  0.00  0.00    +0.290 C 
ATOM     10  O   LIG    1       -0.979  -4.786   0.057  0.00  0.00    -0.530 OA
BRANCH   8  11
ATOM     11  C   LIG    1        1.195  -6.371  -0.199  0.00  0.00    +0.290 C 
ATOM     12  C   LIG    1        1.788  -6.866  -1.535  0.00  0.00    +0.040 C 
ATOM     13  C   LIG    1        3.271  -7.095  -1.175  0.00  0.00    +0.070 C 
ATOM     14  C   LIG    1        3.278  -7.380   0.312  0.00  0.00    -0.090 A 
ATOM     15  C   LIG    1        4.251  -7.957   1.111  0.00  0.00    +0.010 A 
ATOM     16  C   LIG    1        4.027  -8.118   2.471  0.00  0.00    +0.020 A 
ATOM     17  C   LIG    1        2.834  -7.702   3.029  0.00  0.00    +0.010 A 
ATOM     18  C   LIG    1        1.863  -7.126   2.232  0.00  0.00    +0.030 A 
ATOM     19  C   LIG    1        2.083  -6.963   0.875  0.00  0.00    -0.110 A 
ENDBRANCH   8  11
ENDBRANCH   4   7
BRANCH   1  20
ATOM     20  O   LIG    1        0.178   1.375  -0.569  0.00  0.00    -0.310 OA
BRANCH  20  21
ATOM     21  C   LIG    1        1.436   2.022  -0.365  0.00  0.00    +0.360 C 
BRANCH  21  25
ATOM     22  C   LIG    1        1.197   6.634  -2.300  0.00  0.00    +0.260 C 
ATOM     23  C   LIG    1        1.171   5.454  -1.363  0.00  0.00    +0.190 A 
ATOM     24  N   LIG    1        1.406   4.203  -1.677  0.00  0.00    -0.470 NA
ATOM     25  C   LIG    1        1.269   3.510  -0.533  0.00  0.00    +0.160 A 
ATOM     26  N   LIG    1        0.971   4.361   0.403  0.00  0.00    -0.360 NA
ATOM     27  O   LIG    1        0.910   5.483  -0.053  0.00  0.00    +0.090 OA
ENDBRANCH  21  25
ENDBRANCH  20  21
ENDBRANCH   1  20
TORSDOF 5
