REMARK  Name = ZINCpe00000VQFCj.0
REMARK                            x       y       z     vdW  Elec       q    Type
REMARK                         _______ _______ _______ _____ _____    ______ ____
ROOT
ATOM      1  C   LIG    1       -2.290   1.557  -0.665  0.00  0.00    +0.320 C 
ATOM      2  C   LIG    1       -0.839   1.637  -1.184  0.00  0.00    +0.060 C 
ATOM      3  C   LIG    1       -0.013   1.086   0.008  0.00  0.00    +0.040 C 
ATOM      4  C   LIG    1       -0.815   1.624   1.219  0.00  0.00    +0.260 C 
ATOM      5  N   LIG    1       -2.228   1.535   0.804  0.00  0.00    -0.600 N 
ATOM      6  C   LIG    1       -3.286   1.450   1.634  0.00  0.00    +0.540 C 
ATOM      7  O   LIG    1       -4.409   1.382   1.180  0.00  0.00    -0.530 OA
ENDROOT
BRANCH   1  17
ATOM      8  C   LIG    1       -4.441   1.582  -2.886  0.00  0.00    +0.340 C 
ATOM      9  N   LIG    1       -4.011   2.748  -2.111  0.00  0.00    -0.480 N 
ATOM     10  C   LIG    1       -4.490   4.037  -2.236  0.00  0.00    +0.050 A 
ATOM     11  C   LIG    1       -5.442   4.639  -3.047  0.00  0.00    +0.010 A 
ATOM     12  C   LIG    1       -5.686   5.991  -2.925  0.00  0.00    +0.030 A 
ATOM     13  C   LIG    1       -4.989   6.751  -1.997  0.00  0.00    +0.000 A 
ATOM     14  C   LIG    1       -4.048   6.174  -1.190  0.00  0.00    +0.070 A 
ATOM     15  C   LIG    1       -3.783   4.807  -1.297  0.00  0.00    +0.050 A 
ATOM     16  N   LIG    1       -2.932   3.965  -0.656  0.00  0.00    -0.480 NA
ATOM     17  C   LIG    1       -3.068   2.761  -1.130  0.00  0.00    +0.280 A 
ENDBRANCH   1  17
BRANCH   6  18
ATOM     18  C   LIG    1       -3.075   1.437   3.126  0.00  0.00    +0.090 C 
BRANCH  18  19
ATOM     19  C   LIG    1       -4.428   1.334   3.832  0.00  0.00    +0.250 C 
ATOM     20  N   LIG    1       -5.034   0.011   3.601  0.00  0.00    -0.710 N 
ATOM     21  H   LIG    1       -5.289  -0.368   2.746  0.00  0.00    +0.450 HD
ATOM     22  C   LIG    1       -5.162  -0.567   4.813  0.00  0.00    +0.700 C 
ATOM     23  N   LIG    1       -4.718   0.216   5.803  0.00  0.00    -0.680 N 
ATOM     24  H   LIG    1       -4.731  -0.032   6.741  0.00  0.00    +0.440 HD
ATOM     25  O   LIG    1       -5.630  -1.675   4.986  0.00  0.00    -0.540 OA
ATOM     26  C   LIG    1       -4.250   1.391   5.337  0.00  0.00    +0.530 C 
ATOM     27  O   LIG    1       -3.785   2.303   5.985  0.00  0.00    -0.460 OA
ENDBRANCH  18  19
ENDBRANCH   6  18
TORSDOF 3
