REMARK  Name = ZINCrD000000CZex.0
REMARK                            x       y       z     vdW  Elec       q    Type
REMARK                         _______ _______ _______ _____ _____    ______ ____
ROOT
ATOM      1  O   LIG    1       -2.158  -0.174  -1.466  0.00  0.00    -0.440 OA
ATOM      2  C   LIG    1       -1.714   0.906  -1.798  0.00  0.00    +0.580 C 
ATOM      3  C   LIG    1       -2.175   1.712  -2.947  0.00  0.00    -0.090 A 
ATOM      4  C   LIG    1       -3.146   1.542  -3.921  0.00  0.00    +0.130 A 
ATOM      5  C   LIG    1       -3.325   2.517  -4.890  0.00  0.00    +0.150 A 
ATOM      6  C   LIG    1       -2.544   3.657  -4.891  0.00  0.00    -0.030 A 
ATOM      7  C   LIG    1       -1.568   3.841  -3.923  0.00  0.00    +0.180 A 
ATOM      8  C   LIG    1       -1.377   2.875  -2.949  0.00  0.00    -0.140 A 
ATOM      9  C   LIG    1       -0.461   2.737  -1.796  0.00  0.00    +0.580 C 
ATOM     10  O   LIG    1        0.384   3.543  -1.463  0.00  0.00    -0.440 OA
ATOM     11  N   LIG    1       -0.721   1.571  -1.179  0.00  0.00    -0.570 N 
ENDROOT
BRANCH   6  12
ATOM     12  N   LIG    1       -2.749   4.688  -5.933  0.00  0.00    +0.020 N 
ATOM     13  O   LIG    1       -3.604   4.531  -6.785  0.00  0.00    -0.140 OA
ATOM     14  O   LIG    1       -2.062   5.694  -5.938  0.00  0.00    -0.140 OA
ENDBRANCH   6  12
BRANCH  11  15
ATOM     15  C   LIG    1       -0.013   1.086   0.008  0.00  0.00    +0.380 C 
BRANCH  15  16
ATOM     16  C   LIG    1       -0.718   1.572   1.248  0.00  0.00    -0.090 A 
ATOM     17  C   LIG    1       -1.719   0.807   1.817  0.00  0.00    +0.000 A 
ATOM     18  C   LIG    1       -2.368   1.250   2.956  0.00  0.00    +0.050 A 
ATOM     19  C   LIG    1       -2.017   2.458   3.526  0.00  0.00    -0.060 A 
ATOM     20  C   LIG    1       -1.012   3.227   2.957  0.00  0.00    +0.120 A 
ATOM     21  C   LIG    1       -0.360   2.778   1.818  0.00  0.00    +0.020 A 
BRANCH  20  22
ATOM     22  O   LIG    1       -0.664   4.415   3.517  0.00  0.00    -0.300 OA
BRANCH  22  23
ATOM     23  C   LIG    1       -1.375   4.811   4.692  0.00  0.00    +0.230 C 
BRANCH  23  24
ATOM     24  C   LIG    1       -0.848   6.165   5.174  0.00  0.00    +0.470 C 
ATOM     25  F   LIG    1        0.515   6.057   5.467  0.00  0.00    -0.170 F 
ATOM     26  F   LIG    1       -1.544   6.552   6.324  0.00  0.00    -0.170 F 
ATOM     27  F   LIG    1       -1.036   7.122   4.171  0.00  0.00    -0.170 F 
ENDBRANCH  23  24
ENDBRANCH  22  23
ENDBRANCH  20  22
ENDBRANCH  15  16
ENDBRANCH  11  15
TORSDOF 6
