REMARK  Name = ZINCrD000000DbAf.0
REMARK                            x       y       z     vdW  Elec       q    Type
REMARK                         _______ _______ _______ _____ _____    ______ ____
ROOT
ATOM      1  O   LIG    1        4.322   1.691  -3.162  0.00  0.00    -0.520 OA
ATOM      2  C   LIG    1        4.689   0.580  -2.818  0.00  0.00    +0.570 A 
ATOM      3  C   LIG    1        3.987  -0.138  -1.800  0.00  0.00    -0.220 A 
ATOM      4  C   LIG    1        4.453  -1.397  -1.453  0.00  0.00    +0.070 A 
ATOM      5  S   LIG    1        3.437  -2.073  -0.191  0.00  0.00    +0.200 S 
ATOM      6  C   LIG    1        2.407  -0.648  -0.151  0.00  0.00    -0.190 A 
ATOM      7  C   LIG    1        1.221  -0.494   0.781  0.00  0.00    +0.110 C 
ATOM      8  C   LIG    1        0.002  -0.004   0.002  0.00  0.00    +0.020 C 
ATOM      9  C   LIG    1       -0.019   1.522   0.010  0.00  0.00    +0.010 C 
ATOM     10  C   LIG    1        1.412   2.056  -0.000  0.00  0.00    +0.010 C 
ATOM     11  C   LIG    1        2.120   1.599  -1.271  0.00  0.00    +0.110 C 
ATOM     12  N   LIG    1        5.540  -1.902  -2.078  0.00  0.00    -0.500 NA
ATOM     13  C   LIG    1        6.165  -1.236  -3.002  0.00  0.00    +0.590 A 
ATOM     14  C   LIG    1        2.808   0.263  -1.038  0.00  0.00    -0.030 A 
ATOM     15  N   LIG    1        5.764   0.002  -3.390  0.00  0.00    -0.530 N 
ENDROOT
BRANCH  15  16
ATOM     16  C   LIG    1        6.503   0.714  -4.436  0.00  0.00    +0.280 C 
BRANCH  16  17
ATOM     17  C   LIG    1        7.612   1.552  -3.797  0.00  0.00    +0.260 C 
BRANCH  17  18
ATOM     18  C   LIG    1        8.372   2.284  -4.873  0.00  0.00    -0.120 A 
ATOM     19  C   LIG    1        7.905   3.494  -5.348  0.00  0.00    +0.080 A 
ATOM     20  C   LIG    1        8.605   4.168  -6.332  0.00  0.00    +0.040 A 
ATOM     21  C   LIG    1        9.767   3.625  -6.847  0.00  0.00    +0.110 A 
ATOM     22  C   LIG    1       10.232   2.411  -6.376  0.00  0.00    -0.040 A 
ATOM     23  C   LIG    1        9.534   1.740  -5.389  0.00  0.00    +0.120 A 
BRANCH  22  24
ATOM     24  N   LIG    1       11.476   1.830  -6.928  0.00  0.00    +0.030 N 
ATOM     25  O   LIG    1       12.090   2.421  -7.798  0.00  0.00    -0.150 OA
ATOM     26  O   LIG    1       11.885   0.760  -6.513  0.00  0.00    -0.150 OA
ENDBRANCH  22  24
ENDBRANCH  17  18
BRANCH  17  27
ATOM     27  O   LIG    1        7.034   2.498  -2.895  0.00  0.00    -0.540 OA
ATOM     28  H   LIG    1        6.416   3.113  -3.313  0.00  0.00    +0.380 HD
ENDBRANCH  17  27
ENDBRANCH  16  17
ENDBRANCH  15  16
TORSDOF 5
