REMARK  Name = ZINCvU00000003Zk.0
REMARK                            x       y       z     vdW  Elec       q    Type
REMARK                         _______ _______ _______ _____ _____    ______ ____
ROOT
ATOM      1  C   LIG    1       -1.359   0.369   1.955  0.00  0.00    +0.150 A 
ATOM      2  N   LIG    1       -1.534   0.841   3.168  0.00  0.00    -0.290 NA
ATOM      3  N   LIG    1       -1.040   2.023   3.258  0.00  0.00    -0.240 NA
ATOM      4  C   LIG    1       -0.513   2.377   2.109  0.00  0.00    +0.220 A 
ATOM      5  N   LIG    1       -0.707   1.331   1.237  0.00  0.00    -0.450 N 
ENDROOT
BRANCH   4   6
ATOM      6  C   LIG    1        0.157   3.660   1.807  0.00  0.00    -0.010 A 
ATOM      7  C   LIG    1        1.396   3.668   1.165  0.00  0.00    +0.060 A 
ATOM      8  C   LIG    1        2.017   4.868   0.885  0.00  0.00    +0.050 A 
ATOM      9  C   LIG    1        1.414   6.063   1.240  0.00  0.00    -0.010 A 
ATOM     10  C   LIG    1        0.185   6.062   1.879  0.00  0.00    +0.050 A 
ATOM     11 CL   LIG    1        2.202   7.568   0.885  0.00  0.00    -0.040 Cl
ATOM     12  C   LIG    1       -0.449   4.868   2.159  0.00  0.00    +0.010 A 
ATOM     13 CL   LIG    1       -1.993   4.868   2.952  0.00  0.00    -0.030 Cl
ENDBRANCH   4   6
BRANCH   1  14
ATOM     14  S   LIG    1       -1.869  -1.211   1.363  0.00  0.00    +0.110 S 
BRANCH  14  15
ATOM     15  C   LIG    1       -2.636  -1.875   2.862  0.00  0.00    +0.130 C 
BRANCH  15  18
ATOM     16  N   LIG    1       -3.776  -3.954   3.564  0.00  0.00    -0.620 N 
ATOM     17  H   LIG    1       -3.882  -3.562   4.445  0.00  0.00    +0.420 HD
ATOM     18  C   LIG    1       -3.160  -3.260   2.587  0.00  0.00    +0.530 C 
ATOM     19  O   LIG    1       -3.028  -3.751   1.486  0.00  0.00    -0.480 OA
BRANCH  16  21
ATOM     20  C   LIG    1       -4.894  -6.021   4.232  0.00  0.00    -0.110 A 
ATOM     21  C   LIG    1       -4.259  -5.231   3.311  0.00  0.00    +0.050 A 
ATOM     22  S   LIG    1       -4.138  -6.033   1.811  0.00  0.00    +0.320 S 
ATOM     23  C   LIG    1       -4.959  -7.459   2.420  0.00  0.00    -0.100 A 
ATOM     24  C   LIG    1       -5.294  -7.302   3.693  0.00  0.00    +0.080 A 
BRANCH  20  26
ATOM     25  N   LIG    1       -5.332  -5.301   6.658  0.00  0.00    -0.420 NA
ATOM     26  C   LIG    1       -5.138  -5.620   5.585  0.00  0.00    +0.270 C 
ENDBRANCH  20  26
ENDBRANCH  16  21
ENDBRANCH  15  18
ENDBRANCH  14  15
ENDBRANCH   1  14
BRANCH   5  27
ATOM     27  C   LIG    1       -0.293   1.260  -0.167  0.00  0.00    +0.440 C 
BRANCH  27  28
ATOM     28  C   LIG    1       -1.404   1.779  -1.044  0.00  0.00    -0.060 A 
ATOM     29  C   LIG    1       -1.529   3.041  -1.491  0.00  0.00    -0.010 A 
ATOM     30  C   LIG    1       -2.704   3.083  -2.276  0.00  0.00    -0.070 A 
ATOM     31  C   LIG    1       -3.231   1.846  -2.255  0.00  0.00    +0.200 A 
ATOM     32  O   LIG    1       -2.439   1.060  -1.507  0.00  0.00    -0.160 OA
ENDBRANCH  27  28
ENDBRANCH   5  27
TORSDOF 8
