REMARK  Name = ZINCrH000004njcl.0
REMARK                            x       y       z     vdW  Elec       q    Type
REMARK                         _______ _______ _______ _____ _____    ______ ____
ROOT
ATOM      1  C   LIG    1        2.494   3.892  -0.107  0.00  0.00    -0.100 C 
ATOM      2  C   LIG    1        2.902   4.701  -1.068  0.00  0.00    +0.000 C 
ATOM      3  C   LIG    1        4.220   5.323  -0.688  0.00  0.00    +0.280 C 
ATOM      4  N   LIG    1        4.589   4.790   0.631  0.00  0.00    -0.630 N 
ATOM      5  C   LIG    1        5.696   5.078   1.344  0.00  0.00    +0.740 C 
ATOM      6  N   LIG    1        6.608   5.941   0.853  0.00  0.00    -0.680 N 
ATOM      7  H   LIG    1        6.502   6.303  -0.040  0.00  0.00    +0.410 HD
ATOM      8  O   LIG    1        5.873   4.559   2.429  0.00  0.00    -0.560 OA
ATOM      9  C   LIG    1        3.501   3.880   1.013  0.00  0.00    +0.320 C 
ENDROOT
BRANCH   6  10
ATOM     10  C   LIG    1        7.710   6.314   1.634  0.00  0.00    +0.160 A 
ATOM     11  C   LIG    1        8.291   5.398   2.497  0.00  0.00    +0.030 A 
ATOM     12  C   LIG    1        9.383   5.772   3.269  0.00  0.00    +0.160 A 
ATOM     13  C   LIG    1        9.889   7.061   3.176  0.00  0.00    +0.030 A 
ATOM     14  C   LIG    1        9.308   7.973   2.315  0.00  0.00    +0.040 A 
ATOM     15  C   LIG    1        8.225   7.603   1.540  0.00  0.00    +0.050 A 
ATOM     16  F   LIG    1        7.662   8.495   0.695  0.00  0.00    -0.140 F 
BRANCH  12  17
ATOM     17  N   LIG    1        9.972   4.849   4.142  0.00  0.00    -0.670 N 
ATOM     18  H   LIG    1        9.447   4.116   4.500  0.00  0.00    +0.420 HD
ATOM     19  C   LIG    1       11.269   4.979   4.484  0.00  0.00    +0.510 C 
ATOM     20  O   LIG    1       11.953   5.830   3.957  0.00  0.00    -0.520 OA
ATOM     21  C   LIG    1       11.869   4.067   5.524  0.00  0.00    +0.110 C 
ENDBRANCH  12  17
ENDBRANCH   6  10
BRANCH   1  26
ATOM     22  C   LIG    1       -1.163   3.025  -0.141  0.00  0.00    +0.130 A 
ATOM     23  C   LIG    1       -1.109   1.638  -0.182  0.00  0.00    -0.070 A 
ATOM     24  C   LIG    1        0.112   0.989  -0.189  0.00  0.00    +0.050 A 
ATOM     25  C   LIG    1        1.285   1.716  -0.166  0.00  0.00    -0.010 A 
ATOM     26  C   LIG    1        1.240   3.111  -0.131  0.00  0.00    -0.000 A 
ATOM     27  C   LIG    1        0.008   3.764  -0.118  0.00  0.00    +0.000 A 
BRANCH  22  29
ATOM     28  C   LIG    1       -3.533   2.833  -0.154  0.00  0.00    +0.250 C 
ATOM     29  O   LIG    1       -2.365   3.658  -0.129  0.00  0.00    -0.320 OA
ENDBRANCH  22  29
ENDBRANCH   1  26
TORSDOF 4
