REMARK  Name = ZINCnE000001DGx0.0
REMARK                            x       y       z     vdW  Elec       q    Type
REMARK                         _______ _______ _______ _____ _____    ______ ____
ROOT
ATOM      1  N   LIG    1       -2.393   1.210   3.735  0.00  0.00    -0.670 N 
ATOM      2  H   LIG    1       -1.637   0.607   3.815  0.00  0.00    +0.410 HD
ATOM      3  C   LIG    1       -2.874   1.531   2.518  0.00  0.00    +0.520 C 
ATOM      4  O   LIG    1       -3.868   2.218   2.420  0.00  0.00    -0.520 OA
ENDROOT
BRANCH   1  11
ATOM      5  C   LIG    1       -2.200   2.063   5.995  0.00  0.00    +0.190 A 
ATOM      6  C   LIG    1       -2.792   2.593   7.131  0.00  0.00    -0.030 A 
ATOM      7  C   LIG    1       -4.157   2.808   7.164  0.00  0.00    +0.010 A 
ATOM      8  C   LIG    1       -4.937   2.496   6.064  0.00  0.00    +0.060 A 
ATOM      9  C   LIG    1       -4.353   1.970   4.924  0.00  0.00    +0.040 A 
ATOM     10  F   LIG    1       -6.271   2.708   6.101  0.00  0.00    -0.140 F 
ATOM     11  C   LIG    1       -2.986   1.747   4.886  0.00  0.00    +0.100 A 
BRANCH   5  12
ATOM     12  N   LIG    1       -0.818   1.844   5.960  0.00  0.00    -0.740 N 
ATOM     13  H   LIG    1       -0.405   1.472   5.165  0.00  0.00    +0.400 HD
BRANCH  12  15
ATOM     14  C   LIG    1        1.276   1.322   7.113  0.00  0.00    +0.030 C 
ATOM     15  C   LIG    1        0.006   2.176   7.125  0.00  0.00    +0.230 C 
ATOM     16  C   LIG    1        0.387   3.657   7.075  0.00  0.00    +0.010 C 
ENDBRANCH  12  15
ENDBRANCH   5  12
ENDBRANCH   1  11
BRANCH   3  17
ATOM     17  C   LIG    1       -2.175   1.035   1.278  0.00  0.00    +0.000 C 
ATOM     18  C   LIG    1       -2.919   1.538   0.038  0.00  0.00    +0.020 C 
ATOM     19  C   LIG    1       -2.210   1.035  -1.221  0.00  0.00    +0.030 C 
ATOM     20  C   LIG    1       -0.772   1.560  -1.240  0.00  0.00    -0.100 C 
ATOM     21  C   LIG    1       -0.029   1.057  -0.001  0.00  0.00    +0.040 C 
ATOM     22  C   LIG    1       -0.738   1.560   1.258  0.00  0.00    +0.000 C 
BRANCH  20  23
ATOM     23  C   LIG    1       -0.074   1.065  -2.481  0.00  0.00    +0.490 C 
ATOM     24  O   LIG    1        1.130   0.873  -2.467  0.00  0.00    -0.700 OA
ATOM     25  O   LIG    1       -0.713   0.855  -3.498  0.00  0.00    -0.700 OA
ENDBRANCH  20  23
ENDBRANCH   3  17
TORSDOF 5
