REMARK  Name = ZINCvU0000000Gkm.0
REMARK                            x       y       z     vdW  Elec       q    Type
REMARK                         _______ _______ _______ _____ _____    ______ ____
ROOT
ATOM      1  C   LIG    1        4.093   0.796  -3.253  0.00  0.00    -0.280 A 
ATOM      2  C   LIG    1        4.079   1.188  -1.931  0.00  0.00    +0.280 A 
ATOM      3  N   LIG    1        2.903   0.817  -1.403  0.00  0.00    -0.350 N 
ATOM      4  N   LIG    1        2.134   0.170  -2.374  0.00  0.00    -0.270 NA
ATOM      5  C   LIG    1        2.805   0.141  -3.503  0.00  0.00    +0.170 A 
ENDROOT
BRANCH   5   6
ATOM      6  C   LIG    1        2.351  -0.451  -4.785  0.00  0.00    -0.030 A 
ATOM      7  C   LIG    1        2.712   0.140  -5.995  0.00  0.00    +0.090 A 
ATOM      8  C   LIG    1        2.290  -0.418  -7.185  0.00  0.00    -0.010 A 
ATOM      9  C   LIG    1        1.501  -1.554  -7.178  0.00  0.00    +0.010 A 
ATOM     10  C   LIG    1        1.135  -2.141  -5.980  0.00  0.00    -0.010 A 
ATOM     11  C   LIG    1        1.556  -1.595  -4.784  0.00  0.00    +0.030 A 
ENDBRANCH   5   6
BRANCH   1  14
ATOM     12  N   LIG    1        6.316   1.622  -3.842  0.00  0.00    -0.730 N 
ATOM     13  H   LIG    1        6.412   1.940  -2.931  0.00  0.00    +0.390 HD
ATOM     14  C   LIG    1        5.184   0.997  -4.222  0.00  0.00    +0.600 C 
ATOM     15  O   LIG    1        5.063   0.598  -5.365  0.00  0.00    -0.520 OA
BRANCH  12  16
ATOM     16  C   LIG    1        7.401   1.821  -4.806  0.00  0.00    +0.330 C 
BRANCH  16  17
ATOM     17  C   LIG    1        8.710   1.950  -4.069  0.00  0.00    -0.220 A 
ATOM     18  C   LIG    1        9.893   1.360  -4.362  0.00  0.00    -0.010 A 
ATOM     19  O   LIG    1       10.764   1.773  -3.430  0.00  0.00    +0.100 OA
ATOM     20  N   LIG    1       10.243   2.522  -2.636  0.00  0.00    -0.360 NA
ATOM     21  C   LIG    1       10.176   0.425  -5.510  0.00  0.00    +0.190 C 
ATOM     22  C   LIG    1        8.987   2.719  -2.916  0.00  0.00    +0.030 A 
ATOM     23  C   LIG    1        8.020   3.592  -2.158  0.00  0.00    +0.150 C 
ENDBRANCH  16  17
BRANCH  16  25
ATOM     24  C   LIG    1        5.878   2.917  -6.455  0.00  0.00    +0.020 C 
ATOM     25  C   LIG    1        7.141   3.096  -5.611  0.00  0.00    +0.000 C 
ENDBRANCH  16  25
ENDBRANCH  12  16
ENDBRANCH   1  14
BRANCH   3  26
ATOM     26  C   LIG    1        2.490   1.048  -0.016  0.00  0.00    +0.380 C 
BRANCH  26  27
ATOM     27  C   LIG    1        1.175   1.783   0.000  0.00  0.00    -0.120 A 
ATOM     28  C   LIG    1       -0.013   1.076   0.008  0.00  0.00    +0.040 A 
ATOM     29  C   LIG    1       -1.219   1.751   0.017  0.00  0.00    +0.010 A 
ATOM     30  C   LIG    1       -1.238   3.133   0.030  0.00  0.00    +0.010 A 
ATOM     31  C   LIG    1       -0.050   3.840   0.022  0.00  0.00    +0.000 A 
ATOM     32  C   LIG    1        1.156   3.165   0.008  0.00  0.00    +0.020 A 
ENDBRANCH  26  27
ENDBRANCH   3  26
TORSDOF 7
