REMARK  Name = ZINCpk000000oLmo.0
REMARK                            x       y       z     vdW  Elec       q    Type
REMARK                         _______ _______ _______ _____ _____    ______ ____
ROOT
ATOM      1  C   LIG    1        2.350   2.469   2.248  0.00  0.00    +0.530 C 
ATOM      2  N   LIG    1        2.192   1.649   1.190  0.00  0.00    -0.590 N 
ATOM      3  C   LIG    1        1.345   2.082   0.100  0.00  0.00    +0.280 C 
ATOM      4  C   LIG    1       -0.106   1.599   0.349  0.00  0.00    +0.030 C 
ATOM      5  C   LIG    1       -0.175   0.132   0.208  0.00  0.00    +0.180 C 
ATOM      6  N   LIG    1        0.642  -0.606   1.171  0.00  0.00    -0.500 N 
ATOM      7  C   LIG    1        1.988  -0.783   0.669  0.00  0.00    +0.200 C 
ATOM      8  C   LIG    1        2.892   0.347   1.195  0.00  0.00    +0.280 C 
ATOM      9  O   LIG    1        1.788   3.544   2.272  0.00  0.00    -0.530 OA
ENDROOT
BRANCH   1  12
ATOM     10  N   LIG    1        4.628   3.129   5.021  0.00  0.00    -0.620 N 
ATOM     11  C   LIG    1        3.258   3.143   4.494  0.00  0.00    +0.290 C 
ATOM     12  C   LIG    1        3.226   2.051   3.401  0.00  0.00    +0.000 C 
ATOM     13  C   LIG    1        4.710   1.988   2.975  0.00  0.00    +0.080 C 
ATOM     14  C   LIG    1        5.466   2.491   4.185  0.00  0.00    +0.520 C 
ATOM     15  O   LIG    1        6.655   2.342   4.373  0.00  0.00    -0.530 OA
BRANCH  10  17
ATOM     16  C   LIG    1        4.898   2.698   7.413  0.00  0.00    +0.020 C 
ATOM     17  C   LIG    1        5.031   3.732   6.293  0.00  0.00    +0.280 C 
ENDBRANCH  10  17
ENDBRANCH   1  12
BRANCH   6  18
ATOM     18  C   LIG    1        0.061  -1.831   1.484  0.00  0.00    +0.130 A 
ATOM     19  C   LIG    1       -0.588  -2.563   0.494  0.00  0.00    -0.030 A 
ATOM     20  C   LIG    1       -1.160  -3.778   0.798  0.00  0.00    +0.080 A 
ATOM     21  C   LIG    1       -1.097  -4.271   2.105  0.00  0.00    -0.040 A 
ATOM     22  C   LIG    1       -0.449  -3.530   3.098  0.00  0.00    +0.080 A 
ATOM     23  C   LIG    1        0.125  -2.318   2.786  0.00  0.00    +0.030 A 
BRANCH  21  24
ATOM     24  C   LIG    1       -1.694  -5.532   2.426  0.00  0.00    +0.250 C 
ATOM     25  N   LIG    1       -2.169  -6.533   2.681  0.00  0.00    -0.410 NA
ENDBRANCH  21  24
ENDBRANCH   6  18
TORSDOF 4
