REMARK  Name = ZINCpe00000MJJ0J.0
REMARK                            x       y       z     vdW  Elec       q    Type
REMARK                         _______ _______ _______ _____ _____    ______ ____
ROOT
ATOM      1  C   LIG    1        4.711   3.684  -1.234  0.00  0.00    +0.280 C 
ATOM      2  C   LIG    1        4.801   4.498   0.059  0.00  0.00    +0.030 C 
ATOM      3  C   LIG    1        4.848   3.542   1.254  0.00  0.00    +0.050 C 
ATOM      4  C   LIG    1        3.605   2.648   1.235  0.00  0.00    +0.180 C 
ATOM      5  N   LIG    1        3.565   1.890  -0.022  0.00  0.00    -0.500 NA
ATOM      6  C   LIG    1        3.472   2.786  -1.181  0.00  0.00    +0.190 C 
ENDROOT
BRANCH   1   9
ATOM      7  C   LIG    1        4.853   5.384  -4.344  0.00  0.00    -0.020 A 
ATOM      8  N   LIG    1        5.126   4.380  -3.535  0.00  0.00    -0.260 NA
ATOM      9  N   LIG    1        4.608   4.593  -2.378  0.00  0.00    -0.270 N 
ATOM     10  C   LIG    1        3.949   5.771  -2.371  0.00  0.00    +0.170 A 
ATOM     11  C   LIG    1        4.084   6.314  -3.604  0.00  0.00    -0.020 A 
BRANCH   7  15
ATOM     12  C   LIG    1        6.421   4.672  -7.731  0.00  0.00    +0.290 C 
ATOM     13  N   LIG    1        6.006   4.543  -6.332  0.00  0.00    -0.720 N 
ATOM     14  H   LIG    1        6.261   3.759  -5.821  0.00  0.00    +0.410 HD
ATOM     15  C   LIG    1        5.271   5.514  -5.755  0.00  0.00    +0.600 C 
ATOM     16  O   LIG    1        4.952   6.497  -6.395  0.00  0.00    -0.530 OA
ENDBRANCH   7  15
ENDBRANCH   1   9
BRANCH   5  17
ATOM     17  C   LIG    1        2.462   0.920  -0.017  0.00  0.00    +0.280 C 
BRANCH  17  18
ATOM     18  C   LIG    1        1.147   1.655   0.000  0.00  0.00    +0.470 C 
ATOM     19  N   LIG    1       -0.011   0.966   0.007  0.00  0.00    -0.630 N 
ATOM     20  H   LIG    1        0.002  -0.004   0.002  0.00  0.00    +0.430 HD
ATOM     21  O   LIG    1        1.130   2.868   0.007  0.00  0.00    -0.490 OA
BRANCH  19  22
ATOM     22  C   LIG    1       -1.222   1.643   0.017  0.00  0.00    +0.200 A 
ATOM     23  C   LIG    1       -2.470   1.090   0.014  0.00  0.00    -0.090 A 
ATOM     24  C   LIG    1       -3.334   2.203   0.029  0.00  0.00    +0.040 A 
ATOM     25  N   LIG    1       -2.575   3.263   0.031  0.00  0.00    -0.370 NA
ATOM     26  C   LIG    1       -4.841   2.175   0.034  0.00  0.00    +0.160 C 
ATOM     27  O   LIG    1       -1.401   2.974   0.024  0.00  0.00    +0.110 OA
ENDBRANCH  19  22
ENDBRANCH  17  18
ENDBRANCH   5  17
TORSDOF 5
