REMARK  Name = ZINCqH0000003v42.0
REMARK                            x       y       z     vdW  Elec       q    Type
REMARK                         _______ _______ _______ _____ _____    ______ ____
ROOT
ATOM      1  N   LIG    1       -1.531  -3.513  -3.604  0.00  0.00    -0.630 N 
ATOM      2  H   LIG    1       -2.284  -3.066  -3.186  0.00  0.00    +0.420 HD
ATOM      3  C   LIG    1       -0.307  -3.433  -3.046  0.00  0.00    +0.510 C 
ATOM      4  O   LIG    1        0.635  -3.992  -3.568  0.00  0.00    -0.480 OA
ENDROOT
BRANCH   1   8
ATOM      5  C   LIG    1       -1.603  -5.609  -6.843  0.00  0.00    -0.350 A 
ATOM      6  C   LIG    1       -2.855  -5.132  -6.559  0.00  0.00    +0.030 A 
ATOM      7  C   LIG    1       -2.906  -4.381  -5.414  0.00  0.00    -0.060 A 
ATOM      8  C   LIG    1       -1.715  -4.235  -4.776  0.00  0.00    +0.030 A 
ATOM      9  C   LIG    1       -4.061  -5.412  -7.418  0.00  0.00    +0.130 C 
ATOM     10  S   LIG    1       -0.478  -5.064  -5.607  0.00  0.00    +0.370 S 
BRANCH   5  11
ATOM     11  C   LIG    1       -1.267  -6.415  -7.959  0.00  0.00    +0.550 C 
ATOM     12  O   LIG    1       -2.127  -6.736  -8.758  0.00  0.00    -0.510 OA
BRANCH  11  13
ATOM     13  O   LIG    1        0.006  -6.826  -8.135  0.00  0.00    -0.360 OA
BRANCH  13  15
ATOM     14  C   LIG    1        1.758  -8.002  -9.313  0.00  0.00    +0.070 C 
ATOM     15  C   LIG    1        0.273  -7.636  -9.282  0.00  0.00    +0.200 C 
ENDBRANCH  13  15
ENDBRANCH  11  13
ENDBRANCH   5  11
ENDBRANCH   1   8
BRANCH   3  16
ATOM     16  C   LIG    1       -0.107  -2.650  -1.774  0.00  0.00    +0.230 C 
BRANCH  16  17
ATOM     17  N   LIG    1        1.304  -2.717  -1.374  0.00  0.00    -0.500 NA
ATOM     18  C   LIG    1        2.161  -2.026  -2.348  0.00  0.00    +0.200 C 
BRANCH  17  19
ATOM     19  C   LIG    1        1.496  -2.171  -0.024  0.00  0.00    +0.220 C 
ATOM     20  C   LIG    1        2.974  -2.299   0.402  0.00  0.00    +0.060 C 
ATOM     21  C   LIG    1        3.564  -0.942  -0.037  0.00  0.00    +0.080 C 
ATOM     22  C   LIG    1        2.396   0.022  -0.021  0.00  0.00    -0.080 A 
ATOM     23  C   LIG    1        2.376   1.406  -0.013  0.00  0.00    +0.010 A 
ATOM     24  C   LIG    1        1.172   2.083   0.002  0.00  0.00    +0.020 A 
ATOM     25  C   LIG    1       -0.017   1.377   0.010  0.00  0.00    +0.000 A 
ATOM     26  C   LIG    1        0.002  -0.004   0.002  0.00  0.00    +0.020 A 
ATOM     27  C   LIG    1        1.208  -0.684  -0.013  0.00  0.00    -0.140 A 
ENDBRANCH  17  19
ENDBRANCH  16  17
ENDBRANCH   3  16
TORSDOF 7
