REMARK  Name = ZINCrg00000SjSJ1.0
REMARK                            x       y       z     vdW  Elec       q    Type
REMARK                         _______ _______ _______ _____ _____    ______ ____
ROOT
ATOM      1  N   LIG    1        3.269   1.246   1.316  0.00  0.00    -0.380 N 
ATOM      2  N   LIG    1        3.984   2.312   1.889  0.00  0.00    -0.070 NA
ATOM      3  N   LIG    1        4.289   1.955   3.089  0.00  0.00    -0.020 NA
ATOM      4  N   LIG    1        3.849   0.772   3.328  0.00  0.00    -0.350 NA
ATOM      5  C   LIG    1        3.218   0.295   2.277  0.00  0.00    +0.420 A 
ENDROOT
BRANCH   5   6
ATOM      6  N   LIG    1        2.616  -0.947   2.174  0.00  0.00    -0.430 N 
ATOM      7  C   LIG    1        1.158  -0.811   1.851  0.00  0.00    +0.240 C 
ATOM      8  C   LIG    1        0.563  -2.011   2.560  0.00  0.00    -0.030 C 
ATOM      9  C   LIG    1       -0.616  -2.108   3.476  0.00  0.00    +0.100 C 
ATOM     10  C   LIG    1        0.415  -2.938   4.316  0.00  0.00    +0.290 C 
ATOM     11  F   LIG    1        0.110  -3.041   5.678  0.00  0.00    -0.180 F 
ATOM     12  F   LIG    1        0.799  -4.151   3.735  0.00  0.00    -0.160 F 
ATOM     13  C   LIG    1        1.279  -1.774   3.958  0.00  0.00    -0.080 C 
ATOM     14  C   LIG    1        2.700  -1.692   3.467  0.00  0.00    +0.280 C 
ENDBRANCH   5   6
BRANCH   1  15
ATOM     15  C   LIG    1        2.705   1.177  -0.034  0.00  0.00    +0.410 C 
BRANCH  15  21
ATOM     16  C   LIG    1        0.676   2.004  -1.245  0.00  0.00    -0.660 A 
ATOM     17  C   LIG    1       -0.554   2.634  -1.263  0.00  0.00    +0.120 A 
ATOM     18  C   LIG    1       -1.096   3.127  -0.090  0.00  0.00    +0.010 A 
ATOM     19  C   LIG    1       -0.410   2.983   1.101  0.00  0.00    +0.080 A 
ATOM     20  C   LIG    1        0.822   2.357   1.119  0.00  0.00    +0.000 A 
ATOM     21  C   LIG    1        1.364   1.865  -0.054  0.00  0.00    -0.010 A 
BRANCH  16  22
ATOM     22  S   LIG    1        1.366   1.376  -2.740  0.00  0.00    +2.680 S 
ATOM     23  O   LIG    1        1.706   0.019  -2.486  0.00  0.00    -0.950 OA
ATOM     24  O   LIG    1        2.308   2.343  -3.184  0.00  0.00    -0.940 OA
BRANCH  22  26
ATOM     25  C   LIG    1       -0.007   2.473  -4.795  0.00  0.00    +0.310 C 
ATOM     26  N   LIG    1        0.154   1.351  -3.867  0.00  0.00    -1.000 NA
ATOM     27  C   LIG    1       -0.758   0.206  -3.937  0.00  0.00    +0.310 C 
ENDBRANCH  22  26
ENDBRANCH  16  22
ENDBRANCH  15  21
ENDBRANCH   1  15
TORSDOF 5
