REMARK  Name = ZINCrD00000hQ6Ny.0
REMARK                            x       y       z     vdW  Elec       q    Type
REMARK                         _______ _______ _______ _____ _____    ______ ____
ROOT
ATOM      1  C   LIG    1        1.412   1.645  -0.003  0.00  0.00    +0.050 C 
ATOM      2  C   LIG    1       -0.013   1.086   0.008  0.00  0.00    -0.010 C 
ATOM      3  C   LIG    1       -0.825   1.630  -1.196  0.00  0.00    +0.040 C 
ATOM      4  C   LIG    1       -2.277   1.541  -0.652  0.00  0.00    +0.250 C 
ATOM      5  N   LIG    1       -2.169   1.894   0.776  0.00  0.00    -0.610 N 
ATOM      6  C   LIG    1       -3.161   2.391   1.540  0.00  0.00    +0.540 C 
ATOM      7  O   LIG    1       -2.957   2.647   2.708  0.00  0.00    -0.520 OA
ATOM      8  C   LIG    1       -0.798   1.615   1.227  0.00  0.00    +0.270 C 
ENDROOT
BRANCH   8   9
ATOM      9  C   LIG    1       -0.816   0.573   2.316  0.00  0.00    -0.060 A 
ATOM     10  C   LIG    1       -1.711  -0.478   2.252  0.00  0.00    +0.000 A 
ATOM     11  C   LIG    1       -1.724  -1.438   3.248  0.00  0.00    +0.040 A 
ATOM     12  C   LIG    1       -0.851  -1.340   4.314  0.00  0.00    -0.010 A 
ATOM     13  C   LIG    1        0.043  -0.284   4.382  0.00  0.00    +0.100 A 
ATOM     14  F   LIG    1        0.897  -0.188   5.424  0.00  0.00    -0.140 F 
ATOM     15  C   LIG    1        0.060   0.672   3.381  0.00  0.00    -0.010 A 
ENDBRANCH   8   9
BRANCH   6  16
ATOM     16  C   LIG    1       -4.524   2.629   0.943  0.00  0.00    +0.000 C 
ATOM     17  C   LIG    1       -5.176   1.298   0.502  0.00  0.00    +0.080 C 
ATOM     18  C   LIG    1       -6.642   1.476   0.829  0.00  0.00    +0.520 C 
ATOM     19  N   LIG    1       -6.805   2.508   1.673  0.00  0.00    -0.620 N 
ATOM     20  O   LIG    1       -7.539   0.786   0.392  0.00  0.00    -0.520 OA
ATOM     21  C   LIG    1       -5.518   3.126   2.016  0.00  0.00    +0.300 C 
BRANCH  19  22
ATOM     22  C   LIG    1       -8.101   2.960   2.186  0.00  0.00    +0.430 C 
BRANCH  22  23
ATOM     23  C   LIG    1       -8.417   2.230   3.466  0.00  0.00    -0.040 A 
ATOM     24  C   LIG    1       -8.078   2.632   4.705  0.00  0.00    -0.040 A 
ATOM     25  C   LIG    1       -8.572   1.657   5.601  0.00  0.00    -0.070 A 
ATOM     26  C   LIG    1       -9.176   0.714   4.857  0.00  0.00    +0.170 A 
ATOM     27  O   LIG    1       -9.079   1.066   3.564  0.00  0.00    -0.170 OA
ENDBRANCH  22  23
ENDBRANCH  19  22
ENDBRANCH   6  16
TORSDOF 4
