REMARK  Name = ZINCkj00000dDdYu.1
REMARK                            x       y       z     vdW  Elec       q    Type
REMARK                         _______ _______ _______ _____ _____    ______ ____
ROOT
ATOM      1  N   LIG    1        3.948   2.649   1.754  0.00  0.00    -0.480 N 
ATOM      2  C   LIG    1        5.298   2.790   1.498  0.00  0.00    +0.080 A 
ATOM      3  C   LIG    1        6.261   3.715   1.877  0.00  0.00    +0.010 A 
ATOM      4  C   LIG    1        7.560   3.566   1.437  0.00  0.00    +0.070 A 
ATOM      5  C   LIG    1        7.908   2.501   0.619  0.00  0.00    +0.020 A 
ATOM      6  C   LIG    1        6.972   1.582   0.235  0.00  0.00    +0.090 A 
ATOM      7  C   LIG    1        5.650   1.712   0.669  0.00  0.00    +0.040 A 
ATOM      8  N   LIG    1        4.524   0.980   0.471  0.00  0.00    -0.440 NA
ATOM      9  C   LIG    1        3.528   1.532   1.101  0.00  0.00    +0.180 A 
ENDROOT
BRANCH   1  11
ATOM     10  C   LIG    1        3.140   3.050   4.027  0.00  0.00    +0.040 C 
ATOM     11  C   LIG    1        3.123   3.536   2.577  0.00  0.00    +0.290 C 
ENDBRANCH   1  11
BRANCH   9  12
ATOM     12  C   LIG    1        2.115   1.006   1.112  0.00  0.00    +0.410 C 
BRANCH  12  13
ATOM     13  N   LIG    1        1.364   1.598  -0.002  0.00  0.00    -0.500 N 
ATOM     14  H   LIG    1        1.350   2.602   0.098  0.00  0.00    +0.430 HD
ATOM     15  H   LIG    1        1.807   1.354  -0.875  0.00  0.00    +0.440 HD
BRANCH  13  16
ATOM     16  C   LIG    1       -0.013   1.086   0.008  0.00  0.00    +0.210 C 
ATOM     17  C   LIG    1       -0.765   1.600  -1.232  0.00  0.00    +0.090 C 
ATOM     18  C   LIG    1       -2.269   1.310  -0.989  0.00  0.00    -0.260 C 
ATOM     19  S   LIG    1       -2.488   1.783   0.768  0.00  0.00    +2.410 S 
ATOM     20  O   LIG    1       -3.279   0.802   1.425  0.00  0.00    -0.900 OA
ATOM     21  O   LIG    1       -2.849   3.155   0.846  0.00  0.00    -0.900 OA
ATOM     22  C   LIG    1       -0.743   1.587   1.270  0.00  0.00    -0.330 C 
ENDBRANCH  13  16
ENDBRANCH  12  13
ENDBRANCH   9  12
TORSDOF 4
