REMARK  Name = ZINCvU0000000Cik.0
REMARK                            x       y       z     vdW  Elec       q    Type
REMARK                         _______ _______ _______ _____ _____    ______ ____
ROOT
ATOM      1  C   LIG    1       -4.052  -2.791  -3.530  0.00  0.00    +0.220 C 
ENDROOT
BRANCH   1   5
ATOM      2  C   LIG    1       -4.571  -0.889  -0.443  0.00  0.00    +0.110 A 
ATOM      3  C   LIG    1       -5.874  -1.227  -0.384  0.00  0.00    -0.060 A 
ATOM      4  S   LIG    1       -6.233  -2.247  -1.776  0.00  0.00    +0.220 S 
ATOM      5  C   LIG    1       -4.609  -2.130  -2.296  0.00  0.00    +0.020 A 
ATOM      6  N   LIG    1       -3.927  -1.397  -1.484  0.00  0.00    -0.440 NA
BRANCH   2  10
ATOM      7  C   LIG    1       -2.687   1.576   2.472  0.00  0.00    +0.110 A 
ATOM      8  C   LIG    1       -4.006   1.186   2.642  0.00  0.00    -0.030 A 
ATOM      9  C   LIG    1       -4.620   0.386   1.697  0.00  0.00    +0.030 A 
ATOM     10  C   LIG    1       -3.913  -0.030   0.571  0.00  0.00    -0.020 A 
ATOM     11  C   LIG    1       -2.587   0.366   0.397  0.00  0.00    +0.010 A 
ATOM     12  C   LIG    1       -1.976   1.163   1.348  0.00  0.00    +0.100 A 
BRANCH   7  14
ATOM     13  C   LIG    1       -2.875   2.750   4.532  0.00  0.00    +0.240 C 
ATOM     14  O   LIG    1       -2.087   2.363   3.404  0.00  0.00    -0.300 OA
ENDBRANCH   7  14
BRANCH  12  15
ATOM     15  O   LIG    1       -0.682   1.547   1.184  0.00  0.00    -0.310 OA
ATOM     16  C   LIG    1       -0.013   1.086   0.008  0.00  0.00    +0.240 C 
ENDBRANCH  12  15
ENDBRANCH   2  10
ENDBRANCH   1   5
BRANCH   1  17
ATOM     17  C   LIG    1       -4.223  -4.285  -3.420  0.00  0.00    +0.410 C 
ATOM     18  O   LIG    1       -5.154  -4.744  -2.794  0.00  0.00    -0.410 OA
BRANCH  17  19
ATOM     19  C   LIG    1       -3.259  -5.186  -4.073  0.00  0.00    -0.170 A 
ATOM     20  C   LIG    1       -2.184  -4.658  -4.796  0.00  0.00    +0.070 A 
ATOM     21  C   LIG    1       -1.281  -5.504  -5.408  0.00  0.00    +0.020 A 
ATOM     22  C   LIG    1       -1.432  -6.873  -5.310  0.00  0.00    +0.070 A 
ATOM     23  C   LIG    1       -2.500  -7.413  -4.592  0.00  0.00    -0.030 A 
ATOM     24  C   LIG    1       -3.412  -6.570  -3.968  0.00  0.00    +0.130 A 
BRANCH  23  25
ATOM     25  C   LIG    1       -2.658  -8.885  -4.490  0.00  0.00    +0.100 A 
ATOM     26  C   LIG    1       -1.757  -9.756  -4.988  0.00  0.00    -0.070 A 
ATOM     27  S   LIG    1       -2.334 -11.385  -4.646  0.00  0.00    +0.140 S 
ATOM     28  C   LIG    1       -3.723 -10.747  -3.881  0.00  0.00    +0.230 A 
ATOM     29  N   LIG    1       -3.700  -9.459  -3.906  0.00  0.00    -0.460 NA
ENDBRANCH  23  25
ENDBRANCH  17  19
ENDBRANCH   1  17
BRANCH   1  30
ATOM     30  C   LIG    1       -4.773  -2.301  -4.717  0.00  0.00    +0.200 C 
ATOM     31  N   LIG    1       -5.329  -1.923  -5.632  0.00  0.00    -0.370 NA
ENDBRANCH   1  30
TORSDOF 8
