REMARK  Name = ZINCpe00000bcT8n.0
REMARK                            x       y       z     vdW  Elec       q    Type
REMARK                         _______ _______ _______ _____ _____    ______ ____
ROOT
ATOM      1  C   LIG    1       -3.367   3.695   2.641  0.00  0.00    +0.520 C 
ATOM      2  N   LIG    1       -2.825   3.314   1.468  0.00  0.00    -0.730 N 
ATOM      3  H   LIG    1       -3.230   3.596   0.632  0.00  0.00    +0.400 HD
ATOM      4  O   LIG    1       -2.861   3.344   3.686  0.00  0.00    -0.530 OA
ENDROOT
BRANCH   1   9
ATOM      5  C   LIG    1       -6.285   8.121   3.815  0.00  0.00    +0.550 C 
ATOM      6  N   LIG    1       -6.058   6.895   3.303  0.00  0.00    -0.610 N 
ATOM      7  C   LIG    1       -6.283   5.692   4.115  0.00  0.00    +0.270 C 
ATOM      8  C   LIG    1       -5.008   4.843   4.104  0.00  0.00    +0.050 C 
ATOM      9  C   LIG    1       -4.602   4.558   2.656  0.00  0.00    -0.010 C 
ATOM     10  C   LIG    1       -4.311   5.877   1.937  0.00  0.00    +0.030 C 
ATOM     11  C   LIG    1       -5.579   6.737   1.923  0.00  0.00    +0.280 C 
ATOM     12  O   LIG    1       -6.005   9.112   3.168  0.00  0.00    -0.540 OA
BRANCH   5  14
ATOM     13  C   LIG    1       -7.189   9.466   5.622  0.00  0.00    +0.140 C 
ATOM     14  C   LIG    1       -6.873   8.261   5.156  0.00  0.00    -0.090 C 
ENDBRANCH   5  14
ENDBRANCH   1   9
BRANCH   2  15
ATOM     15  C   LIG    1       -1.624   2.475   1.453  0.00  0.00    +0.260 C 
BRANCH  15  16
ATOM     16  C   LIG    1       -1.219   2.189   0.006  0.00  0.00    +0.320 C 
BRANCH  16  17
ATOM     17  N   LIG    1       -0.018   1.351  -0.009  0.00  0.00    -0.540 N 
ATOM     18  C   LIG    1        0.003   0.004  -0.015  0.00  0.00    +0.680 A 
ATOM     19  N   LIG    1        1.277  -0.429  -0.034  0.00  0.00    -0.640 N 
ATOM     20  H   LIG    1        1.561  -1.357  -0.041  0.00  0.00    +0.440 HD
ATOM     21  C   LIG    1        2.119   0.680  -0.040  0.00  0.00    +0.090 A 
ATOM     22  C   LIG    1        3.497   0.830  -0.058  0.00  0.00    +0.030 A 
ATOM     23  C   LIG    1        4.051   2.095  -0.060  0.00  0.00    +0.030 A 
ATOM     24  C   LIG    1        3.237   3.214  -0.043  0.00  0.00    +0.030 A 
ATOM     25  C   LIG    1        1.863   3.075  -0.026  0.00  0.00    +0.030 A 
ATOM     26  O   LIG    1       -0.981  -0.712  -0.004  0.00  0.00    -0.550 OA
ATOM     27  C   LIG    1        1.297   1.810  -0.024  0.00  0.00    +0.090 A 
ENDBRANCH  16  17
ENDBRANCH  15  16
ENDBRANCH   2  15
TORSDOF 5
