REMARK  Name = ZINCqH0000005bZS.0
REMARK                            x       y       z     vdW  Elec       q    Type
REMARK                         _______ _______ _______ _____ _____    ______ ____
ROOT
ATOM      1  C   LIG    1       -4.585   4.796   0.069  0.00  0.00    +0.380 A 
ATOM      2  N   LIG    1       -3.283   4.737   0.057  0.00  0.00    -0.460 NA
ATOM      3  C   LIG    1       -2.641   3.557   0.045  0.00  0.00    +0.130 A 
ATOM      4  C   LIG    1       -3.368   2.371   0.031  0.00  0.00    -0.090 A 
ATOM      5  C   LIG    1       -4.779   2.454   0.038  0.00  0.00    +0.570 A 
ATOM      6  O   LIG    1       -5.463   1.445   0.036  0.00  0.00    -0.510 OA
ATOM      7  O   LIG    1       -2.508   1.331   0.022  0.00  0.00    -0.160 OA
ATOM      8  C   LIG    1       -1.226   1.754   0.017  0.00  0.00    +0.090 A 
ATOM      9  C   LIG    1       -0.013   1.076   0.008  0.00  0.00    +0.020 A 
ATOM     10  C   LIG    1        1.172   1.780   0.000  0.00  0.00    +0.070 A 
ATOM     11  C   LIG    1        1.170   3.167   0.008  0.00  0.00    +0.000 A 
ATOM     12  C   LIG    1       -0.022   3.858   0.022  0.00  0.00    +0.100 A 
ATOM     13  C   LIG    1       -1.226   3.158   0.030  0.00  0.00    -0.120 A 
ATOM     14  N   LIG    1       -5.351   3.677   0.070  0.00  0.00    -0.620 N 
ATOM     15  H   LIG    1       -6.318   3.756   0.079  0.00  0.00    +0.430 HD
ENDROOT
BRANCH   1  16
ATOM     16  C   LIG    1       -5.257   6.145   0.081  0.00  0.00    +0.290 C 
BRANCH  16  18
ATOM     17  C   LIG    1       -3.481   7.198  -1.183  0.00  0.00    +0.190 C 
ATOM     18  N   LIG    1       -4.236   7.201   0.077  0.00  0.00    -0.520 NA
BRANCH  18  19
ATOM     19  C   LIG    1       -4.838   8.517   0.327  0.00  0.00    +0.170 C 
BRANCH  19  20
ATOM     20  C   LIG    1       -3.733   9.548   0.563  0.00  0.00    +0.040 C 
BRANCH  20  21
ATOM     21  C   LIG    1       -4.361  10.919   0.823  0.00  0.00    +0.060 C 
BRANCH  21  22
ATOM     22  C   LIG    1       -3.272  11.934   1.056  0.00  0.00    -0.080 A 
ATOM     23  C   LIG    1       -2.806  12.167   2.336  0.00  0.00    +0.000 A 
ATOM     24  C   LIG    1       -1.804  13.095   2.549  0.00  0.00    +0.000 A 
ATOM     25  C   LIG    1       -1.274  13.797   1.483  0.00  0.00    -0.010 A 
ATOM     26  C   LIG    1       -1.743  13.568   0.203  0.00  0.00    +0.000 A 
ATOM     27  C   LIG    1       -2.742  12.636  -0.011  0.00  0.00    +0.000 A 
ENDBRANCH  21  22
ENDBRANCH  20  21
ENDBRANCH  19  20
ENDBRANCH  18  19
ENDBRANCH  16  18
ENDBRANCH   1  16
TORSDOF 6
