REMARK  Name = ZINCvU0000000Iy9.0
REMARK                            x       y       z     vdW  Elec       q    Type
REMARK                         _______ _______ _______ _____ _____    ______ ____
ROOT
ATOM      1  C   LIG    1       -2.222   0.113   0.956  0.00  0.00    +0.510 C 
ATOM      2  N   LIG    1       -2.399   1.365   0.489  0.00  0.00    -0.610 N 
ATOM      3  C   LIG    1       -3.743   1.955   0.418  0.00  0.00    +0.270 C 
ATOM      4  C   LIG    1       -3.989   2.459  -1.008  0.00  0.00    +0.010 C 
ATOM      5  C   LIG    1       -2.861   3.413  -1.409  0.00  0.00    +0.020 C 
ATOM      6  C   LIG    1       -1.526   2.666  -1.384  0.00  0.00    +0.040 C 
ATOM      7  C   LIG    1       -1.252   2.164   0.037  0.00  0.00    +0.310 C 
ATOM      8  O   LIG    1       -1.102  -0.337   1.077  0.00  0.00    -0.500 OA
ENDROOT
BRANCH   7   9
ATOM      9  C   LIG    1       -0.009   1.312   0.042  0.00  0.00    +0.250 A 
ATOM     10  N   LIG    1        0.234   0.323  -0.772  0.00  0.00    -0.460 NA
ATOM     11  C   LIG    1        1.440  -0.205  -0.481  0.00  0.00    +0.040 A 
ATOM     12  C   LIG    1        1.957   0.498   0.561  0.00  0.00    +0.150 A 
ATOM     13  N   LIG    1        1.036   1.454   0.886  0.00  0.00    -0.560 N 
ATOM     14  H   LIG    1        1.119   2.114   1.592  0.00  0.00    +0.420 HD
BRANCH  11  15
ATOM     15  C   LIG    1        2.086  -1.347  -1.173  0.00  0.00    +0.040 A 
ATOM     16  C   LIG    1        3.345  -1.787  -0.770  0.00  0.00    +0.000 A 
ATOM     17  C   LIG    1        3.941  -2.853  -1.414  0.00  0.00    +0.040 A 
ATOM     18  C   LIG    1        3.295  -3.478  -2.465  0.00  0.00    -0.030 A 
ATOM     19  C   LIG    1        2.045  -3.042  -2.874  0.00  0.00    +0.100 A 
ATOM     20  F   LIG    1        1.419  -3.657  -3.902  0.00  0.00    -0.140 F 
ATOM     21  C   LIG    1        1.438  -1.979  -2.233  0.00  0.00    +0.010 A 
ENDBRANCH  11  15
ENDBRANCH   7   9
BRANCH   1  22
ATOM     22  C   LIG    1       -3.416  -0.728   1.327  0.00  0.00    +0.060 C 
BRANCH  22  23
ATOM     23  C   LIG    1       -2.941  -2.095   1.825  0.00  0.00    +0.100 C 
BRANCH  23  27
ATOM     24  C   LIG    1       -6.327  -4.481   2.879  0.00  0.00    +0.130 A 
ATOM     25  C   LIG    1       -5.727  -3.668   3.829  0.00  0.00    -0.060 A 
ATOM     26  C   LIG    1       -4.629  -2.902   3.487  0.00  0.00    +0.060 A 
ATOM     27  C   LIG    1       -4.135  -2.937   2.196  0.00  0.00    -0.110 A 
ATOM     28  C   LIG    1       -4.731  -3.747   1.246  0.00  0.00    +0.070 A 
ATOM     29  C   LIG    1       -5.826  -4.519   1.585  0.00  0.00    -0.070 A 
ATOM     30 CL   LIG    1       -6.575  -5.535   0.393  0.00  0.00    -0.050 Cl
BRANCH  24  32
ATOM     31  C   LIG    1       -7.864  -5.151   4.565  0.00  0.00    +0.250 C 
ATOM     32  O   LIG    1       -7.404  -5.240   3.215  0.00  0.00    -0.310 OA
ENDBRANCH  24  32
ENDBRANCH  23  27
ENDBRANCH  22  23
ENDBRANCH   1  22
TORSDOF 6
