REMARK  Name = ZINCvU0000000Ew3.0
REMARK                            x       y       z     vdW  Elec       q    Type
REMARK                         _______ _______ _______ _____ _____    ______ ____
ROOT
ATOM      1  C   LIG    1       -2.704   2.940   4.739  0.00  0.00    +0.100 C 
ATOM      2  C   LIG    1       -4.013   3.243   4.693  0.00  0.00    -0.090 C 
ATOM      3  C   LIG    1       -4.924   3.046   3.506  0.00  0.00    +0.110 C 
ATOM      4  C   LIG    1       -6.303   3.543   3.961  0.00  0.00    +0.110 C 
ATOM      5  C   LIG    1       -6.138   4.006   5.387  0.00  0.00    -0.090 A 
ATOM      6  C   LIG    1       -7.064   4.543   6.269  0.00  0.00    -0.050 A 
ATOM      7  C   LIG    1       -6.599   4.884   7.614  0.00  0.00    -0.070 A 
ATOM      8  C   LIG    1       -7.460   5.427   8.572  0.00  0.00    +0.020 A 
ATOM      9  C   LIG    1       -6.979   5.739   9.810  0.00  0.00    +0.030 A 
ATOM     10  C   LIG    1       -5.641   5.525  10.130  0.00  0.00    +0.040 A 
ATOM     11  C   LIG    1       -4.776   4.997   9.221  0.00  0.00    +0.060 A 
ATOM     12  C   LIG    1       -5.235   4.662   7.933  0.00  0.00    +0.140 A 
ATOM     13  N   LIG    1       -4.413   4.147   7.022  0.00  0.00    -0.450 NA
ATOM     14  C   LIG    1       -4.807   3.818   5.796  0.00  0.00    +0.200 A 
ENDROOT
BRANCH   1  19
ATOM     15  C   LIG    1        0.010   1.182  -0.016  0.00  0.00    +0.090 C 
ATOM     16  C   LIG    1       -0.701   1.643   1.230  0.00  0.00    -0.080 A 
ATOM     17  C   LIG    1        0.024   1.912   2.378  0.00  0.00    +0.000 A 
ATOM     18  C   LIG    1       -0.619   2.339   3.520  0.00  0.00    +0.040 A 
ATOM     19  C   LIG    1       -2.009   2.489   3.521  0.00  0.00    -0.070 A 
ATOM     20  C   LIG    1       -2.735   2.210   2.360  0.00  0.00    +0.020 A 
ATOM     21  C   LIG    1       -2.078   1.789   1.223  0.00  0.00    +0.000 A 
ENDBRANCH   1  19
BRANCH   6  22
ATOM     22  C   LIG    1       -8.473   4.746   5.872  0.00  0.00    +0.520 C 
ATOM     23  O   LIG    1       -9.287   3.862   6.049  0.00  0.00    -0.480 OA
BRANCH  22  24
ATOM     24  O   LIG    1       -8.854   5.911   5.312  0.00  0.00    -0.330 OA
BRANCH  24  25
ATOM     25  C   LIG    1      -10.253   6.040   4.946  0.00  0.00    +0.230 C 
BRANCH  25  26
ATOM     26  C   LIG    1      -10.490   7.399   4.340  0.00  0.00    +0.360 C 
ATOM     27  O   LIG    1       -9.574   8.178   4.227  0.00  0.00    -0.420 OA
BRANCH  26  28
ATOM     28  C   LIG    1      -11.870   7.786   3.874  0.00  0.00    -0.110 C 
ATOM     29  C   LIG    1      -12.841   7.734   5.055  0.00  0.00    +0.060 C 
ATOM     30  C   LIG    1      -12.334   6.811   2.789  0.00  0.00    +0.060 C 
ATOM     31  C   LIG    1      -11.836   9.205   3.303  0.00  0.00    +0.050 C 
ENDBRANCH  26  28
ENDBRANCH  25  26
ENDBRANCH  24  25
ENDBRANCH  22  24
ENDBRANCH   6  22
TORSDOF 6
