REMARK  Name = ZINCrH000004oT6x.0
REMARK                            x       y       z     vdW  Elec       q    Type
REMARK                         _______ _______ _______ _____ _____    ______ ____
ROOT
ATOM      1  N   LIG    1        0.013   1.004   0.036  0.00  0.00    -0.680 N 
ATOM      2  H   LIG    1       -0.007   0.098  -0.309  0.00  0.00    +0.410 HD
ATOM      3  C   LIG    1        1.187   1.567   0.383  0.00  0.00    +0.710 C 
ATOM      4  N   LIG    1        2.304   0.815   0.444  0.00  0.00    -0.620 N 
ATOM      5  C   LIG    1        2.301  -0.596   0.019  0.00  0.00    +0.270 C 
ATOM      6  C   LIG    1        3.271  -0.728  -1.165  0.00  0.00    +0.060 C 
ATOM      7  C   LIG    1        4.555  -0.011  -0.871  0.00  0.00    -0.020 C 
ATOM      8  C   LIG    1        4.692   0.915   0.047  0.00  0.00    -0.100 C 
ATOM      9  C   LIG    1        3.571   1.367   0.942  0.00  0.00    +0.360 C 
ATOM     10  O   LIG    1        1.240   2.755   0.640  0.00  0.00    -0.560 OA
ENDROOT
BRANCH   1  17
ATOM     11  C   LIG    1       -5.808   3.383  -1.533  0.00  0.00    +0.060 C 
ATOM     12  C   LIG    1       -5.863   3.276  -0.007  0.00  0.00    +0.230 C 
ATOM     13  O   LIG    1       -4.691   3.873   0.554  0.00  0.00    -0.300 OA
ATOM     14  C   LIG    1       -3.529   3.176   0.427  0.00  0.00    +0.060 A 
ATOM     15  C   LIG    1       -2.323   3.839   0.288  0.00  0.00    +0.060 A 
ATOM     16  C   LIG    1       -1.149   3.118   0.159  0.00  0.00    +0.040 A 
ATOM     17  C   LIG    1       -1.179   1.730   0.168  0.00  0.00    +0.180 A 
ATOM     18  C   LIG    1       -2.388   1.061   0.302  0.00  0.00    -0.030 A 
ATOM     19  C   LIG    1       -3.561   1.782   0.438  0.00  0.00    +0.120 A 
ATOM     20  N   LIG    1       -4.792   1.126   0.582  0.00  0.00    -0.660 N 
ATOM     21  H   LIG    1       -4.824   0.185   0.815  0.00  0.00    +0.420 HD
ATOM     22  C   LIG    1       -5.933   1.824   0.391  0.00  0.00    +0.500 C 
ATOM     23  O   LIG    1       -7.009   1.284   0.539  0.00  0.00    -0.510 OA
ENDBRANCH   1  17
BRANCH   8  24
ATOM     24  C   LIG    1        6.018   1.548   0.211  0.00  0.00    -0.050 A 
ATOM     25  C   LIG    1        6.733   1.379   1.397  0.00  0.00    +0.010 A 
ATOM     26  C   LIG    1        7.972   1.968   1.542  0.00  0.00    +0.000 A 
ATOM     27  C   LIG    1        8.501   2.734   0.518  0.00  0.00    +0.000 A 
ATOM     28  C   LIG    1        7.794   2.910  -0.658  0.00  0.00    +0.000 A 
ATOM     29  C   LIG    1        6.556   2.322  -0.818  0.00  0.00    +0.020 A 
ENDBRANCH   8  24
TORSDOF 2
