REMARK  Name = ZINCqH0000002n0K.0
REMARK                            x       y       z     vdW  Elec       q    Type
REMARK                         _______ _______ _______ _____ _____    ______ ____
ROOT
ATOM      1  N   LIG    1        2.237   1.002   0.971  0.00  0.00    -0.660 NA
ATOM      2  H   LIG    1        1.825   1.022   1.892  0.00  0.00    +0.350 HD
ENDROOT
BRANCH   1   3
ATOM      3  C   LIG    1        3.593   1.567   0.989  0.00  0.00    +0.130 C 
ATOM      4  C   LIG    1        4.221   1.429  -0.399  0.00  0.00    +0.080 C 
BRANCH   3   5
ATOM      5  C   LIG    1        3.525   3.024   1.367  0.00  0.00    +0.430 C 
ATOM      6  O   LIG    1        4.296   3.813   0.875  0.00  0.00    -0.500 OA
BRANCH   5   7
ATOM      7  O   LIG    1        2.607   3.446   2.251  0.00  0.00    -0.360 OA
BRANCH   7   8
ATOM      8  C   LIG    1        2.599   4.863   2.568  0.00  0.00    +0.200 C 
ATOM      9  C   LIG    1        1.493   5.152   3.585  0.00  0.00    +0.070 C 
ENDBRANCH   7   8
ENDBRANCH   5   7
ENDBRANCH   3   5
BRANCH   3  10
ATOM     10  C   LIG    1        4.446   0.815   2.012  0.00  0.00    +0.050 C 
BRANCH  10  11
ATOM     11  C   LIG    1        5.858   1.403   2.031  0.00  0.00    +0.000 C 
BRANCH  11  12
ATOM     12  C   LIG    1        6.711   0.651   3.054  0.00  0.00    +0.000 C 
BRANCH  12  13
ATOM     13  C   LIG    1        8.123   1.240   3.073  0.00  0.00    +0.000 C 
BRANCH  13  15
ATOM     14  C   LIG    1       10.388   1.076   4.114  0.00  0.00    +0.000 C 
ATOM     15  C   LIG    1        8.976   0.487   4.096  0.00  0.00    -0.010 C 
ENDBRANCH  13  15
ENDBRANCH  12  13
ENDBRANCH  11  12
ENDBRANCH  10  11
ENDBRANCH   3  10
ENDBRANCH   1   3
BRANCH   1  16
ATOM     16  C   LIG    1        1.388   1.701  -0.002  0.00  0.00    +0.190 C 
BRANCH  16  17
ATOM     17  C   LIG    1       -0.013   1.086   0.008  0.00  0.00    +0.000 C 
ATOM     18  C   LIG    1       -0.946   1.687   1.074  0.00  0.00    +0.290 C 
ATOM     19  N   LIG    1       -1.991   1.656   0.028  0.00  0.00    -0.630 N 
ATOM     20  C   LIG    1       -3.338   1.608   0.038  0.00  0.00    +0.670 C 
ATOM     21  O   LIG    1       -3.954   1.592  -1.009  0.00  0.00    -0.570 OA
ATOM     22  C   LIG    1       -0.967   1.698  -1.034  0.00  0.00    +0.320 C 
BRANCH  20  23
ATOM     23  O   LIG    1       -4.001   1.577   1.210  0.00  0.00    -0.360 OA
BRANCH  23  24
ATOM     24  C   LIG    1       -5.451   1.526   1.146  0.00  0.00    +0.140 C 
ATOM     25  C   LIG    1       -5.973   2.762   0.410  0.00  0.00    +0.040 C 
ATOM     26  C   LIG    1       -6.024   1.498   2.564  0.00  0.00    +0.080 C 
ATOM     27  C   LIG    1       -5.884   0.265   0.395  0.00  0.00    +0.040 C 
ENDBRANCH  23  24
ENDBRANCH  20  23
ENDBRANCH  16  17
ENDBRANCH   1  16
TORSDOF 13
