REMARK  Name = ZINCrH00000tj1kz.0
REMARK                            x       y       z     vdW  Elec       q    Type
REMARK                         _______ _______ _______ _____ _____    ______ ____
ROOT
ATOM      1  C   LIG    1        0.226  -2.085   6.240  0.00  0.00    +0.300 A 
ATOM      2  N   LIG    1       -0.063  -2.941   7.179  0.00  0.00    -0.270 NA
ATOM      3  O   LIG    1       -0.810  -3.994   6.595  0.00  0.00    +0.030 OA
ATOM      4  N   LIG    1       -0.957  -3.703   5.217  0.00  0.00    -0.260 NA
ATOM      5  C   LIG    1       -0.351  -2.568   4.980  0.00  0.00    +0.130 A 
ENDROOT
BRANCH   5   6
ATOM      6  C   LIG    1       -0.257  -1.891   3.665  0.00  0.00    -0.090 A 
ATOM      7  C   LIG    1       -0.147  -2.645   2.497  0.00  0.00    +0.110 A 
ATOM      8  C   LIG    1       -0.061  -2.012   1.275  0.00  0.00    -0.070 A 
ATOM      9  C   LIG    1       -0.084  -0.625   1.207  0.00  0.00    +0.160 A 
ATOM     10  C   LIG    1       -0.188   0.129   2.369  0.00  0.00    -0.010 A 
ATOM     11  C   LIG    1       -0.280  -0.499   3.593  0.00  0.00    +0.070 A 
BRANCH   9  12
ATOM     12  O   LIG    1        0.002  -0.004   0.002  0.00  0.00    -0.300 OA
BRANCH  12  13
ATOM     13  C   LIG    1        0.234  -0.832  -1.139  0.00  0.00    +0.150 C 
ATOM     14  C   LIG    1        0.900  -0.007  -2.242  0.00  0.00    +0.070 C 
ATOM     15  C   LIG    1       -1.100  -1.382  -1.650  0.00  0.00    +0.030 C 
ENDBRANCH  12  13
ENDBRANCH   9  12
ENDBRANCH   5   6
BRANCH   1  17
ATOM     16  C   LIG    1        1.433  -0.577   7.620  0.00  0.00    +0.500 C 
ATOM     17  N   LIG    1        0.956  -0.909   6.405  0.00  0.00    -0.640 N 
ATOM     18  H   LIG    1        1.119  -0.329   5.644  0.00  0.00    +0.430 HD
ATOM     19  O   LIG    1        1.228  -1.301   8.571  0.00  0.00    -0.460 OA
BRANCH  16  20
ATOM     20  C   LIG    1        2.222   0.695   7.798  0.00  0.00    +0.130 C 
BRANCH  20  24
ATOM     21  C   LIG    1        3.399   1.081  11.888  0.00  0.00    +0.130 A 
ATOM     22  C   LIG    1        4.223   0.422  10.987  0.00  0.00    -0.020 A 
ATOM     23  C   LIG    1        3.840   0.298   9.666  0.00  0.00    +0.070 A 
ATOM     24  C   LIG    1        2.637   0.831   9.241  0.00  0.00    -0.120 A 
ATOM     25  C   LIG    1        1.817   1.493  10.135  0.00  0.00    +0.060 A 
ATOM     26  C   LIG    1        2.193   1.615  11.459  0.00  0.00    -0.080 A 
BRANCH  21  28
ATOM     27  C   LIG    1        2.876   1.895  14.060  0.00  0.00    +0.250 C 
ATOM     28  O   LIG    1        3.774   1.204  13.189  0.00  0.00    -0.320 OA
ENDBRANCH  21  28
ENDBRANCH  20  24
ENDBRANCH  16  20
ENDBRANCH   1  17
TORSDOF 7
