REMARK  Name = ZINCqH0000008RWm.0
REMARK                            x       y       z     vdW  Elec       q    Type
REMARK                         _______ _______ _______ _____ _____    ______ ____
ROOT
ATOM      1  C   LIG    1       -0.513   1.424  -4.808  0.00  0.00    +0.530 C 
ATOM      2  N   LIG    1       -0.966   1.736  -3.578  0.00  0.00    -0.520 N 
ATOM      3  H   LIG    1       -1.761   2.283  -3.479  0.00  0.00    +0.430 HD
ATOM      4  O   LIG    1        0.481   0.741  -4.933  0.00  0.00    -0.530 OA
ENDROOT
BRANCH   1   6
ATOM      5  C   LIG    1       -2.678   1.396  -6.023  0.00  0.00    +0.060 C 
ATOM      6  C   LIG    1       -1.242   1.923  -6.029  0.00  0.00    -0.060 C 
ATOM      7  C   LIG    1       -0.521   1.442  -7.294  0.00  0.00    +0.070 C 
ATOM      8  C   LIG    1       -1.404   1.754  -8.500  0.00  0.00    +0.080 C 
ATOM      9  C   LIG    1       -1.839   3.196  -8.480  0.00  0.00    -0.080 A 
ATOM     10  C   LIG    1       -2.319   3.743  -9.663  0.00  0.00    +0.000 A 
ATOM     11  C   LIG    1       -2.738   5.056  -9.708  0.00  0.00    +0.000 A 
ATOM     12  C   LIG    1       -2.680   5.835  -8.567  0.00  0.00    +0.000 A 
ATOM     13  C   LIG    1       -2.201   5.294  -7.392  0.00  0.00    +0.000 A 
ATOM     14  C   LIG    1       -1.777   3.973  -7.345  0.00  0.00    -0.070 A 
ATOM     15  C   LIG    1       -1.254   3.450  -6.032  0.00  0.00    +0.090 C 
ENDBRANCH   1   6
BRANCH   2  16
ATOM     16  N   LIG    1       -0.288   1.272  -2.443  0.00  0.00    -0.520 N 
ATOM     17  H   LIG    1        0.507   0.726  -2.543  0.00  0.00    +0.430 HD
ATOM     18  C   LIG    1       -0.742   1.585  -1.213  0.00  0.00    +0.540 C 
ATOM     19  O   LIG    1       -1.736   2.268  -1.088  0.00  0.00    -0.520 OA
BRANCH  18  20
ATOM     20  C   LIG    1       -0.013   1.086   0.008  0.00  0.00    +0.110 C 
BRANCH  20  21
ATOM     21  S   LIG    1       -0.862   1.671   1.500  0.00  0.00    -0.010 S 
BRANCH  21  22
ATOM     22  C   LIG    1        0.117   1.000   2.802  0.00  0.00    -0.100 A 
ATOM     23  C   LIG    1        1.233   0.226   2.507  0.00  0.00    +0.000 A 
ATOM     24  C   LIG    1        2.001  -0.295   3.529  0.00  0.00    +0.050 A 
ATOM     25  C   LIG    1        1.655  -0.056   4.848  0.00  0.00    -0.040 A 
ATOM     26  C   LIG    1        0.542   0.711   5.145  0.00  0.00    +0.050 A 
ATOM     27 CL   LIG    1        2.619  -0.718   6.130  0.00  0.00    -0.060 Cl
ATOM     28  C   LIG    1       -0.228   1.238   4.127  0.00  0.00    +0.050 A 
ENDBRANCH  21  22
ENDBRANCH  20  21
ENDBRANCH  18  20
ENDBRANCH   2  16
TORSDOF 5
