REMARK  Name = ZINCpk00000xVrlZ.0
REMARK                            x       y       z     vdW  Elec       q    Type
REMARK                         _______ _______ _______ _____ _____    ______ ____
ROOT
ATOM      1  C   LIG    1        4.077   1.922  -0.144  0.00  0.00    +0.570 C 
ATOM      2  N   LIG    1        4.134   3.241   0.123  0.00  0.00    -0.600 N 
ATOM      3  C   LIG    1        5.420   3.952   0.119  0.00  0.00    +0.270 C 
ATOM      4  C   LIG    1        5.313   5.159  -0.818  0.00  0.00    +0.010 C 
ATOM      5  C   LIG    1        4.120   6.021  -0.398  0.00  0.00    +0.020 C 
ATOM      6  C   LIG    1        2.832   5.204  -0.514  0.00  0.00    +0.020 C 
ATOM      7  C   LIG    1        2.910   3.997   0.425  0.00  0.00    +0.230 C 
ATOM      8  O   LIG    1        3.000   1.367  -0.243  0.00  0.00    -0.530 OA
ENDROOT
BRANCH   1  12
ATOM      9  C   LIG    1        7.663  -0.299  -0.643  0.00  0.00    +0.160 A 
ATOM     10  C   LIG    1        6.565  -0.564  -1.453  0.00  0.00    -0.010 A 
ATOM     11  C   LIG    1        5.400   0.153  -1.294  0.00  0.00    +0.120 A 
ATOM     12  C   LIG    1        5.324   1.150  -0.318  0.00  0.00    -0.170 A 
ATOM     13  C   LIG    1        6.431   1.417   0.491  0.00  0.00    +0.090 A 
ATOM     14  C   LIG    1        7.590   0.691   0.330  0.00  0.00    -0.080 A 
BRANCH   9  15
ATOM     15  O   LIG    1        8.808  -1.009  -0.802  0.00  0.00    -0.280 OA
BRANCH  15  16
ATOM     16  C   LIG    1        9.898  -0.685   0.064  0.00  0.00    +0.240 C 
BRANCH  16  20
ATOM     17  N   LIG    1       12.223  -1.442   0.437  0.00  0.00    -0.850 N 
ATOM     18  H   LIG    1       12.981  -2.011   0.230  0.00  0.00    +0.410 HD
ATOM     19  H   LIG    1       12.292  -0.781   1.143  0.00  0.00    +0.400 HD
ATOM     20  C   LIG    1       11.075  -1.569  -0.258  0.00  0.00    +0.520 C 
ATOM     21  O   LIG    1       10.989  -2.395  -1.141  0.00  0.00    -0.520 OA
ENDBRANCH  16  20
ENDBRANCH  15  16
ENDBRANCH   9  15
ENDBRANCH   1  12
BRANCH   7  22
ATOM     22  C   LIG    1        1.689   3.101   0.213  0.00  0.00    +0.360 C 
BRANCH  22  23
ATOM     23  N   LIG    1        0.470   3.857   0.515  0.00  0.00    -0.370 N 
ATOM     24  C   LIG    1       -0.577   4.038  -0.316  0.00  0.00    +0.230 A 
ATOM     25  C   LIG    1       -1.495   4.790   0.336  0.00  0.00    -0.130 A 
ATOM     26  C   LIG    1       -0.990   5.077   1.609  0.00  0.00    +0.220 A 
ATOM     27  N   LIG    1        0.188   4.518   1.717  0.00  0.00    -0.300 NA
ENDBRANCH  22  23
ENDBRANCH   7  22
TORSDOF 6
