REMARK  Name = ZINCvU0000000Er4.0
REMARK                            x       y       z     vdW  Elec       q    Type
REMARK                         _______ _______ _______ _____ _____    ______ ____
ROOT
ATOM      1  N   LIG    1        1.287   3.450   0.008  0.00  0.00    -0.700 N 
ATOM      2  H   LIG    1        0.467   3.967   0.019  0.00  0.00    +0.410 HD
ENDROOT
BRANCH   1   3
ATOM      3  C   LIG    1        1.233   2.068   0.001  0.00  0.00    +0.490 A 
ATOM      4  C   LIG    1       -0.017   1.395   0.010  0.00  0.00    -0.230 A 
ATOM      5  C   LIG    1       -1.365   1.922   0.031  0.00  0.00    +0.070 A 
ATOM      6  C   LIG    1       -2.323   0.995   0.030  0.00  0.00    -0.140 A 
ATOM      7  S   LIG    1       -1.643  -0.621   0.015  0.00  0.00    +0.190 S 
ATOM      8  C   LIG    1        0.002  -0.004   0.002  0.00  0.00    +0.120 A 
ATOM      9  N   LIG    1        1.181  -0.638  -0.013  0.00  0.00    -0.530 NA
ATOM     10  C   LIG    1        2.311   0.031  -0.021  0.00  0.00    +0.560 A 
ATOM     11  N   LIG    1        2.347   1.351  -0.014  0.00  0.00    -0.580 NA
BRANCH   6  12
ATOM     12  C   LIG    1       -3.771   1.292   0.047  0.00  0.00    -0.020 A 
ATOM     13  C   LIG    1       -4.216   2.614   0.065  0.00  0.00    +0.020 A 
ATOM     14  C   LIG    1       -5.569   2.884   0.075  0.00  0.00    +0.020 A 
ATOM     15  C   LIG    1       -6.484   1.847   0.078  0.00  0.00    +0.020 A 
ATOM     16  C   LIG    1       -6.050   0.533   0.066  0.00  0.00    +0.020 A 
ATOM     17  C   LIG    1       -4.700   0.250   0.050  0.00  0.00    +0.010 A 
ENDBRANCH   6  12
ENDBRANCH   1   3
BRANCH   1  18
ATOM     18  C   LIG    1        2.583   4.133  -0.001  0.00  0.00    +0.340 C 
BRANCH  18  22
ATOM     19  C   LIG    1        1.967   8.363   0.025  0.00  0.00    +0.060 A 
ATOM     20  C   LIG    1        2.056   7.680  -1.180  0.00  0.00    +0.010 A 
ATOM     21  C   LIG    1        2.261   6.313  -1.184  0.00  0.00    +0.030 A 
ATOM     22  C   LIG    1        2.366   5.624   0.009  0.00  0.00    -0.090 A 
ATOM     23  C   LIG    1        2.277   6.300   1.213  0.00  0.00    +0.010 A 
ATOM     24  C   LIG    1        2.078   7.668   1.225  0.00  0.00    +0.130 A 
ATOM     25  F   LIG    1        1.992   8.329   2.400  0.00  0.00    -0.120 F 
BRANCH  19  29
ATOM     26  C   LIG    1        1.331  12.368  -1.099  0.00  0.00    +0.150 C 
ATOM     27  C   LIG    1        2.681  11.954  -0.506  0.00  0.00    +0.050 C 
ATOM     28  C   LIG    1        2.858  10.442  -0.660  0.00  0.00    +0.190 C 
ATOM     29  N   LIG    1        1.765   9.747   0.033  0.00  0.00    -0.500 N 
ATOM     30  C   LIG    1        0.463  10.092  -0.550  0.00  0.00    +0.180 C 
ATOM     31  C   LIG    1        0.214  11.594  -0.394  0.00  0.00    +0.000 C 
BRANCH  26  32
ATOM     32  O   LIG    1        1.136  13.770  -0.908  0.00  0.00    -0.560 OA
ATOM     33  H   LIG    1        0.298  14.102  -1.260  0.00  0.00    +0.380 HD
ENDBRANCH  26  32
ENDBRANCH  19  29
ENDBRANCH  18  22
ENDBRANCH   1  18
TORSDOF 6
