REMARK  Name = ZINCqH00000022Ep.0
REMARK                            x       y       z     vdW  Elec       q    Type
REMARK                         _______ _______ _______ _____ _____    ______ ____
ROOT
ATOM      1  C   LIG    1       -5.636  -1.655  -3.353  0.00  0.00    +0.050 C 
ATOM      2  C   LIG    1       -5.910  -0.153  -3.248  0.00  0.00    +0.190 C 
ATOM      3  C   LIG    1       -6.453   0.376  -4.588  0.00  0.00    -0.020 C 
ATOM      4  C   LIG    1       -5.407   1.411  -5.065  0.00  0.00    +0.060 C 
ATOM      5  C   LIG    1       -4.133   0.995  -4.295  0.00  0.00    +0.260 C 
ATOM      6  C   LIG    1       -6.920   0.120  -2.132  0.00  0.00    +0.040 C 
ATOM      7  N   LIG    1       -4.652   0.569  -2.975  0.00  0.00    -0.630 N 
ATOM      8  C   LIG    1       -4.094   0.798  -1.770  0.00  0.00    +0.730 C 
ATOM      9  N   LIG    1       -2.933   1.478  -1.684  0.00  0.00    -0.750 N 
ATOM     10  H   LIG    1       -2.500   1.802  -2.490  0.00  0.00    +0.390 HD
ATOM     11  O   LIG    1       -4.636   0.392  -0.761  0.00  0.00    -0.570 OA
ENDROOT
BRANCH   3  12
ATOM     12  C   LIG    1       -7.813   1.047  -4.384  0.00  0.00    +0.460 C 
ATOM     13  F   LIG    1       -8.736   0.098  -3.931  0.00  0.00    -0.180 F 
ATOM     14  F   LIG    1       -8.254   1.586  -5.596  0.00  0.00    -0.180 F 
ATOM     15  F   LIG    1       -7.691   2.068  -3.435  0.00  0.00    -0.170 F 
ENDBRANCH   3  12
BRANCH   9  16
ATOM     16  C   LIG    1       -2.326   1.728  -0.375  0.00  0.00    +0.350 C 
BRANCH  16  17
ATOM     17  C   LIG    1       -1.045   2.501  -0.554  0.00  0.00    -0.110 A 
ATOM     18  C   LIG    1        0.170   1.845  -0.516  0.00  0.00    +0.060 A 
ATOM     19  C   LIG    1        1.346   2.554  -0.686  0.00  0.00    +0.030 A 
ATOM     20  C   LIG    1        1.309   3.921  -0.890  0.00  0.00    +0.050 A 
ATOM     21  C   LIG    1        0.097   4.583  -0.924  0.00  0.00    +0.010 A 
ATOM     22  C   LIG    1       -1.084   3.875  -0.753  0.00  0.00    +0.130 A 
BRANCH  22  23
ATOM     23  N   LIG    1       -2.316   4.545  -0.787  0.00  0.00    -0.420 N 
ATOM     24  C   LIG    1       -2.652   5.669  -0.079  0.00  0.00    +0.130 A 
ATOM     25  C   LIG    1       -3.920   5.975  -0.411  0.00  0.00    +0.150 A 
ATOM     26  N   LIG    1       -4.355   5.060  -1.290  0.00  0.00    -0.480 NA
ATOM     27  C   LIG    1       -3.404   4.198  -1.523  0.00  0.00    +0.390 A 
ENDBRANCH  22  23
ENDBRANCH  16  17
ENDBRANCH   9  16
TORSDOF 4
