REMARK  Name = ZINCvU0000000EAP.0
REMARK                            x       y       z     vdW  Elec       q    Type
REMARK                         _______ _______ _______ _____ _____    ______ ____
ROOT
ATOM      1  C   LIG    1        1.242  -0.382   0.036  0.00  0.00    +0.140 A 
ATOM      2  N   LIG    1        2.020   0.677   0.056  0.00  0.00    -0.290 NA
ATOM      3  N   LIG    1        1.311   1.747  -0.002  0.00  0.00    -0.250 NA
ATOM      4  C   LIG    1        0.037   1.438  -0.063  0.00  0.00    +0.220 A 
ATOM      5  N   LIG    1       -0.047   0.065  -0.041  0.00  0.00    -0.440 N 
ENDROOT
BRANCH   4   6
ATOM      6  C   LIG    1       -1.094   2.386  -0.147  0.00  0.00    -0.010 A 
ATOM      7  C   LIG    1       -2.095   2.200  -1.101  0.00  0.00    +0.040 A 
ATOM      8  C   LIG    1       -3.151   3.086  -1.171  0.00  0.00    +0.030 A 
ATOM      9  C   LIG    1       -3.213   4.163  -0.305  0.00  0.00    +0.050 A 
ATOM     10  C   LIG    1       -2.221   4.357   0.640  0.00  0.00    +0.030 A 
ATOM     11  C   LIG    1       -1.162   3.476   0.724  0.00  0.00    -0.000 A 
ATOM     12 CL   LIG    1        0.082   3.721   1.910  0.00  0.00    -0.040 Cl
ENDBRANCH   4   6
BRANCH   5  13
ATOM     13  C   LIG    1       -1.264  -0.748  -0.089  0.00  0.00    +0.230 C 
ATOM     14  C   LIG    1       -1.355  -1.640   1.166  0.00  0.00    +0.030 C 
ATOM     15  C   LIG    1       -1.956  -2.969   0.646  0.00  0.00    +0.030 C 
ATOM     16  C   LIG    1       -1.279  -3.132  -0.738  0.00  0.00    +0.030 C 
ATOM     17  C   LIG    1       -1.216  -1.697  -1.300  0.00  0.00    +0.020 C 
ENDBRANCH   5  13
BRANCH   1  18
ATOM     18  S   LIG    1        1.763  -2.064   0.096  0.00  0.00    +0.100 S 
BRANCH  18  19
ATOM     19  C   LIG    1        3.556  -1.834   0.187  0.00  0.00    +0.120 C 
BRANCH  19  22
ATOM     20  N   LIG    1        5.576  -3.256   0.321  0.00  0.00    -0.620 N 
ATOM     21  H   LIG    1        6.108  -2.445   0.333  0.00  0.00    +0.440 HD
ATOM     22  C   LIG    1        4.232  -3.179   0.249  0.00  0.00    +0.530 C 
ATOM     23  O   LIG    1        3.567  -4.194   0.233  0.00  0.00    -0.480 OA
BRANCH  20  27
ATOM     24  C   LIG    1        7.632  -6.140   0.486  0.00  0.00    +0.050 A 
ATOM     25  N   LIG    1        6.411  -6.593   0.431  0.00  0.00    -0.360 NA
ATOM     26  O   LIG    1        5.601  -5.697   0.376  0.00  0.00    +0.110 OA
ATOM     27  C   LIG    1        6.198  -4.494   0.378  0.00  0.00    +0.210 A 
ATOM     28  C   LIG    1        7.540  -4.734   0.454  0.00  0.00    -0.080 A 
BRANCH  24  30
ATOM     29  C   LIG    1        9.451  -6.896   1.994  0.00  0.00    +0.050 C 
ATOM     30  C   LIG    1        8.894  -6.959   0.570  0.00  0.00    +0.010 C 
ATOM     31  C   LIG    1        9.930  -6.401  -0.408  0.00  0.00    +0.050 C 
ATOM     32  C   LIG    1        8.584  -8.413   0.208  0.00  0.00    +0.040 C 
ENDBRANCH  24  30
ENDBRANCH  20  27
ENDBRANCH  19  22
ENDBRANCH  18  19
ENDBRANCH   1  18
TORSDOF 7
