REMARK  Name = ZINCpe000000XahL.0
REMARK                            x       y       z     vdW  Elec       q    Type
REMARK                         _______ _______ _______ _____ _____    ______ ____
ROOT
ATOM      1  C   LIG    1       -0.812   3.079   1.382  0.00  0.00    +0.510 C 
ATOM      2  N   LIG    1       -1.501   3.789   0.466  0.00  0.00    -0.600 N 
ATOM      3  C   LIG    1       -2.270   3.114  -0.591  0.00  0.00    +0.260 C 
ATOM      4  C   LIG    1       -3.687   3.699  -0.605  0.00  0.00    +0.230 C 
ATOM      5  O   LIG    1       -3.608   5.123  -0.689  0.00  0.00    -0.360 OA
ATOM      6  C   LIG    1       -2.962   5.740   0.432  0.00  0.00    +0.120 C 
ATOM      7  C   LIG    1       -2.981   7.260   0.247  0.00  0.00    +0.120 C 
ATOM      8  C   LIG    1       -4.269   7.825   0.899  0.00  0.00    -0.280 C 
ATOM      9  S   LIG    1       -4.335   6.851   2.457  0.00  0.00    +2.390 S 
ATOM     10  O   LIG    1       -3.395   7.369   3.388  0.00  0.00    -0.920 OA
ATOM     11  O   LIG    1       -5.689   6.661   2.844  0.00  0.00    -0.930 OA
ATOM     12  C   LIG    1       -3.683   5.306   1.720  0.00  0.00    -0.340 C 
ATOM     13  C   LIG    1       -1.510   5.259   0.499  0.00  0.00    +0.290 C 
ATOM     14  O   LIG    1       -0.261   3.649   2.300  0.00  0.00    -0.510 OA
ENDROOT
BRANCH   1  16
ATOM     15  C   LIG    1        0.606   1.098   1.844  0.00  0.00    +0.100 C 
ATOM     16  C   LIG    1       -0.726   1.580   1.265  0.00  0.00    +0.270 C 
BRANCH  16  17
ATOM     17  N   LIG    1       -1.831   0.968   2.007  0.00  0.00    -0.350 N 
ATOM     18  C   LIG    1       -1.840   0.683   3.326  0.00  0.00    +0.270 A 
ATOM     19  C   LIG    1       -3.040   0.132   3.621  0.00  0.00    -0.060 A 
ATOM     20  C   LIG    1       -3.786   0.068   2.440  0.00  0.00    -0.010 A 
ATOM     21  N   LIG    1       -3.062   0.569   1.472  0.00  0.00    -0.240 NA
BRANCH  20  22
ATOM     22  C   LIG    1       -5.183  -0.481   2.306  0.00  0.00    +0.560 C 
ATOM     23  F   LIG    1       -6.070   0.317   3.035  0.00  0.00    -0.160 F 
ATOM     24  F   LIG    1       -5.219  -1.790   2.801  0.00  0.00    -0.160 F 
ATOM     25  F   LIG    1       -5.556  -0.482   0.958  0.00  0.00    -0.170 F 
ENDBRANCH  20  22
ENDBRANCH  16  17
ENDBRANCH   1  16
TORSDOF 3
