REMARK  Name = ZINCpk00000y6z69.0
REMARK                            x       y       z     vdW  Elec       q    Type
REMARK                         _______ _______ _______ _____ _____    ______ ____
ROOT
ATOM      1  C   LIG    1        0.947   1.837   0.156  0.00  0.00    -0.010 A 
ATOM      2  C   LIG    1        0.233   2.449  -0.811  0.00  0.00    -0.070 A 
ATOM      3  C   LIG    1       -1.125   2.372  -0.444  0.00  0.00    -0.050 A 
ATOM      4  C   LIG    1       -1.190   1.709   0.728  0.00  0.00    +0.150 A 
ATOM      5  N   LIG    1        0.079   1.381   1.103  0.00  0.00    -0.430 N 
ENDROOT
BRANCH   1   6
ATOM      6  C   LIG    1        2.446   1.684   0.184  0.00  0.00    +0.290 C 
BRANCH   6  10
ATOM      7  C   LIG    1        2.585   2.769  -3.313  0.00  0.00    +0.150 C 
ATOM      8  C   LIG    1        2.467   1.237  -3.481  0.00  0.00    +0.070 C 
ATOM      9  C   LIG    1        2.140   0.755  -2.045  0.00  0.00    +0.130 C 
ATOM     10  N   LIG    1        2.961   1.651  -1.191  0.00  0.00    -0.470 NA
ATOM     11  C   LIG    1        2.885   2.988  -1.818  0.00  0.00    +0.160 C 
BRANCH   9  12
ATOM     12  C   LIG    1        2.553  -0.682  -1.860  0.00  0.00    +0.530 C 
ATOM     13  O   LIG    1        3.448  -0.962  -1.091  0.00  0.00    -0.520 OA
ATOM     14  N   LIG    1        1.927  -1.657  -2.548  0.00  0.00    -0.860 N 
ATOM     15  H   LIG    1        2.193  -2.582  -2.429  0.00  0.00    +0.400 HD
ATOM     16  H   LIG    1        1.211  -1.434  -3.163  0.00  0.00    +0.400 HD
ENDBRANCH   9  12
BRANCH   7  18
ATOM     17  C   LIG    1        3.539   4.664  -4.429  0.00  0.00    +0.200 C 
ATOM     18  O   LIG    1        3.656   3.275  -4.112  0.00  0.00    -0.370 OA
ENDBRANCH   7  18
ENDBRANCH   6  10
ENDBRANCH   1   6
BRANCH   5  19
ATOM     19  C   LIG    1        0.449   0.657   2.322  0.00  0.00    +0.350 C 
BRANCH  19  20
ATOM     20  C   LIG    1        0.799   1.645   3.406  0.00  0.00    -0.070 A 
ATOM     21  C   LIG    1        2.112   2.019   3.602  0.00  0.00    +0.040 A 
ATOM     22  C   LIG    1        2.435   2.925   4.596  0.00  0.00    +0.050 A 
ATOM     23  C   LIG    1        1.446   3.462   5.400  0.00  0.00    +0.030 A 
ATOM     24  C   LIG    1        0.128   3.096   5.215  0.00  0.00    +0.070 A 
ATOM     25  C   LIG    1       -0.206   2.187   4.210  0.00  0.00    -0.010 A 
BRANCH  25  26
ATOM     26  C   LIG    1       -1.572   1.807   4.008  0.00  0.00    +0.250 C 
ATOM     27  N   LIG    1       -2.655   1.506   3.848  0.00  0.00    -0.400 NA
ENDBRANCH  25  26
ENDBRANCH  19  20
ENDBRANCH   5  19
TORSDOF 7
