REMARK  Name = ZINCvU0000000I80.0
REMARK                            x       y       z     vdW  Elec       q    Type
REMARK                         _______ _______ _______ _____ _____    ______ ____
ROOT
ATOM      1  N   LIG    1        4.722   4.162  -0.226  0.00  0.00    -0.520 N 
ATOM      2  C   LIG    1        3.566   3.478  -0.116  0.00  0.00    +0.710 C 
ATOM      3  N   LIG    1        3.584   2.134  -0.022  0.00  0.00    -0.660 N 
ATOM      4  H   LIG    1        4.430   1.664   0.051  0.00  0.00    +0.410 HD
ATOM      5  O   LIG    1        2.506   4.074  -0.103  0.00  0.00    -0.540 OA
ENDROOT
BRANCH   1  11
ATOM      6  C   LIG    1        4.823  10.311  -0.664  0.00  0.00    +0.140 A 
ATOM      7  C   LIG    1        6.167   9.954  -0.709  0.00  0.00    -0.040 A 
ATOM      8  C   LIG    1        6.541   8.636  -0.637  0.00  0.00    +0.110 A 
ATOM      9  C   LIG    1        5.569   7.621  -0.515  0.00  0.00    +0.070 A 
ATOM     10  N   LIG    1        5.749   6.287  -0.425  0.00  0.00    -0.500 NA
ATOM     11  C   LIG    1        4.703   5.544  -0.323  0.00  0.00    +0.330 A 
ATOM     12  S   LIG    1        3.248   6.530  -0.317  0.00  0.00    +0.190 S 
ATOM     13  C   LIG    1        4.221   7.991  -0.471  0.00  0.00    -0.180 A 
ATOM     14  C   LIG    1        3.855   9.332  -0.546  0.00  0.00    +0.030 A 
BRANCH   6  15
ATOM     15  O   LIG    1        4.463  11.620  -0.737  0.00  0.00    -0.310 OA
BRANCH  15  17
ATOM     16  C   LIG    1        4.923  13.985  -0.926  0.00  0.00    +0.070 C 
ATOM     17  C   LIG    1        5.517  12.577  -0.859  0.00  0.00    +0.170 C 
ENDBRANCH  15  17
ENDBRANCH   6  15
ENDBRANCH   1  11
BRANCH   3  18
ATOM     18  C   LIG    1        2.381   1.414  -0.027  0.00  0.00    +0.130 A 
ATOM     19  C   LIG    1        1.251   1.954  -0.622  0.00  0.00    +0.060 A 
ATOM     20  C   LIG    1        0.066   1.242  -0.627  0.00  0.00    +0.000 A 
ATOM     21  C   LIG    1        0.004  -0.007  -0.039  0.00  0.00    +0.040 A 
ATOM     22  C   LIG    1        1.127  -0.552   0.557  0.00  0.00    -0.060 A 
ATOM     23  C   LIG    1        2.318   0.155   0.565  0.00  0.00    +0.100 A 
BRANCH  23  24
ATOM     24  O   LIG    1        3.423  -0.380   1.150  0.00  0.00    -0.320 OA
ATOM     25  C   LIG    1        3.284  -1.675   1.737  0.00  0.00    +0.250 C 
ENDBRANCH  23  24
ENDBRANCH   3  18
BRANCH   1  26
ATOM     26  C   LIG    1        5.999   3.443  -0.241  0.00  0.00    +0.360 C 
BRANCH  26  27
ATOM     27  C   LIG    1        6.363   3.096  -1.662  0.00  0.00    -0.120 A 
ATOM     28  C   LIG    1        5.951   1.895  -2.207  0.00  0.00    +0.020 A 
ATOM     29  C   LIG    1        6.280   1.579  -3.512  0.00  0.00    +0.000 A 
ATOM     30  C   LIG    1        7.030   2.459  -4.268  0.00  0.00    +0.010 A 
ATOM     31  C   LIG    1        7.447   3.659  -3.721  0.00  0.00    +0.000 A 
ATOM     32  C   LIG    1        7.113   3.977  -2.418  0.00  0.00    +0.050 A 
ENDBRANCH  26  27
ENDBRANCH   1  26
TORSDOF 7
