REMARK  Name = ZINCpe000000YZtL.0
REMARK                            x       y       z     vdW  Elec       q    Type
REMARK                         _______ _______ _______ _____ _____    ______ ____
ROOT
ATOM      1  O   LIG    1        4.054   1.545   1.005  0.00  0.00    -0.510 OA
ATOM      2  C   LIG    1        3.153   1.535   1.816  0.00  0.00    +0.510 C 
ATOM      3  N   LIG    1        1.872   1.588   1.401  0.00  0.00    -0.620 N 
ATOM      4  C   LIG    1        0.688   1.581   2.272  0.00  0.00    +0.260 C 
ATOM      5  C   LIG    1       -0.555   1.627   1.357  0.00  0.00    +0.010 C 
ATOM      6  C   LIG    1       -0.013   1.086   0.008  0.00  0.00    +0.000 C 
ATOM      7  C   LIG    1        1.426   1.661  -0.003  0.00  0.00    +0.270 C 
ENDROOT
BRANCH   6   8
ATOM      8  C   LIG    1       -0.828   1.627  -1.168  0.00  0.00    +0.050 C 
BRANCH   8   9
ATOM      9  C   LIG    1       -0.293   1.036  -2.474  0.00  0.00    +0.170 C 
BRANCH   9  10
ATOM     10  O   LIG    1       -1.054   1.542  -3.573  0.00  0.00    -0.580 OA
ATOM     11  H   LIG    1       -0.770   1.209  -4.435  0.00  0.00    +0.380 HD
ENDBRANCH   9  10
ENDBRANCH   8   9
ENDBRANCH   6   8
BRANCH   5  12
ATOM     12  C   LIG    1       -1.660   0.720   1.900  0.00  0.00    +0.190 C 
BRANCH  12  13
ATOM     13  O   LIG    1       -2.219   1.302   3.079  0.00  0.00    -0.570 OA
ATOM     14  H   LIG    1       -2.928   0.779   3.478  0.00  0.00    +0.390 HD
ENDBRANCH  12  13
ENDBRANCH   5  12
BRANCH   2  15
ATOM     15  C   LIG    1        3.465   1.462   3.288  0.00  0.00    +0.380 C 
BRANCH  15  16
ATOM     16  N   LIG    1        4.917   1.414   3.478  0.00  0.00    -0.320 N 
ATOM     17  N   LIG    1        5.702   0.256   3.541  0.00  0.00    -0.220 NA
ATOM     18  C   LIG    1        6.947   0.615   3.713  0.00  0.00    +0.010 A 
ATOM     19  C   LIG    1        6.995   2.015   3.775  0.00  0.00    -0.210 A 
ATOM     20  C   LIG    1        7.962   3.167   3.949  0.00  0.00    +0.110 C 
ATOM     21  C   LIG    1        7.079   4.378   4.319  0.00  0.00    +0.060 C 
ATOM     22  C   LIG    1        5.724   3.992   3.687  0.00  0.00    +0.120 C 
ATOM     23  C   LIG    1        5.735   2.480   3.628  0.00  0.00    +0.070 A 
BRANCH  18  24
ATOM     24  C   LIG    1        8.126  -0.316   3.832  0.00  0.00    +0.560 C 
ATOM     25  F   LIG    1        9.273   0.320   3.342  0.00  0.00    -0.160 F 
ATOM     26  F   LIG    1        7.882  -1.475   3.088  0.00  0.00    -0.170 F 
ATOM     27  F   LIG    1        8.319  -0.655   5.175  0.00  0.00    -0.170 F 
ENDBRANCH  18  24
ENDBRANCH  15  16
ENDBRANCH   2  15
TORSDOF 8
