REMARK  Name = ZINCpe00000gMc1y.0
REMARK                            x       y       z     vdW  Elec       q    Type
REMARK                         _______ _______ _______ _____ _____    ______ ____
ROOT
ATOM      1  C   LIG    1       -4.708   6.266   1.358  0.00  0.00    +0.520 C 
ATOM      2  N   LIG    1       -4.903   5.883   0.081  0.00  0.00    -0.600 N 
ATOM      3  C   LIG    1       -5.747   4.736  -0.175  0.00  0.00    +0.270 C 
ATOM      4  C   LIG    1       -4.880   3.452  -0.205  0.00  0.00    +0.030 C 
ATOM      5  C   LIG    1       -4.022   3.458  -1.406  0.00  0.00    +0.200 C 
ATOM      6  N   LIG    1       -3.066   4.564  -1.459  0.00  0.00    -0.470 N 
ATOM      7  C   LIG    1       -3.665   5.726  -2.080  0.00  0.00    +0.200 C 
ATOM      8  C   LIG    1       -4.246   6.653  -0.996  0.00  0.00    +0.280 C 
ATOM      9  O   LIG    1       -5.303   5.709   2.256  0.00  0.00    -0.530 OA
ENDROOT
BRANCH   1  14
ATOM     10  C   LIG    1       -0.857   9.870   3.577  0.00  0.00    +0.280 C 
ATOM     11  N   LIG    1       -1.855   8.954   3.020  0.00  0.00    -0.610 N 
ATOM     12  C   LIG    1       -3.263   9.275   3.216  0.00  0.00    +0.260 C 
ATOM     13  C   LIG    1       -4.130   8.034   3.007  0.00  0.00    +0.060 C 
ATOM     14  C   LIG    1       -3.750   7.387   1.670  0.00  0.00    -0.010 C 
ATOM     15  C   LIG    1       -2.328   6.832   1.788  0.00  0.00    +0.080 C 
ATOM     16  C   LIG    1       -1.418   7.877   2.366  0.00  0.00    +0.520 C 
ATOM     17  O   LIG    1       -0.221   7.734   2.231  0.00  0.00    -0.550 OA
ENDBRANCH   1  14
BRANCH   6  18
ATOM     18  C   LIG    1       -1.910   4.189  -2.120  0.00  0.00    +0.360 A 
ATOM     19  N   LIG    1       -1.797   2.962  -2.604  0.00  0.00    -0.520 NA
ATOM     20  C   LIG    1       -0.710   2.561  -3.235  0.00  0.00    +0.330 A 
ATOM     21  C   LIG    1        0.361   3.414  -3.430  0.00  0.00    -0.050 A 
ATOM     22  C   LIG    1        0.296   4.711  -2.949  0.00  0.00    +0.150 A 
ATOM     23  C   LIG    1       -0.863   5.114  -2.278  0.00  0.00    -0.110 A 
BRANCH  23  24
ATOM     24  C   LIG    1       -0.981   6.444  -1.761  0.00  0.00    +0.260 C 
ATOM     25  N   LIG    1       -1.075   7.499  -1.351  0.00  0.00    -0.400 NA
ENDBRANCH  23  24
ENDBRANCH   6  18
TORSDOF 3
