REMARK  Name = ZINCpk00000xYEDK.0
REMARK                            x       y       z     vdW  Elec       q    Type
REMARK                         _______ _______ _______ _____ _____    ______ ____
ROOT
ATOM      1  C   LIG    1       -0.510  -0.105  -1.017  0.00  0.00    +0.570 C 
ATOM      2  N   LIG    1       -0.559   0.759   0.017  0.00  0.00    -0.600 N 
ATOM      3  C   LIG    1       -0.633   0.268   1.399  0.00  0.00    +0.260 C 
ATOM      4  C   LIG    1        0.497   0.908   2.211  0.00  0.00    +0.030 C 
ATOM      5  C   LIG    1        0.416   2.430   2.080  0.00  0.00    +0.050 C 
ATOM      6  C   LIG    1        0.591   2.827   0.612  0.00  0.00    +0.140 C 
ATOM      7  C   LIG    1       -0.539   2.209  -0.218  0.00  0.00    +0.270 C 
ATOM      8  O   LIG    1       -0.555   0.310  -2.159  0.00  0.00    -0.520 OA
ENDROOT
BRANCH   1  14
ATOM      9  C   LIG    1        1.749  -3.929   1.247  0.00  0.00    +0.100 C 
ATOM     10  C   LIG    1        0.681  -3.401   0.324  0.00  0.00    -0.120 A 
ATOM     11  C   LIG    1       -0.201  -4.279  -0.284  0.00  0.00    +0.060 A 
ATOM     12  C   LIG    1       -1.184  -3.808  -1.131  0.00  0.00    -0.030 A 
ATOM     13  C   LIG    1       -1.299  -2.445  -1.373  0.00  0.00    +0.140 A 
ATOM     14  C   LIG    1       -0.404  -1.553  -0.763  0.00  0.00    -0.150 A 
ATOM     15  C   LIG    1        0.586  -2.046   0.091  0.00  0.00    +0.060 A 
BRANCH  13  16
ATOM     16  N   LIG    1       -2.292  -1.968  -2.220  0.00  0.00    -0.460 N 
ATOM     17  C   LIG    1       -3.131  -3.080  -2.736  0.00  0.00    +0.180 C 
ATOM     18  C   LIG    1       -4.429  -2.365  -3.186  0.00  0.00    +0.040 C 
ATOM     19  C   LIG    1       -4.615  -1.274  -2.106  0.00  0.00    +0.020 C 
ATOM     20  C   LIG    1       -3.216  -1.067  -1.498  0.00  0.00    +0.180 C 
ENDBRANCH  13  16
ENDBRANCH   1  14
BRANCH   6  21
ATOM     21  O   LIG    1        1.850   2.348   0.135  0.00  0.00    -0.530 OA
ATOM     22  H   LIG    1        2.027   2.562  -0.791  0.00  0.00    +0.370 HD
ENDBRANCH   6  21
BRANCH   6  23
ATOM     23  C   LIG    1        0.542   4.351   0.486  0.00  0.00    +0.030 C 
BRANCH  23  24
ATOM     24  C   LIG    1        1.674   4.957   1.276  0.00  0.00    +0.520 C 
ATOM     25  O   LIG    1        2.508   4.240   1.787  0.00  0.00    -0.520 OA
ATOM     26  N   LIG    1        1.759   6.295   1.414  0.00  0.00    -0.860 N 
ATOM     27  H   LIG    1        2.487   6.685   1.922  0.00  0.00    +0.400 HD
ATOM     28  H   LIG    1        1.091   6.868   1.005  0.00  0.00    +0.400 HD
ENDBRANCH  23  24
ENDBRANCH   6  23
TORSDOF 5
