REMARK  Name = ZINCpk00000ebNqg.0
REMARK                            x       y       z     vdW  Elec       q    Type
REMARK                         _______ _______ _______ _____ _____    ______ ____
ROOT
ATOM      1  N   LIG    1       -2.025   1.549  -3.646  0.00  0.00    -1.010 NA
ATOM      2  C   LIG    1       -0.627   2.002  -3.591  0.00  0.00    +0.300 C 
ATOM      3  C   LIG    1        0.059   1.323  -2.401  0.00  0.00    +0.170 C 
ATOM      4  N   LIG    1       -0.723   1.572  -1.182  0.00  0.00    -0.520 NA
ATOM      5  C   LIG    1       -2.062   0.976  -1.276  0.00  0.00    +0.170 C 
ATOM      6  C   LIG    1       -2.834   1.641  -2.421  0.00  0.00    +0.300 C 
ENDROOT
BRANCH   1   8
ATOM      7  O   LIG    1       -4.077   1.130  -4.951  0.00  0.00    -0.970 OA
ATOM      8  S   LIG    1       -2.671   0.952  -5.049  0.00  0.00    +2.780 S 
ATOM      9  O   LIG    1       -1.892   1.488  -6.109  0.00  0.00    -0.970 OA
BRANCH   8  10
ATOM     10  N   LIG    1       -2.406  -0.683  -5.053  0.00  0.00    -1.000 NA
ATOM     11  C   LIG    1       -1.189  -1.186  -5.649  0.00  0.00    +0.280 C 
ATOM     12  C   LIG    1       -1.410  -1.453  -7.152  0.00  0.00    +0.010 C 
ATOM     13  C   LIG    1       -2.276  -2.628  -7.339  0.00  0.00    +0.000 C 
ATOM     14  C   LIG    1       -3.683  -2.468  -6.771  0.00  0.00    +0.010 C 
ATOM     15  C   LIG    1       -3.673  -2.826  -5.305  0.00  0.00    +0.020 C 
ATOM     16  C   LIG    1       -3.426  -1.566  -4.455  0.00  0.00    +0.260 C 
ENDBRANCH   8  10
ENDBRANCH   1   8
BRANCH   4  17
ATOM     17  C   LIG    1       -0.013   1.086   0.008  0.00  0.00    +0.150 C 
BRANCH  17  18
ATOM     18  C   LIG    1       -0.729   1.579   1.267  0.00  0.00    +0.260 C 
BRANCH  18  19
ATOM     19  C   LIG    1        0.000   1.080   2.488  0.00  0.00    -0.120 A 
ATOM     20  C   LIG    1        1.083   1.783   2.982  0.00  0.00    +0.010 A 
ATOM     21  C   LIG    1        1.749   1.328   4.104  0.00  0.00    +0.000 A 
ATOM     22  C   LIG    1        1.337   0.164   4.727  0.00  0.00    +0.000 A 
ATOM     23  C   LIG    1        0.258  -0.542   4.230  0.00  0.00    +0.000 A 
ATOM     24  C   LIG    1       -0.411  -0.084   3.110  0.00  0.00    +0.010 A 
ENDBRANCH  18  19
BRANCH  18  25
ATOM     25  O   LIG    1       -0.748   3.008   1.275  0.00  0.00    -0.540 OA
ATOM     26  H   LIG    1        0.130   3.413   1.268  0.00  0.00    +0.370 HD
ENDBRANCH  18  25
ENDBRANCH  17  18
ENDBRANCH   4  17
TORSDOF 6
