REMARK  Name = ZINCpk00000eaS8g.1
REMARK                            x       y       z     vdW  Elec       q    Type
REMARK                         _______ _______ _______ _____ _____    ______ ____
ROOT
ATOM      1  C   LIG    1       -0.697   4.035   4.746  0.00  0.00    +0.570 C 
ATOM      2  N   LIG    1       -0.511   3.451   3.546  0.00  0.00    -0.610 N 
ATOM      3  C   LIG    1        0.188   2.162   3.434  0.00  0.00    +0.290 C 
ATOM      4  C   LIG    1        1.293   2.298   2.380  0.00  0.00    +0.170 C 
ATOM      5  N   LIG    1        0.712   2.800   1.128  0.00  0.00    -0.530 NA
ATOM      6  C   LIG    1        0.149   4.146   1.304  0.00  0.00    +0.170 C 
ATOM      7  C   LIG    1       -1.002   4.086   2.314  0.00  0.00    +0.300 C 
ATOM      8  O   LIG    1       -1.330   5.070   4.828  0.00  0.00    -0.540 OA
ENDROOT
BRANCH   1  13
ATOM      9  C   LIG    1        1.522   5.466   9.780  0.00  0.00    +0.180 C 
ATOM     10  C   LIG    1        1.371   4.030   9.346  0.00  0.00    +0.160 A 
ATOM     11  C   LIG    1        0.844   3.592   8.142  0.00  0.00    -0.270 A 
ATOM     12  C   LIG    1        0.313   4.224   7.003  0.00  0.00    +0.240 A 
ATOM     13  C   LIG    1       -0.131   3.420   5.962  0.00  0.00    -0.250 A 
ATOM     14  C   LIG    1       -0.046   2.018   6.065  0.00  0.00    +0.380 A 
ATOM     15  N   LIG    1        0.450   1.423   7.115  0.00  0.00    -0.470 NA
ATOM     16  C   LIG    1        0.903   2.121   8.171  0.00  0.00    +0.280 A 
ATOM     17  N   LIG    1        1.435   1.789   9.331  0.00  0.00    -0.290 NA
ATOM     18  N   LIG    1        1.723   2.952  10.054  0.00  0.00    -0.410 N 
ATOM     19  H   LIG    1        2.120   2.972  10.939  0.00  0.00    +0.450 HD
ENDBRANCH   1  13
BRANCH   5  20
ATOM     20  C   LIG    1        1.702   2.782   0.043  0.00  0.00    +0.150 C 
BRANCH  20  21
ATOM     21  C   LIG    1        1.892   1.346  -0.450  0.00  0.00    +0.230 C 
BRANCH  21  22
ATOM     22  C   LIG    1        2.932   1.325  -1.571  0.00  0.00    -0.100 C 
ATOM     23  C   LIG    1        2.452   2.202  -2.729  0.00  0.00    +0.030 C 
ATOM     24  C   LIG    1        3.122  -0.111  -2.064  0.00  0.00    +0.020 C 
ATOM     25  C   LIG    1        4.263   1.863  -1.042  0.00  0.00    +0.030 C 
ENDBRANCH  21  22
BRANCH  21  26
ATOM     26  O   LIG    1        0.649   0.843  -0.944  0.00  0.00    -0.540 OA
ATOM     27  H   LIG    1        0.284   1.352  -1.681  0.00  0.00    +0.370 HD
ENDBRANCH  21  26
ENDBRANCH  20  21
ENDBRANCH   5  20
TORSDOF 5
