REMARK  Name = ZINCpe000000XRN2.0
REMARK                            x       y       z     vdW  Elec       q    Type
REMARK                         _______ _______ _______ _____ _____    ______ ____
ROOT
ATOM      1  C   LIG    1       -4.610  -1.912   0.011  0.00  0.00    +0.390 C 
ENDROOT
BRANCH   1   2
ATOM      2  N   LIG    1       -4.844  -2.242   1.423  0.00  0.00    -0.550 NA
ATOM      3  C   LIG    1       -5.849  -1.359   2.006  0.00  0.00    +0.240 C 
ATOM      4  C   LIG    1       -6.286  -1.938   3.363  0.00  0.00    -0.310 C 
ATOM      5  S   LIG    1       -4.861  -1.789   4.484  0.00  0.00    +2.600 S 
ATOM      6  N   LIG    1       -3.589  -2.319   3.573  0.00  0.00    -1.000 NA
ATOM      7  C   LIG    1       -2.327  -2.708   4.240  0.00  0.00    +0.290 C 
ATOM      8  C   LIG    1       -1.213  -1.858   3.608  0.00  0.00    +0.210 C 
ATOM      9  O   LIG    1       -1.241  -1.998   2.187  0.00  0.00    -0.370 OA
ATOM     10  C   LIG    1       -2.455  -1.567   1.559  0.00  0.00    +0.190 C 
ATOM     11  O   LIG    1       -4.957  -2.732   5.543  0.00  0.00    -0.950 OA
ATOM     12  O   LIG    1       -4.567  -0.423   4.741  0.00  0.00    -0.950 OA
ATOM     13  C   LIG    1       -3.610  -2.388   2.126  0.00  0.00    +0.390 C 
ENDBRANCH   1   2
BRANCH   1  17
ATOM     14  C   LIG    1       -7.716  -1.965  -1.797  0.00  0.00    +0.220 A 
ATOM     15  N   LIG    1       -7.312  -3.206  -1.877  0.00  0.00    -0.370 NA
ATOM     16  O   LIG    1       -6.254  -3.337  -1.299  0.00  0.00    +0.100 OA
ATOM     17  C   LIG    1       -5.867  -2.168  -0.780  0.00  0.00    +0.180 A 
ATOM     18  N   LIG    1       -6.783  -1.286  -1.092  0.00  0.00    -0.470 NA
BRANCH  14  24
ATOM     19  C   LIG    1      -11.935  -2.589  -4.394  0.00  0.00    +0.090 C 
ATOM     20  C   LIG    1      -10.992  -1.701  -3.624  0.00  0.00    -0.090 A 
ATOM     21  C   LIG    1      -11.285  -0.359  -3.461  0.00  0.00    +0.030 A 
ATOM     22  C   LIG    1      -10.424   0.462  -2.756  0.00  0.00    +0.010 A 
ATOM     23  C   LIG    1       -9.266  -0.055  -2.210  0.00  0.00    +0.050 A 
ATOM     24  C   LIG    1       -8.963  -1.405  -2.376  0.00  0.00    -0.020 A 
ATOM     25  C   LIG    1       -9.837  -2.228  -3.083  0.00  0.00    +0.050 A 
ENDBRANCH  14  24
ENDBRANCH   1  17
TORSDOF 3
