REMARK  Name = ZINCpe000000WqYe.0
REMARK                            x       y       z     vdW  Elec       q    Type
REMARK                         _______ _______ _______ _____ _____    ______ ____
ROOT
ATOM      1  N   LIG    1        0.002  -0.004   0.002  0.00  0.00    -0.560 N 
ATOM      2  C   LIG    1        1.377  -0.518  -0.007  0.00  0.00    +0.310 C 
ATOM      3  C   LIG    1        2.265   0.673   0.414  0.00  0.00    +0.000 C 
ATOM      4  C   LIG    1        1.397   1.880  -0.011  0.00  0.00    +0.090 C 
ATOM      5  C   LIG    1       -0.016   1.340  -0.006  0.00  0.00    +0.520 C 
ATOM      6  O   LIG    1       -1.020   2.021  -0.013  0.00  0.00    -0.510 OA
ENDROOT
BRANCH   1  10
ATOM      7  C   LIG    1       -3.408  -2.404   0.045  0.00  0.00    +0.110 A 
ATOM      8  C   LIG    1       -2.154  -2.983  -0.083  0.00  0.00    +0.020 A 
ATOM      9  C   LIG    1       -1.024  -2.189  -0.098  0.00  0.00    +0.020 A 
ATOM     10  C   LIG    1       -1.144  -0.810   0.016  0.00  0.00    +0.120 A 
ATOM     11  C   LIG    1       -2.399  -0.232   0.150  0.00  0.00    +0.050 A 
ATOM     12  C   LIG    1       -3.528  -1.026   0.159  0.00  0.00    -0.050 A 
BRANCH   7  14
ATOM     13  C   LIG    1       -5.778  -2.523   0.194  0.00  0.00    +0.250 C 
ATOM     14  O   LIG    1       -4.520  -3.186   0.059  0.00  0.00    -0.320 OA
ENDBRANCH   7  14
ENDBRANCH   1  10
BRANCH   3  15
ATOM     15  C   LIG    1        3.574   0.660  -0.333  0.00  0.00    +0.530 C 
ATOM     16  N   LIG    1        4.490   1.622  -0.104  0.00  0.00    -0.730 N 
ATOM     17  H   LIG    1        4.307   2.323   0.540  0.00  0.00    +0.410 HD
ATOM     18  O   LIG    1        3.804  -0.217  -1.139  0.00  0.00    -0.530 OA
BRANCH  16  19
ATOM     19  C   LIG    1        5.763   1.609  -0.830  0.00  0.00    +0.280 C 
BRANCH  19  20
ATOM     20  C   LIG    1        6.614   2.800  -0.388  0.00  0.00    +0.030 C 
BRANCH  20  21
ATOM     21  C   LIG    1        7.943   2.787  -1.146  0.00  0.00    +0.330 C 
BRANCH  21  22
ATOM     22  N   LIG    1        8.758   3.928  -0.723  0.00  0.00    -0.380 N 
ATOM     23  C   LIG    1       10.012   3.888  -0.240  0.00  0.00    +0.480 A 
ATOM     24  N   LIG    1       10.387   5.114   0.019  0.00  0.00    -0.550 NA
ATOM     25  C   LIG    1        9.404   5.961  -0.283  0.00  0.00    +0.420 A 
ATOM     26  N   LIG    1        8.387   5.282  -0.747  0.00  0.00    -0.320 NA
ENDBRANCH  21  22
ENDBRANCH  20  21
ENDBRANCH  19  20
ENDBRANCH  16  19
ENDBRANCH   3  15
TORSDOF 7
