REMARK  Name = ZINCpe000000TAFs.0
REMARK                            x       y       z     vdW  Elec       q    Type
REMARK                         _______ _______ _______ _____ _____    ______ ____
ROOT
ATOM      1  N   LIG    1        0.779   2.034   1.253  0.00  0.00    -0.750 N 
ATOM      2  H   LIG    1        0.737   3.003   1.246  0.00  0.00    +0.400 HD
ATOM      3  C   LIG    1       -0.311   1.310   0.932  0.00  0.00    +0.710 C 
ATOM      4  N   LIG    1       -1.485   1.928   0.693  0.00  0.00    -0.630 N 
ATOM      5  C   LIG    1       -1.559   3.395   0.637  0.00  0.00    +0.260 C 
ATOM      6  C   LIG    1       -2.177   3.799  -0.712  0.00  0.00    +0.280 C 
ATOM      7  N   LIG    1       -3.406   3.019  -0.917  0.00  0.00    -0.600 N 
ATOM      8  C   LIG    1       -3.332   1.552  -0.856  0.00  0.00    +0.290 C 
ATOM      9  C   LIG    1       -4.579   3.638  -1.157  0.00  0.00    +0.610 C 
ATOM     10  O   LIG    1       -5.609   2.993  -1.195  0.00  0.00    -0.530 OA
ATOM     11  C   LIG    1       -2.713   1.148   0.488  0.00  0.00    +0.300 C 
ATOM     12  O   LIG    1       -0.235   0.099   0.854  0.00  0.00    -0.590 OA
ENDROOT
BRANCH   9  13
ATOM     13  C   LIG    1       -4.613   5.096  -1.374  0.00  0.00    -0.100 A 
ATOM     14  C   LIG    1       -5.739   5.860  -1.492  0.00  0.00    +0.310 A 
ATOM     15  N   LIG    1       -5.331   7.132  -1.677  0.00  0.00    -0.350 N 
ATOM     16  N   LIG    1       -3.929   7.112  -1.676  0.00  0.00    -0.050 NA
ATOM     17  N   LIG    1       -3.541   5.898  -1.495  0.00  0.00    -0.210 NA
BRANCH  15  18
ATOM     18  C   LIG    1       -6.188   8.307  -1.851  0.00  0.00    +0.390 C 
BRANCH  18  19
ATOM     19  C   LIG    1       -5.819   9.353  -0.831  0.00  0.00    -0.120 A 
ATOM     20  C   LIG    1       -6.449   9.370   0.400  0.00  0.00    +0.020 A 
ATOM     21  C   LIG    1       -6.107  10.327   1.337  0.00  0.00    +0.010 A 
ATOM     22  C   LIG    1       -5.143  11.273   1.040  0.00  0.00    +0.030 A 
ATOM     23  C   LIG    1       -4.518  11.258  -0.192  0.00  0.00    +0.010 A 
ATOM     24  C   LIG    1       -4.856  10.299  -1.128  0.00  0.00    +0.050 A 
ENDBRANCH  18  19
ENDBRANCH  15  18
ENDBRANCH   9  13
BRANCH   1  26
ATOM     25  C   LIG    1        3.100   2.402   1.930  0.00  0.00    +0.030 C 
ATOM     26  C   LIG    1        2.028   1.358   1.613  0.00  0.00    +0.270 C 
ENDBRANCH   1  26
TORSDOF 4
