REMARK  Name = ZINCnE000001OaGp.0
REMARK                            x       y       z     vdW  Elec       q    Type
REMARK                         _______ _______ _______ _____ _____    ______ ____
ROOT
ATOM      1  C   LIG    1        2.490   1.048  -0.016  0.00  0.00    +0.300 C 
ENDROOT
BRANCH   1   2
ATOM      2  C   LIG    1        1.175   1.783   0.000  0.00  0.00    -0.100 A 
ATOM      3  C   LIG    1       -0.013   1.076   0.008  0.00  0.00    +0.020 A 
ATOM      4  C   LIG    1       -1.219   1.751   0.017  0.00  0.00    +0.000 A 
ATOM      5  C   LIG    1       -1.238   3.133   0.030  0.00  0.00    -0.080 A 
ATOM      6  C   LIG    1       -0.050   3.840   0.022  0.00  0.00    +0.000 A 
ATOM      7  C   LIG    1        1.156   3.165   0.008  0.00  0.00    +0.040 A 
BRANCH   5   8
ATOM      8  C   LIG    1       -2.553   3.869   0.047  0.00  0.00    +0.030 C 
ATOM      9  C   LIG    1       -3.338   3.482   1.302  0.00  0.00    +0.010 C 
ATOM     10  C   LIG    1       -4.673   4.229   1.319  0.00  0.00    +0.000 C 
ATOM     11  C   LIG    1       -5.482   3.854   0.075  0.00  0.00    +0.000 C 
ATOM     12  C   LIG    1       -4.697   4.241  -1.180  0.00  0.00    +0.000 C 
ATOM     13  C   LIG    1       -3.362   3.494  -1.196  0.00  0.00    +0.020 C 
ENDBRANCH   5   8
ENDBRANCH   1   2
BRANCH   1  15
ATOM     14  C   LIG    1        4.057   0.171  -1.663  0.00  0.00    +0.570 C 
ATOM     15  N   LIG    1        2.903   0.817  -1.403  0.00  0.00    -0.710 N 
ATOM     16  H   LIG    1        2.346   1.128  -2.133  0.00  0.00    +0.410 HD
ATOM     17  O   LIG    1        4.754  -0.219  -0.750  0.00  0.00    -0.560 OA
BRANCH  14  21
ATOM     18  C   LIG    1        6.590  -1.245  -2.085  0.00  0.00    +0.060 C 
ATOM     19  C   LIG    1        5.802  -0.805  -3.320  0.00  0.00    -0.010 C 
ATOM     20  C   LIG    1        4.473  -1.509  -3.599  0.00  0.00    +0.050 C 
ATOM     21  C   LIG    1        4.482  -0.066  -3.090  0.00  0.00    -0.220 C 
BRANCH  21  22
ATOM     22  C   LIG    1        4.112   1.019  -4.067  0.00  0.00    +0.530 C 
ATOM     23  O   LIG    1        3.975   0.754  -5.250  0.00  0.00    -0.680 OA
ATOM     24  O   LIG    1        3.949   2.162  -3.676  0.00  0.00    -0.680 OA
ENDBRANCH  21  22
ENDBRANCH  14  21
ENDBRANCH   1  15
TORSDOF 5
