REMARK  Name = ZINCqH0000007ju1.0
REMARK                            x       y       z     vdW  Elec       q    Type
REMARK                         _______ _______ _______ _____ _____    ______ ____
ROOT
ATOM      1  N   LIG    1       -1.963   2.546   3.435  0.00  0.00    -0.650 N 
ATOM      2  H   LIG    1       -1.960   1.588   3.283  0.00  0.00    +0.410 HD
ATOM      3  C   LIG    1       -2.492   3.047   4.569  0.00  0.00    +0.560 C 
ATOM      4  O   LIG    1       -2.588   4.250   4.716  0.00  0.00    -0.520 OA
ENDROOT
BRANCH   1   8
ATOM      5  C   LIG    1       -0.338   5.120   0.578  0.00  0.00    +0.150 A 
ATOM      6  C   LIG    1       -0.408   5.511   1.907  0.00  0.00    -0.080 A 
ATOM      7  C   LIG    1       -0.947   4.659   2.853  0.00  0.00    +0.110 A 
ATOM      8  C   LIG    1       -1.417   3.411   2.475  0.00  0.00    +0.080 A 
ATOM      9  C   LIG    1       -1.347   3.016   1.141  0.00  0.00    +0.140 A 
ATOM     10  C   LIG    1       -0.802   3.869   0.196  0.00  0.00    -0.080 A 
BRANCH   5  12
ATOM     11  C   LIG    1        0.657   7.229   0.114  0.00  0.00    +0.250 C 
ATOM     12  O   LIG    1        0.193   5.960  -0.350  0.00  0.00    -0.320 OA
ENDBRANCH   5  12
BRANCH   9  13
ATOM     13  O   LIG    1       -1.808   1.792   0.767  0.00  0.00    -0.320 OA
ATOM     14  C   LIG    1       -1.704   1.455  -0.618  0.00  0.00    +0.250 C 
ENDBRANCH   9  13
ENDBRANCH   1   8
BRANCH   3  15
ATOM     15  C   LIG    1       -2.955   2.134   5.633  0.00  0.00    -0.140 A 
ATOM     16  C   LIG    1       -2.851   0.751   5.463  0.00  0.00    +0.080 A 
ATOM     17  C   LIG    1       -3.279  -0.098   6.460  0.00  0.00    +0.000 A 
ATOM     18  C   LIG    1       -3.824   0.420   7.630  0.00  0.00    +0.190 A 
ATOM     19  C   LIG    1       -3.934   1.796   7.800  0.00  0.00    +0.020 A 
ATOM     20  C   LIG    1       -3.504   2.651   6.809  0.00  0.00    +0.120 A 
BRANCH  18  21
ATOM     21  N   LIG    1       -4.262  -0.445   8.638  0.00  0.00    -0.330 N 
ATOM     22  N   LIG    1       -4.177  -0.215  10.017  0.00  0.00    -0.290 NA
ATOM     23  C   LIG    1       -4.692  -1.246  10.637  0.00  0.00    +0.090 A 
ATOM     24  C   LIG    1       -5.115  -2.172   9.676  0.00  0.00    -0.100 A 
ATOM     25  C   LIG    1       -4.805  -1.411  12.130  0.00  0.00    +0.160 C 
ATOM     26  C   LIG    1       -4.841  -1.659   8.454  0.00  0.00    +0.090 A 
ATOM     27  C   LIG    1       -5.127  -2.318   7.129  0.00  0.00    +0.160 C 
ENDBRANCH  18  21
ENDBRANCH   3  15
TORSDOF 5
