REMARK  Name = ZINCpe00000P22Ri.0
REMARK                            x       y       z     vdW  Elec       q    Type
REMARK                         _______ _______ _______ _____ _____    ______ ____
ROOT
ATOM      1  O   LIG    1       -4.531   5.846  -0.645  0.00  0.00    -0.510 OA
ATOM      2  C   LIG    1       -3.794   5.576  -1.569  0.00  0.00    +0.510 C 
ATOM      3  N   LIG    1       -2.590   5.020  -1.331  0.00  0.00    -0.720 N 
ATOM      4  H   LIG    1       -2.000   4.804  -2.070  0.00  0.00    +0.400 HD
ENDROOT
BRANCH   2   5
ATOM      5  C   LIG    1       -4.225   5.861  -2.985  0.00  0.00    -0.080 C 
ATOM      6  C   LIG    1       -4.615   4.551  -3.624  0.00  0.00    +0.070 C 
ATOM      7  C   LIG    1       -6.066   4.292  -3.126  0.00  0.00    +0.010 C 
ATOM      8  C   LIG    1       -6.480   5.558  -2.316  0.00  0.00    +0.060 C 
ATOM      9  C   LIG    1       -3.212   6.794  -3.601  0.00  0.00    -0.290 C 
ATOM     10  S   LIG    1       -3.699   8.440  -2.932  0.00  0.00    +2.360 S 
ATOM     11  O   LIG    1       -2.755   8.854  -1.954  0.00  0.00    -0.930 OA
ATOM     12  O   LIG    1       -4.033   9.307  -4.006  0.00  0.00    -0.930 OA
ATOM     13  C   LIG    1       -5.245   7.880  -2.092  0.00  0.00    -0.260 C 
ATOM     14  C   LIG    1       -5.579   6.635  -2.910  0.00  0.00    +0.040 C 
ENDBRANCH   2   5
BRANCH   3  15
ATOM     15  C   LIG    1       -2.171   4.743   0.046  0.00  0.00    +0.330 C 
BRANCH  15  16
ATOM     16  C   LIG    1       -0.796   4.127   0.038  0.00  0.00    -0.060 A 
ATOM     17  C   LIG    1        0.321   4.939   0.105  0.00  0.00    +0.030 A 
ATOM     18  C   LIG    1        1.576   4.359   0.099  0.00  0.00    +0.140 A 
ATOM     19  C   LIG    1        1.707   2.988   0.027  0.00  0.00    -0.620 A 
ATOM     20  C   LIG    1        0.603   2.159  -0.047  0.00  0.00    -0.040 A 
ATOM     21  C   LIG    1        0.895   0.681  -0.132  0.00  0.00    +0.130 C 
ATOM     22  C   LIG    1        2.319   0.372   0.373  0.00  0.00    -0.270 C 
ATOM     23  S   LIG    1        3.158   1.963   0.011  0.00  0.00    +2.470 S 
ATOM     24  O   LIG    1        3.639   2.007  -1.325  0.00  0.00    -0.920 OA
ATOM     25  O   LIG    1        3.944   2.401   1.111  0.00  0.00    -0.930 OA
ATOM     26  C   LIG    1       -0.660   2.759  -0.042  0.00  0.00    +0.030 A 
ENDBRANCH  15  16
ENDBRANCH   3  15
TORSDOF 3
