REMARK  Name = ZINCpk00000xI8fS.0
REMARK                            x       y       z     vdW  Elec       q    Type
REMARK                         _______ _______ _______ _____ _____    ______ ____
ROOT
ATOM      1  N   LIG    1       -1.188   1.880   0.018  0.00  0.00    -0.550 N 
ATOM      2  C   LIG    1       -0.015   1.215   0.009  0.00  0.00    +0.600 A 
ATOM      3  C   LIG    1        1.188   1.940   0.001  0.00  0.00    -0.190 A 
ATOM      4  C   LIG    1        1.141   3.334   0.009  0.00  0.00    +0.380 A 
ATOM      5  N   LIG    1       -0.096   3.960   0.023  0.00  0.00    -0.510 N 
ATOM      6  C   LIG    1       -0.177   5.423   0.032  0.00  0.00    +0.340 C 
ATOM      7  N   LIG    1        2.396   3.776  -0.001  0.00  0.00    -0.500 NA
ATOM      8  C   LIG    1        3.236   2.751  -0.014  0.00  0.00    +0.450 A 
ATOM      9  N   LIG    1        4.566   2.422  -0.028  0.00  0.00    -0.460 N 
ATOM     10  C   LIG    1        4.661   1.043  -0.035  0.00  0.00    +0.070 A 
ATOM     11  C   LIG    1        3.429   0.542  -0.026  0.00  0.00    +0.020 A 
ATOM     12  C   LIG    1        3.071  -0.921  -0.030  0.00  0.00    +0.170 C 
ATOM     13  C   LIG    1        5.939   0.245  -0.051  0.00  0.00    +0.190 C 
ATOM     14  N   LIG    1        2.531   1.595  -0.013  0.00  0.00    -0.350 N 
ATOM     15  O   LIG    1        0.002  -0.004   0.002  0.00  0.00    -0.520 OA
ATOM     16  C   LIG    1       -1.223   3.224   0.030  0.00  0.00    +0.710 A 
ATOM     17  O   LIG    1       -2.300   3.788   0.043  0.00  0.00    -0.530 OA
ENDROOT
BRANCH   1  19
ATOM     18  C   LIG    1       -2.874   0.856   1.463  0.00  0.00    +0.030 C 
ATOM     19  C   LIG    1       -2.444   1.126   0.020  0.00  0.00    +0.310 C 
ENDBRANCH   1  19
BRANCH   9  20
ATOM     20  C   LIG    1        5.688   3.364  -0.033  0.00  0.00    +0.460 C 
BRANCH  20  21
ATOM     21  C   LIG    1        6.085   3.680   1.386  0.00  0.00    -0.060 A 
ATOM     22  C   LIG    1        6.990   3.006   2.118  0.00  0.00    -0.020 A 
ATOM     23  C   LIG    1        7.050   3.641   3.380  0.00  0.00    -0.070 A 
ATOM     24  C   LIG    1        6.173   4.660   3.346  0.00  0.00    +0.190 A 
ATOM     25  O   LIG    1        5.591   4.679   2.136  0.00  0.00    -0.160 OA
ENDBRANCH  20  21
ENDBRANCH   9  20
TORSDOF 3
