REMARK  Name = ZINCpe000000SLhx.0
REMARK                            x       y       z     vdW  Elec       q    Type
REMARK                         _______ _______ _______ _____ _____    ______ ____
ROOT
ATOM      1  N   LIG    1        4.067   0.159  -1.702  0.00  0.00    -0.730 N 
ATOM      2  H   LIG    1        4.624  -0.154  -0.972  0.00  0.00    +0.410 HD
ATOM      3  C   LIG    1        2.914   0.806  -1.442  0.00  0.00    +0.520 C 
ATOM      4  O   LIG    1        2.219   1.197  -2.355  0.00  0.00    -0.520 OA
ENDROOT
BRANCH   1   5
ATOM      5  C   LIG    1        4.480  -0.074  -3.088  0.00  0.00    +0.270 C 
BRANCH   5   6
ATOM      6  C   LIG    1        5.814  -0.823  -3.105  0.00  0.00    +0.290 C 
BRANCH   6   8
ATOM      7  C   LIG    1        7.380  -1.702  -4.751  0.00  0.00    +0.650 C 
ATOM      8  N   LIG    1        6.227  -1.055  -4.491  0.00  0.00    -0.710 N 
ATOM      9  H   LIG    1        5.670  -0.743  -5.221  0.00  0.00    +0.410 HD
ATOM     10  O   LIG    1        8.077  -2.094  -3.836  0.00  0.00    -0.560 OA
BRANCH   7  11
ATOM     11  O   LIG    1        7.759  -1.916  -6.025  0.00  0.00    -0.360 OA
BRANCH  11  13
ATOM     12  C   LIG    1        8.930  -4.006  -5.589  0.00  0.00    +0.040 C 
ATOM     13  C   LIG    1        9.013  -2.620  -6.231  0.00  0.00    +0.140 C 
ATOM     14  C   LIG    1       10.154  -1.828  -5.589  0.00  0.00    +0.040 C 
ATOM     15  C   LIG    1        9.275  -2.767  -7.731  0.00  0.00    +0.080 C 
ENDBRANCH  11  13
ENDBRANCH   7  11
ENDBRANCH   6   8
ENDBRANCH   5   6
ENDBRANCH   1   5
BRANCH   3  16
ATOM     16  C   LIG    1        2.490   1.045  -0.016  0.00  0.00    +0.120 C 
BRANCH  16  17
ATOM     17  C   LIG    1        1.176   1.783   0.000  0.00  0.00    -0.060 A 
ATOM     18  C   LIG    1       -0.013   1.076   0.008  0.00  0.00    +0.060 A 
ATOM     19  C   LIG    1       -1.218   1.749   0.017  0.00  0.00    +0.020 A 
ATOM     20  C   LIG    1       -1.236   3.137   0.030  0.00  0.00    +0.130 A 
ATOM     21  C   LIG    1       -0.042   3.845   0.023  0.00  0.00    +0.040 A 
ATOM     22  C   LIG    1        1.161   3.165   0.008  0.00  0.00    +0.060 A 
BRANCH  20  23
ATOM     23  N   LIG    1       -2.459   3.824   0.045  0.00  0.00    -0.330 N 
ATOM     24  C   LIG    1       -3.700   3.290   0.048  0.00  0.00    +0.470 A 
ATOM     25  N   LIG    1       -4.550   4.283   0.067  0.00  0.00    -0.330 NA
ATOM     26  N   LIG    1       -3.932   5.409   0.067  0.00  0.00    -0.030 NA
ATOM     27  N   LIG    1       -2.657   5.216   0.054  0.00  0.00    -0.080 NA
ENDBRANCH  20  23
ENDBRANCH  16  17
ENDBRANCH   3  16
TORSDOF 8
