REMARK  Name = ZINCb80000002kbq.0
REMARK                            x       y       z     vdW  Elec       q    Type
REMARK                         _______ _______ _______ _____ _____    ______ ____
ROOT
ATOM      1  C   LIG    1       -2.531   1.253   0.019  0.00  0.00    +0.210 C 
ATOM      2  C   LIG    1       -1.110   1.754   0.016  0.00  0.00    +0.320 A 
ATOM      3  N   LIG    1       -0.761   3.010   0.025  0.00  0.00    -0.490 NA
ATOM      4  C   LIG    1        0.582   3.110   0.013  0.00  0.00    +0.320 A 
ATOM      5  N   LIG    1        1.445   4.130   0.011  0.00  0.00    -0.520 NA
ATOM      6  C   LIG    1        2.741   3.909  -0.004  0.00  0.00    +0.560 A 
ATOM      7  N   LIG    1        3.254   2.692  -0.015  0.00  0.00    -0.580 NA
ATOM      8  C   LIG    1        2.471   1.617  -0.013  0.00  0.00    +0.480 A 
ATOM      9  C   LIG    1        1.087   1.799   0.001  0.00  0.00    -0.130 A 
ATOM     10  N   LIG    1       -0.011   0.966   0.007  0.00  0.00    -0.570 N 
ATOM     11  H   LIG    1        0.002  -0.004   0.002  0.00  0.00    +0.420 HD
ENDROOT
BRANCH   8  12
ATOM     12  N   LIG    1        3.017   0.343  -0.026  0.00  0.00    -0.840 N 
ATOM     13  H   LIG    1        3.980   0.229  -0.036  0.00  0.00    +0.410 HD
ATOM     14  H   LIG    1        2.436  -0.434  -0.025  0.00  0.00    +0.410 HD
ENDBRANCH   8  12
TORSDOF 1
