REMARK  Name = ZINCb80000002kbq.1
REMARK                            x       y       z     vdW  Elec       q    Type
REMARK                         _______ _______ _______ _____ _____    ______ ____
ROOT
ATOM      1  C   LIG    1       -0.018   1.503   0.010  0.00  0.00    +0.200 C 
ATOM      2  C   LIG    1        0.002  -0.004   0.002  0.00  0.00    +0.270 A 
ATOM      3  N   LIG    1        0.022  -0.756   1.064  0.00  0.00    -0.460 NA
ATOM      4  C   LIG    1        0.036  -2.059   0.693  0.00  0.00    -0.110 A 
ATOM      5  C   LIG    1        0.060  -3.283   1.383  0.00  0.00    +0.510 A 
ATOM      6  N   LIG    1        0.069  -4.409   0.677  0.00  0.00    -0.590 NA
ATOM      7  C   LIG    1        0.057  -4.387  -0.644  0.00  0.00    +0.580 A 
ATOM      8  N   LIG    1        0.035  -3.265  -1.332  0.00  0.00    -0.560 NA
ATOM      9  C   LIG    1        0.024  -2.090  -0.712  0.00  0.00    +0.300 A 
ATOM     10  N   LIG    1       -0.003  -0.780  -1.119  0.00  0.00    -0.580 N 
ATOM     11  H   LIG    1       -0.021  -0.464  -2.036  0.00  0.00    +0.430 HD
ENDROOT
BRANCH   5  12
ATOM     12  N   LIG    1        0.072  -3.315   2.767  0.00  0.00    -0.820 N 
ATOM     13  H   LIG    1        0.088  -4.166   3.232  0.00  0.00    +0.410 HD
ATOM     14  H   LIG    1        0.065  -2.487   3.271  0.00  0.00    +0.420 HD
ENDBRANCH   5  12
TORSDOF 1
