REMARK  Name = ZINCrH000004v8MI.1
REMARK                            x       y       z     vdW  Elec       q    Type
REMARK                         _______ _______ _______ _____ _____    ______ ____
ROOT
ATOM      1  C   LIG    1       -2.557   4.105   0.127  0.00  0.00    +0.200 A 
ATOM      2  C   LIG    1       -3.720   3.352   0.218  0.00  0.00    -0.020 A 
ATOM      3  C   LIG    1       -4.944   3.983   0.322  0.00  0.00    +0.150 A 
ATOM      4  C   LIG    1       -5.013   5.364   0.324  0.00  0.00    -0.680 A 
ATOM      5  C   LIG    1       -3.858   6.117   0.227  0.00  0.00    +0.150 A 
ATOM      6  C   LIG    1       -2.630   5.492   0.129  0.00  0.00    +0.010 A 
ENDROOT
BRANCH   1   9
ATOM      7  O   LIG    1       -0.312   5.101   1.150  0.00  0.00    -0.490 OA
ATOM      8  C   LIG    1       -0.230   4.014   0.610  0.00  0.00    +0.560 C 
ATOM      9  N   LIG    1       -1.316   3.469   0.027  0.00  0.00    -0.670 N 
ATOM     10  H   LIG    1       -1.236   2.635  -0.462  0.00  0.00    +0.410 HD
BRANCH   8  11
ATOM     11  C   LIG    1        1.057   3.294   0.593  0.00  0.00    -0.150 A 
ATOM     12  C   LIG    1        1.153   2.042  -0.021  0.00  0.00    +0.060 A 
ATOM     13  C   LIG    1        2.356   1.371  -0.030  0.00  0.00    +0.050 A 
ATOM     14  C   LIG    1        3.473   1.930   0.569  0.00  0.00    +0.040 A 
ATOM     15  C   LIG    1        3.393   3.167   1.181  0.00  0.00    +0.070 A 
ATOM     16  F   LIG    1        4.487   3.705   1.762  0.00  0.00    -0.120 F 
ATOM     17  C   LIG    1        2.188   3.857   1.198  0.00  0.00    +0.140 A 
BRANCH  17  18
ATOM     18  O   LIG    1        2.106   5.072   1.798  0.00  0.00    -0.470 OA
ATOM     19  H   LIG    1        1.869   5.033   2.734  0.00  0.00    +0.400 HD
ENDBRANCH  17  18
ENDBRANCH   8  11
ENDBRANCH   1   9
BRANCH   4  20
ATOM     20  S   LIG    1       -6.577   6.166   0.448  0.00  0.00    +2.590 S 
ATOM     21  O   LIG    1       -6.323   7.463   0.969  0.00  0.00    -0.930 OA
ATOM     22  O   LIG    1       -7.456   5.237   1.068  0.00  0.00    -0.930 OA
BRANCH  20  23
ATOM     23  C   LIG    1       -7.176   6.398  -1.193  0.00  0.00    -0.670 A 
ATOM     24  C   LIG    1       -6.873   7.558  -1.881  0.00  0.00    +0.160 A 
ATOM     25  C   LIG    1       -7.338   7.739  -3.170  0.00  0.00    -0.020 A 
ATOM     26  C   LIG    1       -8.117   6.763  -3.768  0.00  0.00    +0.160 A 
ATOM     27  C   LIG    1       -8.425   5.604  -3.075  0.00  0.00    -0.020 A 
ATOM     28  F   LIG    1       -8.577   6.941  -5.025  0.00  0.00    -0.130 F 
ATOM     29  C   LIG    1       -7.954   5.423  -1.788  0.00  0.00    +0.160 A 
ENDBRANCH  20  23
ENDBRANCH   4  20
TORSDOF 5
