REMARK  Name = ZINCnE00000hdbkR.0
REMARK                            x       y       z     vdW  Elec       q    Type
REMARK                         _______ _______ _______ _____ _____    ______ ____
ROOT
ATOM      1  C   LIG    1        3.633   3.643  -0.126  0.00  0.00    -0.190 A 
ATOM      2  C   LIG    1        2.420   4.341  -0.112  0.00  0.00    +0.420 A 
ATOM      3  N   LIG    1        2.381   5.652  -0.203  0.00  0.00    -0.470 NA
ATOM      4  C   LIG    1        3.484   6.376  -0.311  0.00  0.00    +0.230 A 
ATOM      5  O   LIG    1        3.748   7.691  -0.418  0.00  0.00    +0.100 OA
ATOM      6  N   LIG    1        4.928   7.939  -0.497  0.00  0.00    -0.290 NA
ATOM      7  C   LIG    1        5.685   6.868  -0.461  0.00  0.00    +0.130 A 
ATOM      8  C   LIG    1        4.744   5.741  -0.332  0.00  0.00    -0.220 A 
ATOM      9  C   LIG    1        4.830   4.364  -0.234  0.00  0.00    +0.200 A 
ENDROOT
BRANCH   7  10
ATOM     10  C   LIG    1        7.157   6.806  -0.532  0.00  0.00    +0.040 A 
ATOM     11  C   LIG    1        7.956   7.624  -1.271  0.00  0.00    +0.010 A 
ATOM     12  C   LIG    1        9.282   7.212  -1.040  0.00  0.00    -0.060 A 
ATOM     13  C   LIG    1        9.229   6.169  -0.187  0.00  0.00    +0.190 A 
ATOM     14  O   LIG    1        7.944   5.927   0.117  0.00  0.00    -0.160 OA
ENDBRANCH   7  10
BRANCH   1  16
ATOM     15  O   LIG    1        4.712   1.580   0.065  0.00  0.00    -0.470 OA
ATOM     16  C   LIG    1        3.652   2.170  -0.022  0.00  0.00    +0.500 C 
BRANCH  16  17
ATOM     17  C   LIG    1        2.386   1.414  -0.023  0.00  0.00    -0.330 A 
ATOM     18  C   LIG    1        1.885   0.879   1.167  0.00  0.00    +0.070 A 
ATOM     19  C   LIG    1        0.702   0.174   1.158  0.00  0.00    -0.160 A 
ATOM     20  C   LIG    1        0.004  -0.007  -0.025  0.00  0.00    +0.040 A 
ATOM     21  C   LIG    1        0.487   0.516  -1.208  0.00  0.00    -0.160 A 
ATOM     22  C   LIG    1        1.677   1.228  -1.219  0.00  0.00    +0.300 A 
ATOM     23  O   LIG    1        2.152   1.743  -2.381  0.00  0.00    -0.720 OA
ENDBRANCH  16  17
ENDBRANCH   1  16
TORSDOF 3
