REMARK  Name = ZINCnE00000hdbuR.0
REMARK                            x       y       z     vdW  Elec       q    Type
REMARK                         _______ _______ _______ _____ _____    ______ ____
ROOT
ATOM      1  C   LIG    1        4.164  -1.270   1.576  0.00  0.00    +0.060 C 
ATOM      2  C   LIG    1        4.220  -0.805   0.119  0.00  0.00    -0.100 C 
ENDROOT
BRANCH   2   3
ATOM      3  C   LIG    1        3.558   0.543  -0.003  0.00  0.00    +0.550 C 
ATOM      4  N   LIG    1        2.214   0.632  -0.051  0.00  0.00    -0.560 N 
ATOM      5  C   LIG    1        1.297  -0.511  -0.091  0.00  0.00    +0.270 C 
ATOM      6  C   LIG    1       -0.111   0.103  -0.137  0.00  0.00    +0.100 C 
ATOM      7  C   LIG    1        0.124   1.597  -0.120  0.00  0.00    -0.140 A 
ATOM      8  C   LIG    1       -0.765   2.654  -0.144  0.00  0.00    +0.040 A 
ATOM      9  C   LIG    1       -0.298   3.955  -0.119  0.00  0.00    -0.030 A 
ATOM     10  C   LIG    1        1.063   4.196  -0.069  0.00  0.00    +0.040 A 
ATOM     11  C   LIG    1        1.954   3.144  -0.044  0.00  0.00    +0.010 A 
ATOM     12  C   LIG    1        1.489   1.828  -0.069  0.00  0.00    +0.150 A 
ATOM     13  O   LIG    1        4.234   1.548  -0.059  0.00  0.00    -0.490 OA
ENDBRANCH   2   3
BRANCH   2  14
ATOM     14  S   LIG    1        5.947  -0.679  -0.407  0.00  0.00    +0.110 S 
BRANCH  14  15
ATOM     15  C   LIG    1        6.366  -2.388  -0.495  0.00  0.00    -0.090 A 
ATOM     16  C   LIG    1        5.386  -3.358  -0.319  0.00  0.00    -0.040 A 
ATOM     17  C   LIG    1        5.716  -4.695  -0.393  0.00  0.00    +0.000 A 
ATOM     18  C   LIG    1        7.025  -5.084  -0.631  0.00  0.00    -0.030 A 
ATOM     19  C   LIG    1        8.012  -4.140  -0.804  0.00  0.00    +0.060 A 
ATOM     20  C   LIG    1        7.695  -2.779  -0.737  0.00  0.00    -0.120 A 
BRANCH  20  21
ATOM     21  C   LIG    1        8.743  -1.765  -0.921  0.00  0.00    +0.520 C 
ATOM     22  O   LIG    1        8.461  -0.576  -0.862  0.00  0.00    -0.650 OA
ATOM     23  O   LIG    1        9.898  -2.110  -1.131  0.00  0.00    -0.680 OA
ENDBRANCH  20  21
ENDBRANCH  14  15
ENDBRANCH   2  14
TORSDOF 4
