REMARK  Name = ZINCqH0000050C62.0
REMARK                            x       y       z     vdW  Elec       q    Type
REMARK                         _______ _______ _______ _____ _____    ______ ____
ROOT
ATOM      1  S   LIG    1       -3.020  -0.668  -7.070  0.00  0.00    +0.090 S 
ENDROOT
BRANCH   1   6
ATOM      2  N   LIG    1       -2.114  -1.608  -9.547  0.00  0.00    -0.410 N 
ATOM      3  C   LIG    1       -0.930  -1.587 -10.237  0.00  0.00    +0.390 A 
ATOM      4  N   LIG    1       -0.059  -0.969  -9.491  0.00  0.00    -0.280 NA
ATOM      5  N   LIG    1       -0.605  -0.596  -8.389  0.00  0.00    -0.290 NA
ATOM      6  C   LIG    1       -1.866  -0.958  -8.370  0.00  0.00    +0.150 A 
BRANCH   2  13
ATOM      7  C   LIG    1       -4.325   0.125 -10.005  0.00  0.00    +0.110 C 
ATOM      8  C   LIG    1       -4.429  -1.366 -10.197  0.00  0.00    -0.060 A 
ATOM      9  C   LIG    1       -5.623  -1.928 -10.607  0.00  0.00    +0.030 A 
ATOM     10  C   LIG    1       -5.719  -3.296 -10.785  0.00  0.00    +0.040 A 
ATOM     11  C   LIG    1       -4.623  -4.105 -10.553  0.00  0.00    +0.030 A 
ATOM     12  C   LIG    1       -3.425  -3.548 -10.148  0.00  0.00    +0.040 A 
ATOM     13  C   LIG    1       -3.326  -2.176  -9.964  0.00  0.00    +0.090 A 
ENDBRANCH   2  13
ENDBRANCH   1   6
BRANCH   1  14
ATOM     14  C   LIG    1       -1.959   0.213  -5.898  0.00  0.00    +0.110 C 
BRANCH  14  15
ATOM     15  C   LIG    1       -2.756   0.573  -4.671  0.00  0.00    +0.540 C 
ATOM     16  N   LIG    1       -2.169   1.238  -3.656  0.00  0.00    -0.600 N 
ATOM     17  C   LIG    1       -0.752   1.619  -3.732  0.00  0.00    +0.270 C 
ATOM     18  C   LIG    1       -0.033   1.089  -2.487  0.00  0.00    +0.020 C 
ATOM     19  C   LIG    1       -0.752   1.592  -1.232  0.00  0.00    -0.010 C 
ATOM     20  C   LIG    1       -0.013   1.086   0.008  0.00  0.00    +0.010 C 
ATOM     21  C   LIG    1       -0.728   1.579   1.267  0.00  0.00    +0.000 C 
ATOM     22  C   LIG    1       -2.161   1.051   1.280  0.00  0.00    +0.000 C 
ATOM     23  C   LIG    1       -2.902   1.561   0.043  0.00  0.00    +0.030 C 
ATOM     24  C   LIG    1       -2.190   1.070  -1.220  0.00  0.00    -0.020 C 
ATOM     25  C   LIG    1       -2.932   1.595  -2.453  0.00  0.00    +0.290 C 
ATOM     26  O   LIG    1       -3.927   0.264  -4.596  0.00  0.00    -0.520 OA
ENDBRANCH  14  15
ENDBRANCH   1  14
TORSDOF 4
