REMARK  Name = ZINCpk00000y6xaM.0
REMARK                            x       y       z     vdW  Elec       q    Type
REMARK                         _______ _______ _______ _____ _____    ______ ____
ROOT
ATOM      1  C   LIG    1        1.340   1.762  -2.862  0.00  0.00    +0.510 C 
ATOM      2  N   LIG    1        2.619   1.619  -2.461  0.00  0.00    -0.620 N 
ATOM      3  C   LIG    1        3.684   0.932  -3.214  0.00  0.00    +0.240 C 
ATOM      4  C   LIG    1        5.003   1.552  -2.689  0.00  0.00    +0.040 C 
ATOM      5  C   LIG    1        4.679   1.747  -1.184  0.00  0.00    +0.040 C 
ATOM      6  C   LIG    1        3.182   2.121  -1.199  0.00  0.00    +0.220 C 
ATOM      7  O   LIG    1        0.545   2.348  -2.158  0.00  0.00    -0.490 OA
ENDROOT
BRANCH   1   8
ATOM      8  C   LIG    1        0.898   1.194  -4.186  0.00  0.00    +0.320 C 
BRANCH   8  19
ATOM      9  O   LIG    1        0.075   3.351  -5.345  0.00  0.00    -0.510 OA
ATOM     10  C   LIG    1       -0.831   2.619  -5.006  0.00  0.00    +0.530 C 
ATOM     11  C   LIG    1       -2.242   3.047  -5.304  0.00  0.00    +0.150 C 
ATOM     12  S   LIG    1       -3.235   1.576  -5.695  0.00  0.00    -0.080 S 
ATOM     13  C   LIG    1       -2.731   0.453  -4.432  0.00  0.00    -0.130 A 
ATOM     14  C   LIG    1       -3.615  -0.499  -3.952  0.00  0.00    +0.080 A 
ATOM     15  C   LIG    1       -3.213  -1.382  -2.974  0.00  0.00    +0.010 A 
ATOM     16  C   LIG    1       -1.932  -1.307  -2.461  0.00  0.00    +0.050 A 
ATOM     17  C   LIG    1       -1.045  -0.358  -2.931  0.00  0.00    -0.010 A 
ATOM     18  C   LIG    1       -1.434   0.532  -3.926  0.00  0.00    +0.170 A 
ATOM     19  N   LIG    1       -0.524   1.480  -4.390  0.00  0.00    -0.520 N 
ENDBRANCH   8  19
ENDBRANCH   1   8
BRANCH   6  20
ATOM     20  C   LIG    1        2.470   1.466  -0.014  0.00  0.00    +0.320 C 
BRANCH  20  21
ATOM     21  N   LIG    1        1.065   1.880   0.002  0.00  0.00    -0.360 N 
ATOM     22  C   LIG    1       -0.013   1.076   0.008  0.00  0.00    +0.450 A 
ATOM     23  N   LIG    1       -1.082   1.830   0.017  0.00  0.00    -0.530 NA
ATOM     24  C   LIG    1       -0.729   3.115   0.025  0.00  0.00    +0.400 A 
ATOM     25  N   LIG    1        0.576   3.196   0.013  0.00  0.00    -0.290 NA
ENDBRANCH  20  21
ENDBRANCH   6  20
TORSDOF 4
