REMARK  Name = ZINCpe000000URVp.0
REMARK                            x       y       z     vdW  Elec       q    Type
REMARK                         _______ _______ _______ _____ _____    ______ ____
ROOT
ATOM      1  N   LIG    1        8.384   1.932  -0.070  0.00  0.00    -0.720 N 
ATOM      2  H   LIG    1        7.895   2.770  -0.061  0.00  0.00    +0.400 HD
ATOM      3  C   LIG    1        7.715   0.762  -0.068  0.00  0.00    +0.560 C 
ATOM      4  O   LIG    1        8.328  -0.288  -0.079  0.00  0.00    -0.530 OA
ENDROOT
BRANCH   1   8
ATOM      5  N   LIG    1       12.331   3.160   0.743  0.00  0.00    -0.520 NA
ATOM      6  C   LIG    1       11.878   3.279  -0.648  0.00  0.00    +0.180 C 
ATOM      7  C   LIG    1       10.348   3.252  -0.692  0.00  0.00    +0.040 C 
ATOM      8  C   LIG    1        9.849   1.939  -0.083  0.00  0.00    +0.230 C 
ATOM      9  C   LIG    1       10.374   1.817   1.349  0.00  0.00    +0.030 C 
ATOM     10  C   LIG    1       11.903   1.886   1.334  0.00  0.00    +0.180 C 
BRANCH   5  11
ATOM     11  C   LIG    1       13.788   3.321   0.838  0.00  0.00    +0.220 C 
BRANCH  11  15
ATOM     12  C   LIG    1       15.873   3.710   4.025  0.00  0.00    +0.290 C 
ATOM     13  N   LIG    1       15.485   3.596   2.617  0.00  0.00    -0.740 N 
ATOM     14  H   LIG    1       16.161   3.632   1.923  0.00  0.00    +0.400 HD
ATOM     15  C   LIG    1       14.188   3.439   2.287  0.00  0.00    +0.510 C 
ATOM     16  O   LIG    1       13.342   3.394   3.154  0.00  0.00    -0.520 OA
ENDBRANCH  11  15
ENDBRANCH   5  11
ENDBRANCH   1   8
BRANCH   3  17
ATOM     17  C   LIG    1        6.239   0.755  -0.054  0.00  0.00    -0.150 A 
ATOM     18  C   LIG    1        5.544  -0.457  -0.053  0.00  0.00    +0.120 A 
ATOM     19  C   LIG    1        4.167  -0.459  -0.040  0.00  0.00    +0.020 A 
ATOM     20  C   LIG    1        3.468   0.743  -0.027  0.00  0.00    +0.190 A 
ATOM     21  C   LIG    1        4.156   1.951  -0.034  0.00  0.00    -0.010 A 
ATOM     22  C   LIG    1        5.533   1.961  -0.042  0.00  0.00    +0.080 A 
BRANCH  20  23
ATOM     23  N   LIG    1        2.069   0.736  -0.014  0.00  0.00    -0.330 N 
ATOM     24  C   LIG    1        1.264   1.830  -0.000  0.00  0.00    +0.230 A 
ATOM     25  C   LIG    1       -0.017   1.395   0.010  0.00  0.00    -0.090 A 
ATOM     26  C   LIG    1        0.002  -0.004   0.002  0.00  0.00    +0.250 A 
ATOM     27  N   LIG    1        1.249  -0.399  -0.012  0.00  0.00    -0.290 NA
ENDBRANCH  20  23
ENDBRANCH   3  17
TORSDOF 5
