REMARK  Name = ZINCrH000004r6Q8.0
REMARK                            x       y       z     vdW  Elec       q    Type
REMARK                         _______ _______ _______ _____ _____    ______ ____
ROOT
ATOM      1  N   LIG    1       -1.212   3.466   0.027  0.00  0.00    -0.680 N 
ATOM      2  H   LIG    1       -0.382   3.962   0.101  0.00  0.00    +0.410 HD
ATOM      3  C   LIG    1       -1.194   2.119   0.016  0.00  0.00    +0.710 C 
ATOM      4  N   LIG    1       -0.018   1.461  -0.006  0.00  0.00    -0.730 N 
ATOM      5  H   LIG    1        0.816   1.958  -0.018  0.00  0.00    +0.400 HD
ATOM      6  O   LIG    1       -2.238   1.496   0.026  0.00  0.00    -0.550 OA
ENDROOT
BRANCH   1  13
ATOM      7  C   LIG    1       -1.362   6.092   1.105  0.00  0.00    +0.100 C 
ATOM      8  C   LIG    1       -2.547   5.436   0.445  0.00  0.00    -0.090 A 
ATOM      9  C   LIG    1       -3.746   6.117   0.348  0.00  0.00    +0.020 A 
ATOM     10  C   LIG    1       -4.837   5.522  -0.251  0.00  0.00    +0.030 A 
ATOM     11  C   LIG    1       -4.731   4.229  -0.766  0.00  0.00    -0.120 A 
ATOM     12  C   LIG    1       -3.520   3.543  -0.673  0.00  0.00    +0.090 A 
ATOM     13  C   LIG    1       -2.430   4.150  -0.070  0.00  0.00    +0.160 A 
BRANCH  11  14
ATOM     14  C   LIG    1       -5.899   3.588  -1.407  0.00  0.00    +0.560 C 
ATOM     15  O   LIG    1       -5.805   2.462  -1.855  0.00  0.00    -0.530 OA
ATOM     16  N   LIG    1       -7.068   4.252  -1.496  0.00  0.00    -0.850 N 
ATOM     17  H   LIG    1       -7.834   3.832  -1.917  0.00  0.00    +0.410 HD
ATOM     18  H   LIG    1       -7.144   5.151  -1.139  0.00  0.00    +0.400 HD
ENDBRANCH  11  14
ENDBRANCH   1  13
BRANCH   4  19
ATOM     19  C   LIG    1        0.003  -0.004  -0.018  0.00  0.00    +0.200 C 
ATOM     20  C   LIG    1       -0.735  -0.514  -1.257  0.00  0.00    +0.040 C 
ATOM     21  C   LIG    1       -0.688  -0.533   1.241  0.00  0.00    +0.040 C 
BRANCH  19  22
ATOM     22  C   LIG    1        1.452  -0.493  -0.049  0.00  0.00    +0.230 C 
BRANCH  22  23
ATOM     23  O   LIG    1        1.472  -1.922  -0.060  0.00  0.00    -0.280 OA
BRANCH  23  24
ATOM     24  C   LIG    1        2.689  -2.522  -0.088  0.00  0.00    +0.340 A 
ATOM     25  N   LIG    1        3.783  -1.780  -0.108  0.00  0.00    -0.510 NA
ATOM     26  C   LIG    1        4.987  -2.321  -0.130  0.00  0.00    +0.340 A 
ATOM     27  C   LIG    1        5.146  -3.693  -0.144  0.00  0.00    -0.120 A 
ATOM     28  C   LIG    1        4.021  -4.508  -0.129  0.00  0.00    +0.140 A 
ATOM     29 CL   LIG    1        6.735  -4.392  -0.179  0.00  0.00    -0.040 Cl
ATOM     30  C   LIG    1        2.773  -3.909  -0.100  0.00  0.00    -0.100 A 
ATOM     31 CL   LIG    1        1.333  -4.878  -0.081  0.00  0.00    -0.020 Cl
ENDBRANCH  23  24
ENDBRANCH  22  23
ENDBRANCH  19  22
ENDBRANCH   4  19
TORSDOF 6
