REMARK  Name = ZINCb80000001CLZ.0
REMARK                            x       y       z     vdW  Elec       q    Type
REMARK                         _______ _______ _______ _____ _____    ______ ____
ROOT
ATOM      1  C   LIG    1       -0.018   1.503   0.010  0.00  0.00    -0.150 A 
ATOM      2  C   LIG    1        1.167   2.210   0.003  0.00  0.00    +0.060 A 
ATOM      3  C   LIG    1        1.150   3.593   0.009  0.00  0.00    -0.060 A 
ATOM      4  C   LIG    1       -0.055   4.272   0.025  0.00  0.00    +0.050 A 
ATOM      5  C   LIG    1       -1.245   3.571   0.033  0.00  0.00    -0.080 A 
ATOM      6  C   LIG    1       -1.230   2.182   0.020  0.00  0.00    +0.230 A 
ENDROOT
BRANCH   6   7
ATOM      7  N   LIG    1       -2.432   1.469   0.022  0.00  0.00    -0.880 N 
ATOM      8  H   LIG    1       -3.277   1.945   0.029  0.00  0.00    +0.400 HD
ATOM      9  H   LIG    1       -2.421   0.499   0.017  0.00  0.00    +0.390 HD
ENDBRANCH   6   7
BRANCH   1  10
ATOM     10  C   LIG    1        0.002  -0.004   0.002  0.00  0.00    +0.100 C 
BRANCH  10  14
ATOM     11  N   LIG    1       -0.134  -1.824  -1.667  0.00  0.00    -0.860 N 
ATOM     12  H   LIG    1       -0.218  -2.144  -2.579  0.00  0.00    +0.400 HD
ATOM     13  H   LIG    1       -0.054  -2.458  -0.937  0.00  0.00    +0.400 HD
ATOM     14  C   LIG    1       -0.128  -0.500  -1.415  0.00  0.00    +0.510 C 
ATOM     15  O   LIG    1       -0.228   0.291  -2.328  0.00  0.00    -0.530 OA
ENDBRANCH  10  14
ENDBRANCH   1  10
TORSDOF 3
