REMARK  Name = ZINCvU000000099b.0
REMARK                            x       y       z     vdW  Elec       q    Type
REMARK                         _______ _______ _______ _____ _____    ______ ____
ROOT
ATOM      1  N   LIG    1        3.557  -0.140  -0.033  0.00  0.00    -0.610 N 
ATOM      2  H   LIG    1        3.786  -1.083  -0.040  0.00  0.00    +0.430 HD
ATOM      3  C   LIG    1        4.531   0.791  -0.037  0.00  0.00    +0.600 C 
ATOM      4  O   LIG    1        4.243   1.973  -0.028  0.00  0.00    -0.480 OA
ENDROOT
BRANCH   3   5
ATOM      5  C   LIG    1        5.944   0.378  -0.053  0.00  0.00    -0.260 A 
ATOM      6  C   LIG    1        6.743   0.141   1.051  0.00  0.00    +0.170 A 
ATOM      7  N   LIG    1        7.960  -0.213   0.597  0.00  0.00    -0.300 N 
ATOM      8  N   LIG    1        7.931  -0.201  -0.802  0.00  0.00    -0.260 NA
ATOM      9 CL   LIG    1        6.265   0.277   2.715  0.00  0.00    +0.030 Cl
ATOM     10  C   LIG    1        6.737   0.143  -1.199  0.00  0.00    +0.140 A 
ATOM     11  C   LIG    1        6.284   0.271  -2.631  0.00  0.00    +0.180 C 
BRANCH   7  12
ATOM     12  C   LIG    1        9.068  -0.539   1.392  0.00  0.00    +0.120 A 
ATOM     13  C   LIG    1        9.278   0.120   2.595  0.00  0.00    +0.050 A 
ATOM     14  C   LIG    1       10.367  -0.207   3.380  0.00  0.00    +0.020 A 
ATOM     15  C   LIG    1       11.256  -1.182   2.960  0.00  0.00    +0.110 A 
ATOM     16  C   LIG    1       11.052  -1.836   1.756  0.00  0.00    +0.010 A 
ATOM     17  F   LIG    1       12.324  -1.496   3.725  0.00  0.00    -0.130 F 
ATOM     18  C   LIG    1        9.960  -1.517   0.973  0.00  0.00    +0.080 A 
ENDBRANCH   7  12
ENDBRANCH   3   5
BRANCH   1  22
ATOM     19  C   LIG    1        0.002  -0.004   0.002  0.00  0.00    +0.130 A 
ATOM     20  C   LIG    1       -0.016   1.341   0.009  0.00  0.00    -0.250 A 
ATOM     21  S   LIG    1        1.650   1.914  -0.003  0.00  0.00    +0.200 S 
ATOM     22  C   LIG    1        2.224   0.249  -0.018  0.00  0.00    +0.270 A 
ATOM     23  C   LIG    1       -1.249   2.207   0.020  0.00  0.00    +0.150 C 
ATOM     24  N   LIG    1        1.207  -0.556  -0.013  0.00  0.00    -0.490 NA
BRANCH  19  28
ATOM     25  C   LIG    1       -3.561  -2.327   0.026  0.00  0.00    +0.130 A 
ATOM     26  C   LIG    1       -2.450  -2.770  -0.678  0.00  0.00    -0.020 A 
ATOM     27  C   LIG    1       -1.293  -2.019  -0.688  0.00  0.00    +0.080 A 
ATOM     28  C   LIG    1       -1.241  -0.814   0.010  0.00  0.00    -0.060 A 
ATOM     29  C   LIG    1       -2.357  -0.374   0.720  0.00  0.00    +0.070 A 
ATOM     30  C   LIG    1       -3.512  -1.127   0.722  0.00  0.00    -0.080 A 
BRANCH  25  32
ATOM     31  C   LIG    1       -5.805  -2.554   0.779  0.00  0.00    +0.250 C 
ATOM     32  O   LIG    1       -4.700  -3.069   0.034  0.00  0.00    -0.320 OA
ENDBRANCH  25  32
ENDBRANCH  19  28
ENDBRANCH   1  22
TORSDOF 5
