REMARK  Name = ZINCrg000000stMc.0
REMARK                            x       y       z     vdW  Elec       q    Type
REMARK                         _______ _______ _______ _____ _____    ______ ____
ROOT
ATOM      1  N   LIG    1       -5.819   2.554   7.084  0.00  0.00    -0.640 N 
ATOM      2  H   LIG    1       -6.090   1.624   7.132  0.00  0.00    +0.420 HD
ATOM      3  C   LIG    1       -5.158   3.009   6.002  0.00  0.00    +0.510 C 
ATOM      4  O   LIG    1       -4.903   4.191   5.898  0.00  0.00    -0.490 OA
ENDROOT
BRANCH   1  11
ATOM      5  C   LIG    1       -6.619   7.060  12.000  0.00  0.00    +0.160 C 
ATOM      6  C   LIG    1       -7.233   5.863  11.321  0.00  0.00    +0.100 A 
ATOM      7  N   LIG    1       -8.363   5.305  11.643  0.00  0.00    -0.260 NA
ATOM      8  N   LIG    1       -8.615   4.219  10.796  0.00  0.00    -0.410 N 
ATOM      9  C   LIG    1       -7.572   4.119   9.910  0.00  0.00    +0.150 A 
ATOM     10  C   LIG    1       -7.281   3.253   8.861  0.00  0.00    -0.040 A 
ATOM     11  C   LIG    1       -6.114   3.422   8.138  0.00  0.00    +0.200 A 
ATOM     12  C   LIG    1       -5.226   4.451   8.458  0.00  0.00    -0.020 A 
ATOM     13  C   LIG    1       -5.500   5.311   9.479  0.00  0.00    +0.120 A 
ATOM     14  C   LIG    1       -9.788   3.343  10.846  0.00  0.00    +0.350 C 
ATOM     15  C   LIG    1       -6.676   5.159  10.226  0.00  0.00    -0.190 A 
ENDBRANCH   1  11
BRANCH   3  16
ATOM     16  C   LIG    1       -4.739   2.058   4.929  0.00  0.00    +0.530 C 
ATOM     17  N   LIG    1       -4.077   2.512   3.846  0.00  0.00    -0.580 N 
ATOM     18  C   LIG    1       -3.705   3.912   3.595  0.00  0.00    +0.270 C 
ATOM     19  C   LIG    1       -2.990   3.958   2.228  0.00  0.00    +0.040 C 
ATOM     20  C   LIG    1       -3.500   2.672   1.526  0.00  0.00    +0.260 C 
ATOM     21  C   LIG    1       -3.607   1.688   2.718  0.00  0.00    +0.270 C 
ATOM     22  O   LIG    1       -4.993   0.876   5.032  0.00  0.00    -0.520 OA
BRANCH  20  23
ATOM     23  N   LIG    1       -2.531   2.194   0.536  0.00  0.00    -0.620 N 
ATOM     24  C   LIG    1       -2.850   1.921  -0.870  0.00  0.00    +0.260 C 
ATOM     25  C   LIG    1       -1.489   1.875  -1.600  0.00  0.00    +0.040 C 
ATOM     26  C   LIG    1       -0.530   1.480  -0.453  0.00  0.00    +0.050 C 
ATOM     27  C   LIG    1       -1.233   1.950   0.801  0.00  0.00    +0.520 C 
ATOM     28  O   LIG    1       -0.704   2.086   1.885  0.00  0.00    -0.520 OA
ENDBRANCH  20  23
ENDBRANCH   3  16
TORSDOF 3
