REMARK  Name = ZINCpk000004PNnU.0
REMARK                            x       y       z     vdW  Elec       q    Type
REMARK                         _______ _______ _______ _____ _____    ______ ____
ROOT
ATOM      1  C   LIG    1       -3.531   2.238   0.594  0.00  0.00    +0.140 C 
ATOM      2  C   LIG    1       -4.826   1.455   0.350  0.00  0.00    +0.280 C 
ATOM      3  N   LIG    1       -5.923   2.419   0.165  0.00  0.00    -0.610 N 
ATOM      4  C   LIG    1       -5.730   3.509  -0.805  0.00  0.00    +0.250 C 
ATOM      5  C   LIG    1       -4.391   4.191  -0.504  0.00  0.00    +0.220 C 
ATOM      6  C   LIG    1       -7.070   2.306   0.863  0.00  0.00    +0.570 C 
ATOM      7  O   LIG    1       -7.238   1.361   1.608  0.00  0.00    -0.530 OA
ATOM      8  O   LIG    1       -3.359   3.203  -0.447  0.00  0.00    -0.370 OA
ENDROOT
BRANCH   6   9
ATOM      9  C   LIG    1       -8.123   3.332   0.722  0.00  0.00    -0.140 A 
ATOM     10  C   LIG    1       -8.710   3.892   1.860  0.00  0.00    +0.070 A 
ATOM     11  C   LIG    1       -9.687   4.852   1.728  0.00  0.00    +0.000 A 
ATOM     12  C   LIG    1      -10.100   5.257   0.459  0.00  0.00    +0.030 A 
ATOM     13  C   LIG    1       -9.519   4.695  -0.678  0.00  0.00    +0.010 A 
ATOM     14  C   LIG    1       -8.538   3.739  -0.549  0.00  0.00    +0.050 A 
BRANCH  12  15
ATOM     15  C   LIG    1      -11.158   6.287   0.318  0.00  0.00    -0.210 A 
ATOM     16  C   LIG    1      -11.814   6.916   1.338  0.00  0.00    +0.260 A 
ATOM     17  N   LIG    1      -12.690   7.779   0.787  0.00  0.00    -0.470 N 
ATOM     18  H   LIG    1      -13.292   8.364   1.273  0.00  0.00    +0.440 HD
ATOM     19  N   LIG    1      -12.586   7.681  -0.605  0.00  0.00    -0.290 NA
ATOM     20  C   LIG    1      -11.673   6.792  -0.893  0.00  0.00    +0.260 A 
ENDBRANCH  12  15
ENDBRANCH   6   9
BRANCH   1  21
ATOM     21  C   LIG    1       -2.344   1.274   0.598  0.00  0.00    +0.300 C 
BRANCH  21  23
ATOM     22  C   LIG    1        0.056   1.353   1.012  0.00  0.00    +0.510 C 
ATOM     23  N   LIG    1       -1.122   2.003   0.947  0.00  0.00    -0.730 N 
ATOM     24  H   LIG    1       -1.162   2.955   1.131  0.00  0.00    +0.400 HD
ATOM     25  O   LIG    1        0.106   0.163   0.782  0.00  0.00    -0.540 OA
BRANCH  22  27
ATOM     26  C   LIG    1        2.502   1.141   1.363  0.00  0.00    +0.040 C 
ATOM     27  C   LIG    1        1.314   2.105   1.365  0.00  0.00    +0.040 C 
ENDBRANCH  22  27
ENDBRANCH  21  23
ENDBRANCH   1  21
TORSDOF 5
