REMARK  Name = ZINCqH000000747i.0
REMARK                            x       y       z     vdW  Elec       q    Type
REMARK                         _______ _______ _______ _____ _____    ______ ____
ROOT
ATOM      1  C   LIG    1       -0.045  -2.743  -3.029  0.00  0.00    +0.570 C 
ATOM      2  N   LIG    1       -0.078  -3.068  -1.721  0.00  0.00    -0.650 N 
ATOM      3  H   LIG    1       -0.147  -3.998  -1.454  0.00  0.00    +0.410 HD
ATOM      4  O   LIG    1        0.042  -1.577  -3.364  0.00  0.00    -0.500 OA
ENDROOT
BRANCH   1   8
ATOM      5  C   LIG    1       -0.244  -5.797  -5.977  0.00  0.00    +0.140 A 
ATOM      6  C   LIG    1       -0.278  -6.129  -4.630  0.00  0.00    -0.030 A 
ATOM      7  C   LIG    1       -0.208  -5.142  -3.671  0.00  0.00    +0.050 A 
ATOM      8  C   LIG    1       -0.114  -3.802  -4.054  0.00  0.00    -0.140 A 
ATOM      9  C   LIG    1       -0.080  -3.467  -5.411  0.00  0.00    +0.040 A 
ATOM     10  C   LIG    1       -0.144  -4.461  -6.366  0.00  0.00    +0.100 A 
BRANCH   5  12
ATOM     11  C   LIG    1       -0.407  -8.120  -6.449  0.00  0.00    +0.250 C 
ATOM     12  O   LIG    1       -0.307  -6.774  -6.918  0.00  0.00    -0.300 OA
ENDBRANCH   5  12
BRANCH  10  13
ATOM     13  O   LIG    1       -0.112  -4.139  -7.687  0.00  0.00    -0.300 OA
ATOM     14  C   LIG    1       -0.010  -2.751  -8.014  0.00  0.00    +0.250 C 
ENDBRANCH  10  13
ENDBRANCH   1   8
BRANCH   2  15
ATOM     15  C   LIG    1       -0.013  -2.067  -0.753  0.00  0.00    +0.310 A 
ATOM     16  C   LIG    1       -0.038  -0.725  -0.978  0.00  0.00    -0.080 A 
ATOM     17  C   LIG    1        0.053  -0.081   0.259  0.00  0.00    +0.090 A 
ATOM     18  N   LIG    1        0.120  -0.991   1.197  0.00  0.00    -0.270 NA
ATOM     19  C   LIG    1        0.064   1.411   0.476  0.00  0.00    +0.160 C 
ATOM     20  N   LIG    1        0.081  -2.254   0.592  0.00  0.00    -0.340 N 
BRANCH  20  21
ATOM     21  C   LIG    1        0.130  -3.488   1.254  0.00  0.00    +0.140 A 
ATOM     22  C   LIG    1       -0.798  -4.476   0.953  0.00  0.00    +0.000 A 
ATOM     23  C   LIG    1       -0.747  -5.691   1.607  0.00  0.00    +0.030 A 
ATOM     24  C   LIG    1        0.227  -5.925   2.560  0.00  0.00    +0.020 A 
ATOM     25  C   LIG    1        1.153  -4.943   2.862  0.00  0.00    +0.030 A 
ATOM     26  C   LIG    1        1.111  -3.728   2.207  0.00  0.00    -0.070 A 
ATOM     27  C   LIG    1        2.124  -2.660   2.532  0.00  0.00    +0.110 C 
ENDBRANCH  20  21
ENDBRANCH   2  15
TORSDOF 5
