REMARK  Name = ZINCqH00000004pS.0
REMARK                            x       y       z     vdW  Elec       q    Type
REMARK                         _______ _______ _______ _____ _____    ______ ____
ROOT
ATOM      1  C   LIG    1       -4.001   5.436   0.294  0.00  0.00    -0.060 A 
ATOM      2  C   LIG    1       -4.653   4.337  -0.179  0.00  0.00    +0.080 A 
ATOM      3  C   LIG    1       -6.120   4.222  -0.499  0.00  0.00    +0.150 C 
ATOM      4  C   LIG    1       -6.556   2.763  -0.340  0.00  0.00    +0.020 C 
ATOM      5  C   LIG    1       -6.342   2.021  -1.657  0.00  0.00    +0.010 C 
ATOM      6  C   LIG    1       -4.865   2.036  -2.045  0.00  0.00    +0.020 C 
ATOM      7  C   LIG    1       -3.999   1.990  -0.783  0.00  0.00    +0.300 C 
ATOM      8  N   LIG    1       -3.733   3.356  -0.324  0.00  0.00    -0.440 N 
ATOM      9  C   LIG    1       -2.523   3.870   0.046  0.00  0.00    +0.240 A 
ATOM     10  N   LIG    1       -2.695   5.114   0.424  0.00  0.00    -0.440 NA
ENDROOT
BRANCH   1  15
ATOM     11  C   LIG    1       -3.077  10.005   1.298  0.00  0.00    -0.010 C 
ATOM     12  C   LIG    1       -1.951   9.071   1.815  0.00  0.00    +0.040 C 
ATOM     13  C   LIG    1       -2.396   7.680   1.317  0.00  0.00    +0.280 C 
ATOM     14  N   LIG    1       -3.845   7.746   1.077  0.00  0.00    -0.610 N 
ATOM     15  C   LIG    1       -4.611   6.739   0.613  0.00  0.00    +0.620 C 
ATOM     16  O   LIG    1       -5.806   6.905   0.457  0.00  0.00    -0.540 OA
ATOM     17  C   LIG    1       -4.322   9.094   1.433  0.00  0.00    +0.260 C 
BRANCH  11  18
ATOM     18  C   LIG    1       -3.207  11.248   2.181  0.00  0.00    +0.180 C 
BRANCH  18  20
ATOM     19  C   LIG    1       -5.179  12.766   1.281  0.00  0.00    +0.020 C 
ATOM     20  C   LIG    1       -4.304  12.092   1.680  0.00  0.00    -0.190 C 
ENDBRANCH  18  20
ENDBRANCH  11  18
ENDBRANCH   1  15
BRANCH   9  21
ATOM     21  C   LIG    1       -1.235   3.143   0.030  0.00  0.00    -0.010 A 
ATOM     22  C   LIG    1       -0.046   3.830  -0.215  0.00  0.00    +0.050 A 
ATOM     23  C   LIG    1        1.152   3.146  -0.234  0.00  0.00    +0.010 A 
ATOM     24  C   LIG    1        1.177   1.782  -0.000  0.00  0.00    +0.020 A 
ATOM     25  C   LIG    1        0.002   1.096   0.249  0.00  0.00    +0.010 A 
ATOM     26  C   LIG    1       -1.203   1.768   0.266  0.00  0.00    +0.000 A 
ENDBRANCH   9  21
TORSDOF 4
