REMARK  Name = ZINCvU0000000J4z.1
REMARK                            x       y       z     vdW  Elec       q    Type
REMARK                         _______ _______ _______ _____ _____    ______ ____
ROOT
ATOM      1  C   LIG    1        1.115   1.667  -2.920  0.00  0.00    +0.240 C 
ATOM      2  C   LIG    1        1.635   2.947  -3.627  0.00  0.00    +0.060 C 
ATOM      3  C   LIG    1        2.711   2.397  -4.588  0.00  0.00    +0.260 C 
ATOM      4  N   LIG    1        2.410   0.976  -4.814  0.00  0.00    -0.610 N 
ATOM      5  C   LIG    1        3.130   0.133  -5.581  0.00  0.00    +0.590 C 
ATOM      6  O   LIG    1        2.785  -1.028  -5.697  0.00  0.00    -0.520 OA
ATOM      7  C   LIG    1        1.190   0.626  -4.065  0.00  0.00    +0.270 C 
ENDROOT
BRANCH   5   8
ATOM      8  C   LIG    1        4.330   0.616  -6.276  0.00  0.00    -0.110 A 
ATOM      9  C   LIG    1        5.590   0.558  -5.646  0.00  0.00    -0.010 A 
ATOM     10  C   LIG    1        5.730   0.031  -4.350  0.00  0.00    +0.000 A 
ATOM     11  C   LIG    1        6.960  -0.015  -3.773  0.00  0.00    +0.030 A 
ATOM     12  C   LIG    1        8.097   0.444  -4.436  0.00  0.00    +0.010 A 
ATOM     13  C   LIG    1        8.031   0.961  -5.691  0.00  0.00    +0.030 A 
ATOM     14  C   LIG    1        6.784   1.038  -6.346  0.00  0.00    -0.060 A 
ATOM     15  C   LIG    1        6.680   1.563  -7.635  0.00  0.00    +0.080 A 
ATOM     16  C   LIG    1        5.436   1.628  -8.264  0.00  0.00    -0.060 A 
ATOM     17  C   LIG    1        5.307   2.155  -9.567  0.00  0.00    +0.030 A 
ATOM     18  C   LIG    1        4.081   2.205 -10.151  0.00  0.00    +0.010 A 
ATOM     19  C   LIG    1        2.939   1.748  -9.495  0.00  0.00    +0.030 A 
ATOM     20  C   LIG    1        2.997   1.229  -8.239  0.00  0.00    +0.000 A 
ATOM     21  C   LIG    1        4.235   1.148  -7.577  0.00  0.00    -0.010 A 
ENDBRANCH   5   8
BRANCH   1  31
ATOM     22  C   LIG    1        0.071   1.067  -0.061  0.00  0.00    +0.170 C 
ATOM     23  C   LIG    1       -0.739   1.589  -1.220  0.00  0.00    +0.200 A 
ATOM     24  N   LIG    1       -2.016   1.869  -1.191  0.00  0.00    -0.480 NA
ATOM     25  C   LIG    1       -2.395   2.307  -2.394  0.00  0.00    +0.010 A 
ATOM     26  C   LIG    1       -1.313   2.297  -3.202  0.00  0.00    -0.030 A 
ATOM     27  C   LIG    1       -1.324   2.721  -4.647  0.00  0.00    +0.110 C 
ATOM     28  C   LIG    1       -2.779   2.753  -5.132  0.00  0.00    +0.020 C 
ATOM     29  C   LIG    1       -3.630   3.546  -4.135  0.00  0.00    +0.020 C 
ATOM     30  C   LIG    1       -3.769   2.750  -2.832  0.00  0.00    +0.130 C 
ATOM     31  N   LIG    1       -0.265   1.845  -2.461  0.00  0.00    -0.440 N 
ENDBRANCH   1  31
TORSDOF 2
