REMARK  Name = ZINCrD000000fF18.0
REMARK                            x       y       z     vdW  Elec       q    Type
REMARK                         _______ _______ _______ _____ _____    ______ ____
ROOT
ATOM      1  N   LIG    1       -6.378  -1.108   1.325  0.00  0.00    -0.720 N 
ATOM      2  H   LIG    1       -6.694  -0.293   1.746  0.00  0.00    +0.410 HD
ATOM      3  C   LIG    1       -5.073  -1.244   1.017  0.00  0.00    +0.610 C 
ATOM      4  O   LIG    1       -4.676  -2.265   0.489  0.00  0.00    -0.530 OA
ENDROOT
BRANCH   3   5
ATOM      5  C   LIG    1       -4.124  -0.153   1.320  0.00  0.00    -0.020 A 
ATOM      6  N   LIG    1       -4.412   1.002   1.885  0.00  0.00    -0.260 NA
ATOM      7  N   LIG    1       -3.349   1.713   2.003  0.00  0.00    -0.260 N 
ATOM      8  C   LIG    1       -2.285   1.048   1.502  0.00  0.00    +0.020 A 
ATOM      9  C   LIG    1       -2.734  -0.149   1.058  0.00  0.00    -0.010 A 
BRANCH   7  10
ATOM     10  C   LIG    1       -3.297   3.053   2.593  0.00  0.00    +0.170 C 
ATOM     11  C   LIG    1       -2.232   3.086   3.691  0.00  0.00    +0.060 C 
ATOM     12  C   LIG    1       -4.661   3.397   3.196  0.00  0.00    +0.070 C 
ATOM     13  C   LIG    1       -2.946   4.074   1.509  0.00  0.00    +0.060 C 
ENDBRANCH   7  10
BRANCH   8  14
ATOM     14  C   LIG    1       -0.863   1.545   1.452  0.00  0.00    +0.060 C 
ATOM     15  C   LIG    1       -0.087   0.989   2.648  0.00  0.00    +0.040 C 
ATOM     16  C   LIG    1       -0.204   1.075   0.154  0.00  0.00    +0.050 C 
ENDBRANCH   8  14
ENDBRANCH   3   5
BRANCH   1  17
ATOM     17  C   LIG    1       -7.318  -2.190   1.024  0.00  0.00    +0.320 C 
BRANCH  17  21
ATOM     18  C   LIG    1      -11.242  -1.054   2.272  0.00  0.00    -0.100 A 
ATOM     19  C   LIG    1      -10.812  -0.760   0.992  0.00  0.00    +0.030 A 
ATOM     20  C   LIG    1       -9.542  -1.127   0.588  0.00  0.00    +0.030 A 
ATOM     21  C   LIG    1       -8.703  -1.789   1.465  0.00  0.00    -0.100 A 
ATOM     22  C   LIG    1       -9.135  -2.088   2.743  0.00  0.00    +0.030 A 
ATOM     23  C   LIG    1      -10.403  -1.716   3.149  0.00  0.00    +0.030 A 
BRANCH  18  24
ATOM     24  C   LIG    1      -12.627  -0.652   2.713  0.00  0.00    +0.320 C 
BRANCH  24  27
ATOM     25  C   LIG    1      -15.840  -2.711   2.411  0.00  0.00    +0.090 C 
ATOM     26  C   LIG    1      -14.872  -1.598   2.720  0.00  0.00    +0.510 C 
ATOM     27  N   LIG    1      -13.567  -1.734   2.412  0.00  0.00    -0.730 N 
ATOM     28  H   LIG    1      -13.251  -2.549   1.991  0.00  0.00    +0.400 HD
ATOM     29  O   LIG    1      -15.268  -0.579   3.247  0.00  0.00    -0.550 OA
ENDBRANCH  24  27
ENDBRANCH  18  24
ENDBRANCH  17  21
ENDBRANCH   1  17
TORSDOF 7
