REMARK  Name = ZINCbu0000000GAV.0
REMARK                            x       y       z     vdW  Elec       q    Type
REMARK                         _______ _______ _______ _____ _____    ______ ____
ROOT
ATOM      1  C   LIG    1       -0.013   1.086   0.008  0.00  0.00    +0.240 C 
ENDROOT
BRANCH   1   2
ATOM      2  C   LIG    1       -0.742   1.585  -1.213  0.00  0.00    -0.160 A 
ATOM      3  C   LIG    1       -0.551   2.883  -1.649  0.00  0.00    +0.000 A 
ATOM      4  C   LIG    1       -1.216   3.339  -2.772  0.00  0.00    +0.030 A 
ATOM      5  C   LIG    1       -2.079   2.501  -3.452  0.00  0.00    -0.050 A 
ATOM      6  C   LIG    1       -2.273   1.205  -3.013  0.00  0.00    +0.030 A 
ATOM      7  C   LIG    1       -2.809   3.001  -4.673  0.00  0.00    +0.110 C 
ATOM      8  C   LIG    1       -1.605   0.747  -1.893  0.00  0.00    +0.050 A 
ENDBRANCH   1   2
BRANCH   1   9
ATOM      9  N   LIG    1        1.365   1.594  -0.002  0.00  0.00    -0.640 N 
ATOM     10  H   LIG    1        1.838   1.269  -0.833  0.00  0.00    +0.440 HD
ATOM     11  H   LIG    1        1.853   1.260   0.815  0.00  0.00    +0.440 HD
ATOM     12  H   LIG    1        1.352   2.603   0.003  0.00  0.00    +0.430 HD
ENDBRANCH   1   9
BRANCH   1  14
ATOM     13  C   LIG    1       -0.064   0.971   2.503  0.00  0.00    +0.030 C 
ATOM     14  C   LIG    1       -0.729   1.579   1.267  0.00  0.00    +0.060 C 
ENDBRANCH   1  14
TORSDOF 3
