REMARK  Name = ZINCqH0000007T1v.0
REMARK                            x       y       z     vdW  Elec       q    Type
REMARK                         _______ _______ _______ _____ _____    ______ ____
ROOT
ATOM      1  N   LIG    1        1.165   2.147   0.478  0.00  0.00    -0.700 N 
ATOM      2  H   LIG    1        1.195   3.085   0.234  0.00  0.00    +0.410 HD
ATOM      3  C   LIG    1       -0.002   1.586   0.853  0.00  0.00    +0.600 C 
ATOM      4  O   LIG    1       -0.041   0.409   1.159  0.00  0.00    -0.520 OA
ENDROOT
BRANCH   3   5
ATOM      5  C   LIG    1       -1.226   2.393   0.887  0.00  0.00    -0.060 A 
ATOM      6  C   LIG    1       -2.469   1.951   1.241  0.00  0.00    +0.050 A 
ATOM      7  C   LIG    1       -3.334   3.051   1.132  0.00  0.00    -0.020 A 
ATOM      8  C   LIG    1       -2.591   4.103   0.722  0.00  0.00    +0.020 A 
ATOM      9  O   LIG    1       -1.321   3.703   0.580  0.00  0.00    -0.150 OA
BRANCH   8  10
ATOM     10  C   LIG    1       -3.106   5.496   0.471  0.00  0.00    +0.240 C 
BRANCH  10  11
ATOM     11  S   LIG    1       -2.994   6.466   2.000  0.00  0.00    -0.210 S 
BRANCH  11  12
ATOM     12  C   LIG    1       -3.648   8.085   1.505  0.00  0.00    +0.450 C 
ATOM     13  F   LIG    1       -4.966   7.938   1.057  0.00  0.00    -0.180 F 
ATOM     14  F   LIG    1       -2.861   8.611   0.475  0.00  0.00    -0.180 F 
ENDBRANCH  11  12
ENDBRANCH  10  11
ENDBRANCH   8  10
ENDBRANCH   3   5
BRANCH   1  15
ATOM     15  C   LIG    1        2.386   1.339   0.438  0.00  0.00    +0.290 C 
BRANCH  15  16
ATOM     16  C   LIG    1        3.559   2.210  -0.017  0.00  0.00    +0.220 C 
BRANCH  16  22
ATOM     17  C   LIG    1        6.050   1.925  -0.080  0.00  0.00    +0.140 A 
ATOM     18  C   LIG    1        7.180   1.133  -0.221  0.00  0.00    -0.080 A 
ATOM     19  C   LIG    1        7.047  -0.220  -0.469  0.00  0.00    +0.050 A 
ATOM     20  C   LIG    1        5.790  -0.785  -0.570  0.00  0.00    -0.020 A 
ATOM     21  C   LIG    1        4.662   0.001  -0.423  0.00  0.00    +0.060 A 
ATOM     22  C   LIG    1        4.789   1.354  -0.176  0.00  0.00    -0.150 A 
BRANCH  17  24
ATOM     23  C   LIG    1        7.506   3.776   0.244  0.00  0.00    +0.250 C 
ATOM     24  O   LIG    1        6.177   3.257   0.158  0.00  0.00    -0.310 OA
ENDBRANCH  17  24
ENDBRANCH  16  22
BRANCH  16  25
ATOM     25  N   LIG    1        3.231   2.841  -1.303  0.00  0.00    -0.530 NA
ATOM     26  C   LIG    1        3.120   1.835  -2.368  0.00  0.00    +0.190 C 
ATOM     27  C   LIG    1        4.219   3.870  -1.651  0.00  0.00    +0.190 C 
ENDBRANCH  16  25
ENDBRANCH  15  16
ENDBRANCH   1  15
TORSDOF 9
