REMARK  Name = ZINCqH0000051uo1.0
REMARK                            x       y       z     vdW  Elec       q    Type
REMARK                         _______ _______ _______ _____ _____    ______ ____
ROOT
ATOM      1  O   LIG    1        1.494  -0.646  -1.037  0.00  0.00    -0.500 OA
ATOM      2  C   LIG    1        2.471  -0.145  -0.517  0.00  0.00    +0.580 C 
ATOM      3  N   LIG    1        2.402   1.104  -0.015  0.00  0.00    -0.640 N 
ATOM      4  H   LIG    1        3.201   1.534   0.327  0.00  0.00    +0.420 HD
ENDROOT
BRANCH   2   5
ATOM      5  C   LIG    1        3.738  -0.907  -0.433  0.00  0.00    +0.060 A 
ATOM      6  C   LIG    1        3.810  -2.202  -0.946  0.00  0.00    +0.320 A 
ATOM      7  N   LIG    1        4.944  -2.876  -0.874  0.00  0.00    -0.390 NA
ATOM      8  C   LIG    1        6.005  -2.328  -0.308  0.00  0.00    +0.010 A 
ATOM      9  C   LIG    1        5.935  -1.042   0.209  0.00  0.00    +0.300 A 
ATOM     10  N   LIG    1        4.809  -0.361   0.136  0.00  0.00    -0.400 NA
BRANCH   8  11
ATOM     11  C   LIG    1        7.295  -3.103  -0.223  0.00  0.00    +0.530 C 
ATOM     12  F   LIG    1        8.375  -2.214  -0.253  0.00  0.00    -0.160 F 
ATOM     13  F   LIG    1        7.384  -3.981  -1.308  0.00  0.00    -0.160 F 
ATOM     14  F   LIG    1        7.324  -3.832   0.970  0.00  0.00    -0.160 F 
ENDBRANCH   8  11
ENDBRANCH   2   5
BRANCH   3  15
ATOM     15  C   LIG    1        1.177   1.782   0.011  0.00  0.00    +0.110 A 
ATOM     16  C   LIG    1       -0.012   1.067   0.025  0.00  0.00    +0.060 A 
ATOM     17  C   LIG    1       -1.221   1.738   0.044  0.00  0.00    +0.000 A 
ATOM     18  C   LIG    1       -1.248   3.120   0.061  0.00  0.00    +0.040 A 
ATOM     19  C   LIG    1       -0.067   3.839   0.047  0.00  0.00    -0.050 A 
ATOM     20  C   LIG    1        1.149   3.175   0.022  0.00  0.00    +0.110 A 
BRANCH  20  21
ATOM     21  O   LIG    1        2.311   3.880   0.007  0.00  0.00    -0.320 OA
BRANCH  21  22
ATOM     22  C   LIG    1        2.205   5.305   0.020  0.00  0.00    +0.320 C 
BRANCH  22  23
ATOM     23  C   LIG    1        3.585   5.912   0.001  0.00  0.00    +0.050 A 
ATOM     24  C   LIG    1        4.699   5.174  -0.023  0.00  0.00    -0.050 A 
ATOM     25  S   LIG    1        6.076   6.272  -0.038  0.00  0.00    +0.140 S 
ATOM     26  C   LIG    1        5.018   7.614  -0.010  0.00  0.00    +0.240 A 
ATOM     27  N   LIG    1        3.791   7.213   0.002  0.00  0.00    -0.470 NA
ENDBRANCH  22  23
ENDBRANCH  21  22
ENDBRANCH  20  21
ENDBRANCH   3  15
TORSDOF 6
