REMARK  Name = ZINCrH000004t3ba.0
REMARK                            x       y       z     vdW  Elec       q    Type
REMARK                         _______ _______ _______ _____ _____    ______ ____
ROOT
ATOM      1  C   LIG    1       -2.919   1.510   0.030  0.00  0.00    +0.310 C 
ATOM      2  C   LIG    1       -1.979   0.650   0.880  0.00  0.00    +0.020 C 
ATOM      3  C   LIG    1       -0.568   1.242   0.831  0.00  0.00    +0.010 C 
ATOM      4  C   LIG    1       -0.059   1.233  -0.612  0.00  0.00    +0.010 C 
ATOM      5  C   LIG    1       -0.978   2.100  -1.479  0.00  0.00    +0.260 C 
ATOM      6  N   LIG    1       -2.360   1.626  -1.324  0.00  0.00    -0.620 N 
ATOM      7  C   LIG    1       -3.101   1.305  -2.402  0.00  0.00    +0.710 C 
ATOM      8  N   LIG    1       -2.613   1.512  -3.642  0.00  0.00    -0.740 N 
ATOM      9  H   LIG    1       -1.703   1.827  -3.758  0.00  0.00    +0.400 HD
ATOM     10  O   LIG    1       -4.210   0.827  -2.258  0.00  0.00    -0.560 OA
ENDROOT
BRANCH   8  11
ATOM     11  C   LIG    1       -3.457   1.264  -4.813  0.00  0.00    +0.310 C 
ATOM     12  C   LIG    1       -4.388   2.455  -5.035  0.00  0.00    +0.020 C 
ATOM     13  C   LIG    1       -3.688   3.762  -4.693  0.00  0.00    +0.000 C 
ATOM     14  C   LIG    1       -2.562   4.109  -5.644  0.00  0.00    +0.230 C 
ATOM     15  O   LIG    1       -1.501   3.153  -5.549  0.00  0.00    -0.330 OA
ATOM     16  C   LIG    1       -1.633   2.048  -6.332  0.00  0.00    +0.130 A 
ATOM     17  C   LIG    1       -0.807   1.885  -7.437  0.00  0.00    -0.020 A 
ATOM     18  C   LIG    1       -0.957   0.762  -8.245  0.00  0.00    +0.120 A 
ATOM     19  C   LIG    1       -1.929  -0.181  -7.956  0.00  0.00    -0.020 A 
ATOM     20  C   LIG    1       -2.744  -0.018  -6.850  0.00  0.00    +0.080 A 
ATOM     21  F   LIG    1       -0.156   0.596  -9.320  0.00  0.00    -0.130 F 
ATOM     22  C   LIG    1       -2.584   1.088  -6.041  0.00  0.00    -0.140 A 
ENDBRANCH   8  11
BRANCH   1  26
ATOM     23  C   LIG    1       -7.868   0.751   0.267  0.00  0.00    +0.340 C 
ATOM     24  N   LIG    1       -6.433   0.535   0.067  0.00  0.00    -0.380 N 
ATOM     25  C   LIG    1       -5.459   1.451   0.251  0.00  0.00    +0.210 A 
ATOM     26  C   LIG    1       -4.276   0.859  -0.038  0.00  0.00    -0.200 A 
ATOM     27  C   LIG    1       -4.537  -0.462  -0.416  0.00  0.00    +0.280 A 
ATOM     28  N   LIG    1       -5.829  -0.659  -0.348  0.00  0.00    -0.300 NA
ENDBRANCH   1  26
TORSDOF 2
