REMARK  Name = ZINCrH000004nWFY.0
REMARK                            x       y       z     vdW  Elec       q    Type
REMARK                         _______ _______ _______ _____ _____    ______ ____
ROOT
ATOM      1  C   LIG    1       -4.003   2.198  -0.095  0.00  0.00    +0.520 C 
ATOM      2  N   LIG    1       -2.749   1.721  -0.214  0.00  0.00    -0.610 N 
ATOM      3  C   LIG    1       -1.903   1.532   0.973  0.00  0.00    +0.260 C 
ATOM      4  C   LIG    1       -0.579   2.270   0.757  0.00  0.00    +0.010 C 
ATOM      5  C   LIG    1        0.059   1.793  -0.550  0.00  0.00    +0.050 C 
ATOM      6  C   LIG    1       -0.871   2.118  -1.721  0.00  0.00    -0.030 C 
ATOM      7  C   LIG    1       -2.200   1.379  -1.533  0.00  0.00    +0.300 C 
ATOM      8  O   LIG    1       -4.691   2.349  -1.082  0.00  0.00    -0.510 OA
ENDROOT
BRANCH   6   9
ATOM      9  C   LIG    1       -0.229   1.678  -3.011  0.00  0.00    -0.080 A 
ATOM     10  C   LIG    1       -0.854   0.738  -3.809  0.00  0.00    +0.000 A 
ATOM     11  C   LIG    1       -0.267   0.337  -4.995  0.00  0.00    +0.000 A 
ATOM     12  C   LIG    1        0.950   0.870  -5.378  0.00  0.00    +0.000 A 
ATOM     13  C   LIG    1        1.578   1.806  -4.578  0.00  0.00    +0.000 A 
ATOM     14  C   LIG    1        0.988   2.210  -3.394  0.00  0.00    +0.050 A 
ENDBRANCH   6   9
BRANCH   1  15
ATOM     15  C   LIG    1       -4.552   2.544   1.266  0.00  0.00    +0.170 C 
ATOM     16  C   LIG    1       -4.662   1.272   2.110  0.00  0.00    +0.060 C 
BRANCH  15  17
ATOM     17  O   LIG    1       -5.846   3.133   1.122  0.00  0.00    -0.280 OA
BRANCH  17  21
ATOM     18  C   LIG    1       -7.112   5.636   4.152  0.00  0.00    -0.120 A 
ATOM     19  C   LIG    1       -5.917   4.941   4.279  0.00  0.00    +0.070 A 
ATOM     20  C   LIG    1       -5.494   4.104   3.265  0.00  0.00    -0.060 A 
ATOM     21  C   LIG    1       -6.263   3.957   2.120  0.00  0.00    +0.130 A 
ATOM     22  C   LIG    1       -7.455   4.655   1.990  0.00  0.00    +0.010 A 
ATOM     23  C   LIG    1       -7.882   5.489   3.005  0.00  0.00    +0.040 A 
BRANCH  18  25
ATOM     24  C   LIG    1       -9.221   7.356   4.807  0.00  0.00    +0.130 C 
ATOM     25  S   LIG    1       -7.652   6.706   5.444  0.00  0.00    -0.120 S 
ENDBRANCH  18  25
ENDBRANCH  17  21
ENDBRANCH  15  17
ENDBRANCH   1  15
BRANCH   6  26
ATOM     26  C   LIG    1       -1.128   3.626  -1.766  0.00  0.00    +0.190 C 
BRANCH  26  27
ATOM     27  O   LIG    1        0.112   4.315  -1.938  0.00  0.00    -0.560 OA
ATOM     28  H   LIG    1        0.026   5.278  -1.975  0.00  0.00    +0.380 HD
ENDBRANCH  26  27
ENDBRANCH   6  26
TORSDOF 7
