REMARK  Name = ZINCrD000000AllW.0
REMARK                            x       y       z     vdW  Elec       q    Type
REMARK                         _______ _______ _______ _____ _____    ______ ____
ROOT
ATOM      1  N   LIG    1       -0.694   1.573  -1.169  0.00  0.00    -0.520 NA
ATOM      2  C   LIG    1        0.191   1.307  -0.027  0.00  0.00    +0.180 C 
ATOM      3  C   LIG    1       -0.483   1.783   1.262  0.00  0.00    +0.060 C 
ATOM      4  C   LIG    1       -0.775   3.282   1.157  0.00  0.00    +0.090 C 
ATOM      5  C   LIG    1       -1.657   3.537  -0.068  0.00  0.00    +0.050 C 
ATOM      6  C   LIG    1       -0.950   3.011  -1.319  0.00  0.00    +0.190 C 
ENDROOT
BRANCH   4   7
ATOM      7  C   LIG    1       -1.492   3.744   2.399  0.00  0.00    +0.150 A 
ATOM      8  N   LIG    1       -2.642   3.302   2.838  0.00  0.00    -0.240 NA
ATOM      9  N   LIG    1       -2.968   3.909   3.925  0.00  0.00    -0.290 NA
ATOM     10  C   LIG    1       -2.027   4.784   4.241  0.00  0.00    +0.190 A 
ATOM     11  C   LIG    1       -1.870   5.696   5.302  0.00  0.00    +0.080 A 
ATOM     12  C   LIG    1       -0.751   6.468   5.354  0.00  0.00    +0.060 A 
ATOM     13  C   LIG    1        0.221   6.355   4.346  0.00  0.00    +0.030 A 
ATOM     14  C   LIG    1        0.055   5.479   3.333  0.00  0.00    +0.230 A 
ATOM     15  N   LIG    1       -1.058   4.693   3.272  0.00  0.00    -0.390 N 
ENDBRANCH   4   7
BRANCH   1  16
ATOM     16  C   LIG    1       -0.141   1.005  -2.406  0.00  0.00    +0.220 C 
BRANCH  16  18
ATOM     17  O   LIG    1       -0.667  -1.048  -1.367  0.00  0.00    -0.490 OA
ATOM     18  C   LIG    1       -0.142  -0.499  -2.313  0.00  0.00    +0.510 C 
ATOM     19  N   LIG    1        0.441  -1.235  -3.280  0.00  0.00    -0.680 N 
ATOM     20  H   LIG    1        0.918  -0.796  -4.002  0.00  0.00    +0.410 HD
BRANCH  19  21
ATOM     21  C   LIG    1        0.357  -2.632  -3.244  0.00  0.00    +0.150 A 
ATOM     22  C   LIG    1        0.382  -3.298  -2.026  0.00  0.00    +0.060 A 
ATOM     23  C   LIG    1        0.295  -4.676  -1.991  0.00  0.00    +0.030 A 
ATOM     24  C   LIG    1        0.192  -5.395  -3.170  0.00  0.00    +0.100 A 
ATOM     25  C   LIG    1        0.172  -4.732  -4.387  0.00  0.00    -0.060 A 
ATOM     26 CL   LIG    1        0.044  -5.636  -5.864  0.00  0.00    -0.040 Cl
ATOM     27  F   LIG    1        0.112  -6.743  -3.134  0.00  0.00    -0.130 F 
ATOM     28  C   LIG    1        0.254  -3.353  -4.426  0.00  0.00    +0.040 A 
ENDBRANCH  19  21
ENDBRANCH  16  18
ENDBRANCH   1  16
TORSDOF 4
