REMARK  Name = ZINCb80000001O5V.0
REMARK                            x       y       z     vdW  Elec       q    Type
REMARK                         _______ _______ _______ _____ _____    ______ ____
ROOT
ATOM      1  C   LIG    1        0.002  -0.004   0.002  0.00  0.00    +0.220 C 
ATOM      2  C   LIG    1       -1.293  -0.537   0.622  0.00  0.00    +0.010 C 
ATOM      3  C   LIG    1       -1.298  -2.066   0.537  0.00  0.00    +0.230 C 
ATOM      4  O   LIG    1       -1.164  -2.467  -0.828  0.00  0.00    -0.370 OA
ATOM      5  C   LIG    1        0.051  -2.037  -1.445  0.00  0.00    +0.220 C 
ATOM      6  C   LIG    1        0.110  -0.507  -1.441  0.00  0.00    +0.140 C 
ATOM      7  F   LIG    1        1.324  -0.085  -1.994  0.00  0.00    -0.190 F 
ENDROOT
BRANCH   1  10
ATOM      8  C   LIG    1        1.120   3.657   0.011  0.00  0.00    +0.100 C 
ATOM      9  C   LIG    1        1.140   2.151   0.003  0.00  0.00    +0.510 C 
ATOM     10  N   LIG    1       -0.018   1.461   0.010  0.00  0.00    -0.730 N 
ATOM     11  H   LIG    1       -0.864   1.934   0.017  0.00  0.00    +0.400 HD
ATOM     12  O   LIG    1        2.199   1.558  -0.011  0.00  0.00    -0.530 OA
ENDBRANCH   1  10
TORSDOF 1
