REMARK  Name = ZINCpk00000y6vrY.2
REMARK                            x       y       z     vdW  Elec       q    Type
REMARK                         _______ _______ _______ _____ _____    ______ ____
ROOT
ATOM      1  C   LIG    1        5.230   1.667  -1.424  0.00  0.00    +0.280 C 
ENDROOT
BRANCH   1   2
ATOM      2  C   LIG    1        4.336   0.426  -1.484  0.00  0.00    +0.110 C 
ATOM      3  C   LIG    1        4.378  -0.203  -2.893  0.00  0.00    +0.050 C 
ATOM      4  C   LIG    1        2.939  -0.695  -3.155  0.00  0.00    +0.170 C 
ATOM      5  C   LIG    1        2.150  -0.322  -1.882  0.00  0.00    +0.140 C 
ATOM      6  N   LIG    1        2.913   0.803  -1.284  0.00  0.00    -0.490 NA
BRANCH   4   7
ATOM      7  O   LIG    1        2.388  -0.034  -4.295  0.00  0.00    -0.550 OA
ATOM      8  H   LIG    1        1.484  -0.304  -4.508  0.00  0.00    +0.380 HD
ENDBRANCH   4   7
BRANCH   6   9
ATOM      9  C   LIG    1        2.603   0.950   0.144  0.00  0.00    +0.210 C 
BRANCH   9  10
ATOM     10  C   LIG    1        1.300   1.690   0.302  0.00  0.00    -0.080 A 
ATOM     11  C   LIG    1        0.109   0.990   0.352  0.00  0.00    +0.010 A 
ATOM     12  C   LIG    1       -1.087   1.669   0.491  0.00  0.00    +0.000 A 
ATOM     13  C   LIG    1       -1.091   3.048   0.590  0.00  0.00    +0.000 A 
ATOM     14  C   LIG    1        0.099   3.748   0.540  0.00  0.00    +0.000 A 
ATOM     15  C   LIG    1        1.295   3.069   0.396  0.00  0.00    +0.020 A 
ENDBRANCH   9  10
ENDBRANCH   6   9
ENDBRANCH   1   2
BRANCH   1  18
ATOM     16  O   LIG    1        7.326   3.345  -1.187  0.00  0.00    -0.520 OA
ATOM     17  C   LIG    1        7.612   2.180  -1.364  0.00  0.00    +0.490 C 
ATOM     18  N   LIG    1        6.636   1.259  -1.495  0.00  0.00    -0.720 N 
ATOM     19  H   LIG    1        6.864   0.327  -1.637  0.00  0.00    +0.400 HD
BRANCH  17  20
ATOM     20  C   LIG    1        9.057   1.761  -1.437  0.00  0.00    +0.270 C 
BRANCH  20  21
ATOM     21  C   LIG    1        9.379   0.860  -0.272  0.00  0.00    -0.120 A 
ATOM     22  C   LIG    1        9.641   1.405   0.971  0.00  0.00    +0.020 A 
ATOM     23  C   LIG    1        9.931   0.578   2.040  0.00  0.00    +0.020 A 
ATOM     24  C   LIG    1        9.969  -0.792   1.864  0.00  0.00    +0.020 A 
ATOM     25  C   LIG    1        9.712  -1.337   0.620  0.00  0.00    +0.010 A 
ATOM     26  C   LIG    1        9.417  -0.511  -0.448  0.00  0.00    +0.020 A 
ENDBRANCH  20  21
BRANCH  20  27
ATOM     27  O   LIG    1        9.892   2.919  -1.388  0.00  0.00    -0.530 OA
ATOM     28  H   LIG    1        9.788   3.445  -0.583  0.00  0.00    +0.380 HD
ENDBRANCH  20  27
ENDBRANCH  17  20
ENDBRANCH   1  18
TORSDOF 8
