REMARK  Name = ZINCnE000001TBEP.0
REMARK                            x       y       z     vdW  Elec       q    Type
REMARK                         _______ _______ _______ _____ _____    ______ ____
ROOT
ATOM      1  C   LIG    1        0.537   4.860  -0.706  0.00  0.00    +0.070 C 
ENDROOT
BRANCH   1   8
ATOM      2  C   LIG    1       -0.054   1.221  -1.766  0.00  0.00    +0.130 C 
ATOM      3  C   LIG    1       -0.718   0.289  -0.747  0.00  0.00    +0.020 C 
ATOM      4  C   LIG    1       -2.191   0.675  -0.592  0.00  0.00    +0.000 C 
ATOM      5  C   LIG    1       -2.292   2.111  -0.072  0.00  0.00    +0.000 C 
ATOM      6  C   LIG    1       -1.646   3.063  -1.083  0.00  0.00    +0.240 C 
ATOM      7  N   LIG    1       -0.272   2.613  -1.351  0.00  0.00    -0.600 N 
ATOM      8  C   LIG    1        0.767   3.460  -1.214  0.00  0.00    +0.490 C 
ATOM      9  O   LIG    1        1.888   3.096  -1.500  0.00  0.00    -0.450 OA
BRANCH   2  11
ATOM     10  O   LIG    1        1.916   0.459  -2.830  0.00  0.00    -0.710 OA
ATOM     11  C   LIG    1        1.425   0.936  -1.822  0.00  0.00    +0.520 C 
ATOM     12  O   LIG    1        2.131   1.189  -0.861  0.00  0.00    -0.660 OA
ENDBRANCH   2  11
ENDBRANCH   1   8
BRANCH   1  13
ATOM     13  C   LIG    1        1.861   5.625  -0.702  0.00  0.00    -0.090 C 
ATOM     14  C   LIG    1        1.806   7.134  -0.948  0.00  0.00    +0.030 C 
ATOM     15  C   LIG    1        2.349   6.201  -2.033  0.00  0.00    +0.050 C 
BRANCH  13  16
ATOM     16  C   LIG    1        2.920   5.107   0.274  0.00  0.00    +0.130 C 
BRANCH  16  17
ATOM     17  S   LIG    1        2.240   5.099   1.956  0.00  0.00    -0.120 S 
BRANCH  17  18
ATOM     18  C   LIG    1        3.579   4.484   2.922  0.00  0.00    -0.070 A 
ATOM     19  C   LIG    1        4.779   4.143   2.311  0.00  0.00    +0.000 A 
ATOM     20  C   LIG    1        5.828   3.667   3.072  0.00  0.00    +0.020 A 
ATOM     21  C   LIG    1        5.681   3.517   4.439  0.00  0.00    -0.010 A 
ATOM     22  C   LIG    1        4.485   3.849   5.050  0.00  0.00    +0.010 A 
ATOM     23  C   LIG    1        3.434   4.332   4.296  0.00  0.00    +0.010 A 
ENDBRANCH  17  18
ENDBRANCH  16  17
ENDBRANCH  13  16
ENDBRANCH   1  13
TORSDOF 6
