REMARK  Name = ZINCqH0000003QNc.0
REMARK                            x       y       z     vdW  Elec       q    Type
REMARK                         _______ _______ _______ _____ _____    ______ ____
ROOT
ATOM      1  C   LIG    1        2.853   5.946  -3.431  0.00  0.00    +0.060 C 
ENDROOT
BRANCH   1   2
ATOM      2  C   LIG    1        2.436   5.680  -2.007  0.00  0.00    +0.520 C 
ATOM      3  N   LIG    1        2.851   4.560  -1.382  0.00  0.00    -0.620 N 
ATOM      4  C   LIG    1        3.707   3.602  -2.086  0.00  0.00    +0.290 C 
ATOM      5  O   LIG    1        1.728   6.473  -1.425  0.00  0.00    -0.530 OA
BRANCH   3   6
ATOM      6  C   LIG    1        2.446   4.301   0.002  0.00  0.00    +0.340 C 
BRANCH   6   7
ATOM      7  C   LIG    1        1.154   3.525   0.010  0.00  0.00    -0.110 A 
ATOM      8  C   LIG    1       -0.055   4.197   0.026  0.00  0.00    +0.080 A 
ATOM      9  C   LIG    1       -1.246   3.492   0.034  0.00  0.00    +0.020 A 
ATOM     10  C   LIG    1       -1.234   2.113   0.019  0.00  0.00    +0.060 A 
ATOM     11  C   LIG    1       -0.017   1.428   0.010  0.00  0.00    -0.030 A 
ATOM     12  C   LIG    1        1.180   2.145   0.002  0.00  0.00    +0.070 A 
BRANCH  11  13
ATOM     13  C   LIG    1        0.002  -0.004   0.002  0.00  0.00    +0.250 C 
ATOM     14  N   LIG    1        0.018  -1.140  -0.004  0.00  0.00    -0.410 NA
ENDBRANCH  11  13
ENDBRANCH   6   7
ENDBRANCH   3   6
ENDBRANCH   1   2
BRANCH   1  15
ATOM     15  C   LIG    1        2.251   7.273  -3.899  0.00  0.00    +0.060 C 
BRANCH  15  16
ATOM     16  C   LIG    1        2.675   7.543  -5.344  0.00  0.00    +0.180 C 
BRANCH  16  17
ATOM     17  O   LIG    1        2.112   8.782  -5.781  0.00  0.00    -0.300 OA
BRANCH  17  23
ATOM     18  C   LIG    1        1.875  10.367  -7.546  0.00  0.00    +0.100 A 
ATOM     19  C   LIG    1        2.169  10.764  -8.840  0.00  0.00    -0.040 A 
ATOM     20  C   LIG    1        2.967   9.969  -9.643  0.00  0.00    +0.010 A 
ATOM     21  C   LIG    1        3.478   8.781  -9.154  0.00  0.00    +0.010 A 
ATOM     22  C   LIG    1        3.193   8.382  -7.862  0.00  0.00    -0.040 A 
ATOM     23  C   LIG    1        2.394   9.173  -7.053  0.00  0.00    +0.100 A 
BRANCH  18  24
ATOM     24  O   LIG    1        1.085  11.144  -6.758  0.00  0.00    -0.300 OA
BRANCH  24  26
ATOM     25  C   LIG    1       -0.274  13.090  -6.302  0.00  0.00    +0.070 C 
ATOM     26  C   LIG    1        0.587  12.355  -7.331  0.00  0.00    +0.170 C 
ENDBRANCH  24  26
ENDBRANCH  18  24
ENDBRANCH  17  23
ENDBRANCH  16  17
ENDBRANCH  15  16
ENDBRANCH   1  15
TORSDOF 10
