REMARK  Name = ZINCqH0000033EWq.0
REMARK                            x       y       z     vdW  Elec       q    Type
REMARK                         _______ _______ _______ _____ _____    ______ ____
ROOT
ATOM      1  C   LIG    1        6.320   3.880  -3.983  0.00  0.00    +0.360 C 
ENDROOT
BRANCH   1   3
ATOM      2  C   LIG    1        8.681   4.143  -4.928  0.00  0.00    +0.310 A 
ATOM      3  C   LIG    1        7.598   4.628  -4.263  0.00  0.00    -0.280 A 
ATOM      4  C   LIG    1        7.880   5.946  -3.890  0.00  0.00    +0.110 A 
ATOM      5  N   LIG    1        9.085   6.241  -4.304  0.00  0.00    -0.280 NA
ATOM      6  C   LIG    1        6.955   6.867  -3.137  0.00  0.00    +0.160 C 
ATOM      7  N   LIG    1        9.610   5.123  -4.965  0.00  0.00    -0.400 N 
BRANCH   2   8
ATOM      8  O   LIG    1        8.805   2.900  -5.458  0.00  0.00    -0.290 OA
BRANCH   8  10
ATOM      9  C   LIG    1        9.874   1.248  -6.862  0.00  0.00    +0.070 C 
ATOM     10  C   LIG    1        9.976   2.640  -6.235  0.00  0.00    +0.180 C 
ENDBRANCH   8  10
ENDBRANCH   2   8
BRANCH   7  11
ATOM     11  C   LIG    1       10.934   5.033  -5.586  0.00  0.00    +0.300 C 
BRANCH  11  12
ATOM     12  C   LIG    1       11.702   6.333  -5.342  0.00  0.00    +0.000 C 
ATOM     13  C   LIG    1       11.014   7.479  -6.086  0.00  0.00    +0.040 C 
ATOM     14  C   LIG    1       13.137   6.182  -5.852  0.00  0.00    +0.040 C 
ENDBRANCH  11  12
ENDBRANCH   7  11
ENDBRANCH   1   3
BRANCH   1  15
ATOM     15  N   LIG    1        6.434   3.181  -2.701  0.00  0.00    -0.710 N 
ATOM     16  H   LIG    1        7.250   3.251  -2.181  0.00  0.00    +0.410 HD
BRANCH  15  17
ATOM     17  C   LIG    1        5.371   2.419  -2.228  0.00  0.00    +0.290 A 
ATOM     18  N   LIG    1        5.327   1.743  -1.109  0.00  0.00    -0.420 NA
ATOM     19  O   LIG    1        4.265   1.179  -0.975  0.00  0.00    +0.080 OA
ATOM     20  C   LIG    1        3.446   1.410  -2.010  0.00  0.00    -0.000 A 
ATOM     21  C   LIG    1        4.119   2.212  -2.865  0.00  0.00    -0.100 A 
BRANCH  20  22
ATOM     22  C   LIG    1        2.048   0.874  -2.190  0.00  0.00    +0.090 C 
ATOM     23  C   LIG    1        1.168   1.340  -1.026  0.00  0.00    +0.010 C 
ATOM     24  C   LIG    1       -0.227   0.727  -1.175  0.00  0.00    +0.210 C 
ATOM     25  O   LIG    1       -0.118  -0.698  -1.215  0.00  0.00    -0.380 OA
ATOM     26  C   LIG    1        0.655  -1.193  -2.310  0.00  0.00    +0.210 C 
ATOM     27  C   LIG    1        2.085  -0.657  -2.207  0.00  0.00    +0.010 C 
ENDBRANCH  20  22
ENDBRANCH  15  17
ENDBRANCH   1  15
TORSDOF 8
