REMARK  Name = ZINCrD00000F5Lvr.0
REMARK                            x       y       z     vdW  Elec       q    Type
REMARK                         _______ _______ _______ _____ _____    ______ ____
ROOT
ATOM      1  C   LIG    1        2.034   3.170   0.112  0.00  0.00    +0.170 C 
ATOM      2  C   LIG    1        1.502   1.939  -0.130  0.00  0.00    -0.100 C 
ATOM      3  C   LIG    1        2.206   0.720  -0.545  0.00  0.00    +0.560 C 
ATOM      4  N   LIG    1        1.337  -0.289  -0.681  0.00  0.00    -0.520 N 
ATOM      5  C   LIG    1        0.069   0.054  -0.410  0.00  0.00    +0.540 C 
ATOM      6  O   LIG    1       -0.893  -0.681  -0.462  0.00  0.00    -0.420 OA
ATOM      7  O   LIG    1        3.405   0.638  -0.739  0.00  0.00    -0.420 OA
ATOM      8  C   LIG    1        0.046   1.519  -0.029  0.00  0.00    +0.140 C 
ATOM      9 CL   LIG    1       -0.558   1.726   1.657  0.00  0.00    -0.080 Cl
ENDROOT
BRANCH   1  19
ATOM     10  C   LIG    1        3.579   4.939  -1.897  0.00  0.00    +0.340 C 
ATOM     11  N   LIG    1        4.171   4.148  -0.816  0.00  0.00    -0.470 N 
ATOM     12  C   LIG    1        5.511   4.055  -0.507  0.00  0.00    +0.070 A 
ATOM     13  C   LIG    1        6.665   4.612  -1.043  0.00  0.00    +0.020 A 
ATOM     14  C   LIG    1        7.890   4.311  -0.488  0.00  0.00    +0.040 A 
ATOM     15  C   LIG    1        7.979   3.455   0.602  0.00  0.00    +0.000 A 
ATOM     16  C   LIG    1        6.858   2.898   1.145  0.00  0.00    +0.080 A 
ATOM     17  C   LIG    1        5.601   3.188   0.599  0.00  0.00    +0.050 A 
ATOM     18  N   LIG    1        4.348   2.806   0.910  0.00  0.00    -0.430 NA
ATOM     19  C   LIG    1        3.496   3.360   0.081  0.00  0.00    +0.280 A 
ENDBRANCH   1  19
BRANCH   4  20
ATOM     20  C   LIG    1        1.716  -1.581  -1.068  0.00  0.00    +0.100 A 
ATOM     21  C   LIG    1        1.620  -2.633  -0.167  0.00  0.00    +0.040 A 
ATOM     22  C   LIG    1        1.989  -3.907  -0.554  0.00  0.00    +0.030 A 
ATOM     23  C   LIG    1        2.464  -4.133  -1.833  0.00  0.00    +0.030 A 
ATOM     24  C   LIG    1        2.566  -3.085  -2.730  0.00  0.00    +0.020 A 
ATOM     25  C   LIG    1        2.193  -1.811  -2.352  0.00  0.00    +0.030 A 
ENDBRANCH   4  20
BRANCH   1  26
ATOM     26  C   LIG    1        1.173   4.279   0.395  0.00  0.00    +0.220 C 
ATOM     27  N   LIG    1        0.491   5.159   0.620  0.00  0.00    -0.330 NA
ENDBRANCH   1  26
TORSDOF 3
