REMARK  Name = ZINCpk00001AZiD9.0
REMARK                            x       y       z     vdW  Elec       q    Type
REMARK                         _______ _______ _______ _____ _____    ______ ____
ROOT
ATOM      1  C   LIG    1       -4.805   2.147   0.796  0.00  0.00    +0.530 C 
ATOM      2  N   LIG    1       -3.603   2.090   0.189  0.00  0.00    -0.620 N 
ATOM      3  C   LIG    1       -3.292   2.619  -1.147  0.00  0.00    +0.250 C 
ATOM      4  C   LIG    1       -1.796   2.350  -1.410  0.00  0.00    +0.180 C 
ATOM      5  C   LIG    1       -1.215   2.191   0.020  0.00  0.00    +0.280 C 
ATOM      6  C   LIG    1       -2.383   1.486   0.754  0.00  0.00    +0.290 C 
ATOM      7  O   LIG    1       -4.947   1.675   1.904  0.00  0.00    -0.530 OA
ENDROOT
BRANCH   5   8
ATOM      8  N   LIG    1       -0.016   1.349   0.009  0.00  0.00    -0.280 N 
ATOM      9  C   LIG    1        0.002  -0.004   0.002  0.00  0.00    +0.130 A 
ATOM     10  C   LIG    1        1.307  -0.363  -0.012  0.00  0.00    +0.150 A 
ATOM     11  N   LIG    1        2.014   0.772  -0.013  0.00  0.00    -0.270 NA
ATOM     12  N   LIG    1        1.200   1.769   0.000  0.00  0.00    -0.070 NA
ENDBRANCH   5   8
BRANCH   4  13
ATOM     13  O   LIG    1       -1.192   3.458  -2.080  0.00  0.00    -0.540 OA
ATOM     14  H   LIG    1       -1.521   3.601  -2.979  0.00  0.00    +0.390 HD
ENDBRANCH   4  13
BRANCH   1  15
ATOM     15  C   LIG    1       -5.972   2.797   0.098  0.00  0.00    +0.070 C 
BRANCH  15  16
ATOM     16  C   LIG    1       -7.207   2.729   0.998  0.00  0.00    +0.130 C 
BRANCH  16  23
ATOM     17  C   LIG    1      -12.202   4.470  -2.370  0.00  0.00    +0.090 C 
ATOM     18  C   LIG    1      -11.201   3.422  -1.954  0.00  0.00    -0.100 A 
ATOM     19  C   LIG    1      -10.204   3.735  -1.037  0.00  0.00    +0.100 A 
ATOM     20  N   LIG    1       -9.873   4.881  -0.349  0.00  0.00    -0.590 N 
ATOM     21  H   LIG    1      -10.345   5.726  -0.415  0.00  0.00    +0.420 HD
ATOM     22  C   LIG    1       -8.784   4.649   0.447  0.00  0.00    +0.230 A 
ATOM     23  C   LIG    1       -8.374   3.379   0.301  0.00  0.00    -0.170 A 
ATOM     24  C   LIG    1       -9.279   2.744  -0.660  0.00  0.00    -0.100 A 
ATOM     25  C   LIG    1       -9.369   1.463  -1.207  0.00  0.00    +0.040 A 
ATOM     26  C   LIG    1      -10.358   1.177  -2.107  0.00  0.00    -0.020 A 
ATOM     27  C   LIG    1      -11.273   2.151  -2.481  0.00  0.00    +0.020 A 
ENDBRANCH  16  23
ENDBRANCH  15  16
ENDBRANCH   1  15
TORSDOF 5
