REMARK  Name = ZINCkj000005ktCB.2
REMARK                            x       y       z     vdW  Elec       q    Type
REMARK                         _______ _______ _______ _____ _____    ______ ____
ROOT
ATOM      1  C   LIG    1       -0.019   1.526   0.010  0.00  0.00    +0.170 C 
ENDROOT
BRANCH   1   7
ATOM      2  C   LIG    1        3.966   4.764  -2.353  0.00  0.00    +0.090 C 
ATOM      3  C   LIG    1        4.229   3.929  -1.126  0.00  0.00    -0.080 A 
ATOM      4  C   LIG    1        3.217   3.150  -0.583  0.00  0.00    +0.050 A 
ATOM      5  N   LIG    1        1.898   2.918  -0.917  0.00  0.00    -0.590 N 
ATOM      6  H   LIG    1        1.417   3.305  -1.665  0.00  0.00    +0.420 HD
ATOM      7  C   LIG    1        1.395   2.047  -0.000  0.00  0.00    +0.280 A 
ATOM      8  N   LIG    1        2.314   1.726   0.863  0.00  0.00    -0.490 NA
ATOM      9  C   LIG    1        3.469   2.374   0.561  0.00  0.00    +0.050 A 
ATOM     10  C   LIG    1        4.741   2.396   1.140  0.00  0.00    +0.060 A 
ATOM     11  C   LIG    1        5.725   3.169   0.591  0.00  0.00    +0.010 A 
ATOM     12  C   LIG    1        5.476   3.935  -0.538  0.00  0.00    +0.030 A 
ENDBRANCH   1   7
BRANCH   1  13
ATOM     13  C   LIG    1        0.002  -0.004   0.002  0.00  0.00    +0.090 C 
BRANCH  13  14
ATOM     14  C   LIG    1       -1.412  -0.526   0.013  0.00  0.00    +0.540 C 
ATOM     15  N   LIG    1       -1.640  -1.854   0.008  0.00  0.00    -0.630 N 
ATOM     16  C   LIG    1       -0.608  -2.901  -0.014  0.00  0.00    +0.280 C 
ATOM     17  C   LIG    1       -1.335  -4.261  -0.037  0.00  0.00    +0.070 C 
ATOM     18  C   LIG    1       -2.732  -3.897  -0.606  0.00  0.00    +0.170 C 
ATOM     19  C   LIG    1       -2.966  -2.498   0.017  0.00  0.00    +0.290 C 
ATOM     20  O   LIG    1       -2.344   0.250   0.026  0.00  0.00    -0.520 OA
BRANCH  18  21
ATOM     21  N   LIG    1       -3.751  -4.853  -0.152  0.00  0.00    -0.630 N 
ATOM     22  H   LIG    1       -3.711  -4.935   0.853  0.00  0.00    +0.440 HD
ATOM     23  H   LIG    1       -3.577  -5.754  -0.571  0.00  0.00    +0.440 HD
ATOM     24  H   LIG    1       -4.665  -4.525  -0.427  0.00  0.00    +0.440 HD
ENDBRANCH  18  21
ENDBRANCH  13  14
ENDBRANCH   1  13
TORSDOF 4
