REMARK  Name = ZINCkj000005ktCB.0
REMARK                            x       y       z     vdW  Elec       q    Type
REMARK                         _______ _______ _______ _____ _____    ______ ____
ROOT
ATOM      1  C   LIG    1       -0.019   1.526   0.010  0.00  0.00    +0.180 C 
ENDROOT
BRANCH   1   6
ATOM      2  C   LIG    1        5.026   1.570   2.368  0.00  0.00    +0.100 C 
ATOM      3  C   LIG    1        4.740   2.397   1.141  0.00  0.00    -0.030 A 
ATOM      4  C   LIG    1        3.469   2.374   0.562  0.00  0.00    +0.040 A 
ATOM      5  N   LIG    1        2.313   1.731   0.866  0.00  0.00    -0.480 NA
ATOM      6  C   LIG    1        1.395   2.047  -0.000  0.00  0.00    +0.270 A 
ATOM      7  N   LIG    1        1.896   2.922  -0.914  0.00  0.00    -0.600 N 
ATOM      8  H   LIG    1        1.415   3.313  -1.660  0.00  0.00    +0.420 HD
ATOM      9  C   LIG    1        3.217   3.150  -0.583  0.00  0.00    +0.050 A 
ATOM     10  C   LIG    1        4.229   3.930  -1.125  0.00  0.00    +0.000 A 
ATOM     11  C   LIG    1        5.476   3.937  -0.537  0.00  0.00    +0.040 A 
ATOM     12  C   LIG    1        5.724   3.171   0.593  0.00  0.00    +0.000 A 
ENDBRANCH   1   6
BRANCH   1  13
ATOM     13  C   LIG    1        0.002  -0.004   0.002  0.00  0.00    +0.090 C 
BRANCH  13  14
ATOM     14  C   LIG    1       -1.412  -0.526   0.013  0.00  0.00    +0.540 C 
ATOM     15  N   LIG    1       -1.640  -1.854   0.008  0.00  0.00    -0.630 N 
ATOM     16  C   LIG    1       -0.608  -2.901  -0.014  0.00  0.00    +0.280 C 
ATOM     17  C   LIG    1       -1.335  -4.261  -0.037  0.00  0.00    +0.070 C 
ATOM     18  C   LIG    1       -2.732  -3.897  -0.606  0.00  0.00    +0.170 C 
ATOM     19  C   LIG    1       -2.966  -2.498   0.017  0.00  0.00    +0.290 C 
ATOM     20  O   LIG    1       -2.344   0.250   0.026  0.00  0.00    -0.520 OA
BRANCH  18  21
ATOM     21  N   LIG    1       -3.751  -4.853  -0.152  0.00  0.00    -0.630 N 
ATOM     22  H   LIG    1       -3.711  -4.935   0.853  0.00  0.00    +0.440 HD
ATOM     23  H   LIG    1       -3.577  -5.754  -0.571  0.00  0.00    +0.440 HD
ATOM     24  H   LIG    1       -4.665  -4.525  -0.427  0.00  0.00    +0.440 HD
ENDBRANCH  18  21
ENDBRANCH  13  14
ENDBRANCH   1  13
TORSDOF 4
