REMARK  Name = ZINCpk00000RJ8h0.0
REMARK                            x       y       z     vdW  Elec       q    Type
REMARK                         _______ _______ _______ _____ _____    ______ ____
ROOT
ATOM      1  N   LIG    1       -3.339   2.221   0.917  0.00  0.00    -0.490 N 
ATOM      2  C   LIG    1       -4.661   1.653   1.194  0.00  0.00    +0.260 C 
ATOM      3  C   LIG    1       -5.548   1.767  -0.050  0.00  0.00    -0.300 C 
ATOM      4  S   LIG    1       -4.803   0.789  -1.389  0.00  0.00    +2.410 S 
ATOM      5  C   LIG    1       -3.110   1.450  -1.401  0.00  0.00    -0.290 C 
ATOM      6  O   LIG    1       -5.439   1.133  -2.612  0.00  0.00    -0.930 OA
ATOM      7  O   LIG    1       -4.758  -0.573  -0.987  0.00  0.00    -0.930 OA
ATOM      8  C   LIG    1       -2.544   1.378   0.021  0.00  0.00    +0.270 C 
ENDROOT
BRANCH   1  12
ATOM      9  C   LIG    1       -3.084   4.342   5.351  0.00  0.00    +0.140 C 
ATOM     10  C   LIG    1       -2.507   3.498   4.244  0.00  0.00    +0.190 A 
ATOM     11  C   LIG    1       -3.231   3.269   3.091  0.00  0.00    -0.100 A 
ATOM     12  C   LIG    1       -2.654   2.480   2.092  0.00  0.00    +0.360 A 
ATOM     13  N   LIG    1       -1.439   1.978   2.291  0.00  0.00    -0.520 NA
ATOM     14  C   LIG    1       -0.782   2.228   3.405  0.00  0.00    +0.350 A 
ATOM     15  N   LIG    1       -1.298   2.967   4.366  0.00  0.00    -0.530 NA
BRANCH  14  16
ATOM     16  C   LIG    1        0.596   1.645   3.590  0.00  0.00    +0.160 C 
BRANCH  16  17
ATOM     17  C   LIG    1        0.483   0.269   4.249  0.00  0.00    -0.040 C 
ATOM     18  C   LIG    1        1.105   0.098   5.637  0.00  0.00    +0.020 C 
ATOM     19  C   LIG    1        1.770  -0.541   4.417  0.00  0.00    +0.010 C 
ENDBRANCH  16  17
ENDBRANCH  14  16
ENDBRANCH   1  12
BRANCH   8  20
ATOM     20  C   LIG    1       -1.116   1.859   0.017  0.00  0.00    -0.180 A 
ATOM     21  C   LIG    1       -0.013   1.076   0.008  0.00  0.00    +0.240 A 
ATOM     22  N   LIG    1        1.067   1.886   0.002  0.00  0.00    -0.370 N 
ATOM     23  N   LIG    1        0.611   3.211   0.013  0.00  0.00    -0.290 NA
ATOM     24  C   LIG    1        2.467   1.456  -0.013  0.00  0.00    +0.350 C 
ATOM     25  C   LIG    1       -0.697   3.193   0.025  0.00  0.00    +0.230 A 
ENDBRANCH   8  20
TORSDOF 4
