REMARK  Name = ZINCpe000000X2iF.0
REMARK                            x       y       z     vdW  Elec       q    Type
REMARK                         _______ _______ _______ _____ _____    ______ ____
ROOT
ATOM      1  C   LIG    1       -1.222   1.748   0.017  0.00  0.00    -0.690 A 
ATOM      2  C   LIG    1       -0.013   1.076   0.008  0.00  0.00    +0.160 A 
ATOM      3  C   LIG    1        1.178   1.781   0.000  0.00  0.00    +0.010 A 
ATOM      4  C   LIG    1        1.167   3.160   0.007  0.00  0.00    +0.110 A 
ATOM      5  C   LIG    1       -0.050   3.845   0.022  0.00  0.00    -0.150 A 
ATOM      6  C   LIG    1       -1.247   3.127   0.030  0.00  0.00    +0.200 A 
ENDROOT
BRANCH   5   7
ATOM      7  C   LIG    1       -0.070   5.323   0.029  0.00  0.00    +0.560 C 
ATOM      8  N   LIG    1        1.088   6.012   0.020  0.00  0.00    -0.620 N 
ATOM      9  H   LIG    1        1.934   5.539   0.010  0.00  0.00    +0.420 HD
ATOM     10  O   LIG    1       -1.131   5.916   0.041  0.00  0.00    -0.470 OA
BRANCH   8  11
ATOM     11  C   LIG    1        1.069   7.410   0.026  0.00  0.00    +0.440 A 
ATOM     12  N   LIG    1       -0.008   8.159   0.035  0.00  0.00    -0.290 NA
ATOM     13  N   LIG    1        0.428   9.494   0.042  0.00  0.00    -0.480 N 
ATOM     14  H   LIG    1       -0.131  10.287   0.051  0.00  0.00    +0.450 HD
ATOM     15  C   LIG    1        1.771   9.457   0.029  0.00  0.00    +0.520 A 
ATOM     16  N   LIG    1        2.145   8.203   0.019  0.00  0.00    -0.560 NA
ENDBRANCH   8  11
ENDBRANCH   5   7
BRANCH   1  17
ATOM     17  S   LIG    1       -2.732   0.841   0.020  0.00  0.00    +2.690 S 
ATOM     18  O   LIG    1       -2.435  -0.434  -0.532  0.00  0.00    -0.950 OA
ATOM     19  O   LIG    1       -3.722   1.708  -0.515  0.00  0.00    -0.940 OA
BRANCH  17  23
ATOM     20  C   LIG    1       -4.225   2.722   4.528  0.00  0.00    +0.070 C 
ATOM     21  C   LIG    1       -3.290   1.876   3.661  0.00  0.00    +0.140 C 
ATOM     22  C   LIG    1       -3.983   1.542   2.335  0.00  0.00    +0.280 C 
ATOM     23  N   LIG    1       -3.144   0.580   1.603  0.00  0.00    -1.000 NA
ATOM     24  C   LIG    1       -2.688  -0.624   2.316  0.00  0.00    +0.280 C 
ATOM     25  C   LIG    1       -2.054  -0.182   3.644  0.00  0.00    +0.200 C 
ATOM     26  C   LIG    1       -0.762   0.589   3.366  0.00  0.00    +0.010 C 
ATOM     27  O   LIG    1       -2.972   0.661   4.345  0.00  0.00    -0.370 OA
ENDBRANCH  17  23
ENDBRANCH   1  17
TORSDOF 4
