REMARK  Name = ZINCvU0000000FP5.0
REMARK                            x       y       z     vdW  Elec       q    Type
REMARK                         _______ _______ _______ _____ _____    ______ ____
ROOT
ATOM      1  O   LIG    1       -3.183   1.239   4.784  0.00  0.00    -0.450 OA
ATOM      2  C   LIG    1       -2.623   0.923   3.753  0.00  0.00    +0.570 C 
ATOM      3  N   LIG    1       -1.443   1.487   3.426  0.00  0.00    -0.510 N 
ENDROOT
BRANCH   2   4
ATOM      4  C   LIG    1       -3.235  -0.080   2.857  0.00  0.00    -0.170 A 
ATOM      5  C   LIG    1       -4.580   0.028   2.482  0.00  0.00    +0.150 A 
ATOM      6  C   LIG    1       -5.104  -0.933   1.637  0.00  0.00    +0.010 A 
ATOM      7  C   LIG    1       -4.293  -1.968   1.202  0.00  0.00    +0.190 A 
ATOM      8  N   LIG    1       -3.029  -2.047   1.576  0.00  0.00    -0.470 NA
ATOM      9 CL   LIG    1       -4.949  -3.181   0.147  0.00  0.00    -0.020 Cl
ATOM     10  C   LIG    1       -2.484  -1.153   2.374  0.00  0.00    +0.320 A 
ENDBRANCH   2   4
BRANCH   3  11
ATOM     11  C   LIG    1       -0.805   2.332   4.325  0.00  0.00    +0.310 A 
ATOM     12  N   LIG    1       -1.251   2.648   5.501  0.00  0.00    -0.460 NA
ATOM     13  C   LIG    1       -0.506   3.472   6.225  0.00  0.00    +0.130 A 
ATOM     14  C   LIG    1        0.635   3.882   5.641  0.00  0.00    -0.060 A 
ATOM     15  S   LIG    1        0.737   3.135   4.048  0.00  0.00    +0.100 S 
BRANCH  13  16
ATOM     16  C   LIG    1       -0.902   3.912   7.585  0.00  0.00    -0.020 A 
ATOM     17  C   LIG    1       -2.043   3.384   8.186  0.00  0.00    +0.100 A 
ATOM     18  C   LIG    1       -2.405   3.793   9.453  0.00  0.00    +0.020 A 
ATOM     19  C   LIG    1       -1.643   4.734  10.123  0.00  0.00    +0.080 A 
ATOM     20  C   LIG    1       -0.512   5.265   9.529  0.00  0.00    -0.180 A 
ATOM     21  C   LIG    1       -0.138   4.859   8.264  0.00  0.00    +0.090 A 
BRANCH  20  22
ATOM     22  C   LIG    1        0.313   6.289  10.265  0.00  0.00    +0.510 C 
ATOM     23  F   LIG    1        1.650   6.183   9.868  0.00  0.00    -0.180 F 
ATOM     24  F   LIG    1        0.215   6.064  11.642  0.00  0.00    -0.180 F 
ATOM     25  F   LIG    1       -0.162   7.571   9.967  0.00  0.00    -0.180 F 
ENDBRANCH  20  22
ENDBRANCH  13  16
ENDBRANCH   3  11
BRANCH   3  26
ATOM     26  C   LIG    1       -0.833   1.208   2.124  0.00  0.00    +0.320 C 
BRANCH  26  27
ATOM     27  C   LIG    1       -1.205   2.318   1.139  0.00  0.00    +0.130 C 
ATOM     28  C   LIG    1       -0.573   2.049  -0.251  0.00  0.00    +0.020 C 
ATOM     29  C   LIG    1       -1.520   2.829  -1.195  0.00  0.00    +0.010 C 
ATOM     30  C   LIG    1       -2.820   2.983  -0.383  0.00  0.00    +0.200 C 
ATOM     31  O   LIG    1       -2.625   2.306   0.870  0.00  0.00    -0.370 OA
ENDBRANCH  26  27
ENDBRANCH   3  26
TORSDOF 6
