REMARK  Name = ZINCpe00000R9Nka.0
REMARK                            x       y       z     vdW  Elec       q    Type
REMARK                         _______ _______ _______ _____ _____    ______ ____
ROOT
ATOM      1  C   LIG    1       -0.665   3.074   1.288  0.00  0.00    +0.220 C 
ATOM      2  C   LIG    1       -0.719   1.545   1.243  0.00  0.00    +0.010 C 
ATOM      3  C   LIG    1       -0.046   1.046  -0.038  0.00  0.00    +0.020 C 
ATOM      4  C   LIG    1       -0.802   1.592  -1.253  0.00  0.00    +0.290 C 
ATOM      5  N   LIG    1       -0.879   3.055  -1.143  0.00  0.00    -0.570 N 
ATOM      6  C   LIG    1       -1.427   3.643   0.087  0.00  0.00    +0.300 C 
ENDROOT
BRANCH   5   7
ATOM      7  C   LIG    1       -0.444   3.867  -2.182  0.00  0.00    +0.350 A 
ATOM      8  N   LIG    1        0.176   3.347  -3.220  0.00  0.00    -0.500 NA
ATOM      9  C   LIG    1        0.597   4.120  -4.220  0.00  0.00    +0.190 A 
ATOM     10  C   LIG    1        0.407   5.457  -4.213  0.00  0.00    +0.170 A 
ATOM     11  N   LIG    1       -0.228   6.067  -3.172  0.00  0.00    -0.590 N 
ATOM     12  H   LIG    1       -0.361   7.028  -3.173  0.00  0.00    +0.420 HD
ATOM     13  C   LIG    1       -0.674   5.316  -2.141  0.00  0.00    +0.490 A 
ATOM     14  O   LIG    1       -1.249   5.830  -1.196  0.00  0.00    -0.530 OA
ENDBRANCH   5   7
BRANCH   1  17
ATOM     15  O   LIG    1        0.620   3.293   3.648  0.00  0.00    -0.520 OA
ATOM     16  C   LIG    1       -0.550   3.623   3.659  0.00  0.00    +0.560 C 
ATOM     17  N   LIG    1       -1.281   3.550   2.529  0.00  0.00    -0.720 N 
ATOM     18  H   LIG    1       -2.214   3.812   2.537  0.00  0.00    +0.400 HD
BRANCH  16  19
ATOM     19  C   LIG    1       -1.171   4.102   4.909  0.00  0.00    -0.120 A 
ATOM     20  C   LIG    1       -2.514   4.487   4.923  0.00  0.00    +0.060 A 
ATOM     21  C   LIG    1       -3.091   4.931   6.093  0.00  0.00    +0.030 A 
ATOM     22  C   LIG    1       -2.344   5.006   7.257  0.00  0.00    +0.070 A 
ATOM     23  C   LIG    1       -1.010   4.634   7.258  0.00  0.00    +0.020 A 
ATOM     24  O   LIG    1       -0.077   4.617   8.254  0.00  0.00    -0.310 OA
ATOM     25  C   LIG    1        0.980   3.765   7.775  0.00  0.00    +0.440 C 
ATOM     26  O   LIG    1        0.888   3.879   6.343  0.00  0.00    -0.280 OA
ATOM     27  C   LIG    1       -0.415   4.179   6.084  0.00  0.00    +0.100 A 
ENDBRANCH  16  19
ENDBRANCH   1  17
TORSDOF 3
