REMARK  Name = ZINCpk00001AZiKU.1
REMARK                            x       y       z     vdW  Elec       q    Type
REMARK                         _______ _______ _______ _____ _____    ______ ____
ROOT
ATOM      1  C   LIG    1       -3.512   8.300   2.744  0.00  0.00    +0.190 A 
ATOM      2  N   LIG    1       -3.852   8.803   1.580  0.00  0.00    -0.280 NA
ATOM      3  N   LIG    1       -4.556   9.865   1.752  0.00  0.00    -0.230 NA
ATOM      4  C   LIG    1       -4.704  10.101   3.024  0.00  0.00    +0.150 A 
ATOM      5  N   LIG    1       -4.050   9.110   3.702  0.00  0.00    -0.290 N 
ENDROOT
BRANCH   5   6
ATOM      6  N   LIG    1       -3.952   8.963   5.056  0.00  0.00    -0.580 N 
ATOM      7  H   LIG    1       -4.793   9.277   5.516  0.00  0.00    +0.380 HD
ATOM      8  H   LIG    1       -3.142   9.445   5.415  0.00  0.00    +0.370 HD
ENDBRANCH   5   6
BRANCH   1   9
ATOM      9  S   LIG    1       -2.548   6.850   3.017  0.00  0.00    +0.090 S 
BRANCH   9  10
ATOM     10  C   LIG    1       -2.231   6.356   1.305  0.00  0.00    +0.260 C 
BRANCH  10  14
ATOM     11  C   LIG    1       -0.749   3.086   1.275  0.00  0.00    +0.180 A 
ATOM     12  N   LIG    1        0.288   3.869   1.269  0.00  0.00    -0.370 NA
ATOM     13  O   LIG    1       -0.063   5.030   1.278  0.00  0.00    +0.090 OA
ATOM     14  C   LIG    1       -1.398   5.100   1.291  0.00  0.00    +0.180 A 
ATOM     15  N   LIG    1       -1.844   3.867   1.284  0.00  0.00    -0.430 NA
BRANCH  11  17
ATOM     16  C   LIG    1       -0.013   1.086   0.008  0.00  0.00    +0.020 C 
ATOM     17  C   LIG    1       -0.729   1.579   1.267  0.00  0.00    +0.210 C 
ATOM     18  C   LIG    1        0.011   1.072   2.506  0.00  0.00    +0.070 C 
BRANCH  17  19
ATOM     19  N   LIG    1       -2.107   1.071   1.277  0.00  0.00    -0.830 NA
ATOM     20  H   LIG    1       -2.120   0.064   1.337  0.00  0.00    +0.350 HD
ATOM     21  H   LIG    1       -2.617   1.392   0.468  0.00  0.00    +0.350 HD
ENDBRANCH  17  19
ENDBRANCH  11  17
ENDBRANCH  10  14
ENDBRANCH   9  10
ENDBRANCH   1   9
BRANCH   4  22
ATOM     22  C   LIG    1       -5.463  11.251   3.636  0.00  0.00    +0.340 C 
BRANCH  22  23
ATOM     23  O   LIG    1       -6.825  10.870   3.836  0.00  0.00    -0.310 OA
BRANCH  23  24
ATOM     24  C   LIG    1       -7.652  11.799   4.384  0.00  0.00    +0.120 A 
ATOM     25  C   LIG    1       -7.160  13.050   4.727  0.00  0.00    -0.080 A 
ATOM     26  C   LIG    1       -8.004  13.995   5.279  0.00  0.00    +0.050 A 
ATOM     27  C   LIG    1       -9.334  13.691   5.499  0.00  0.00    -0.020 A 
ATOM     28  C   LIG    1       -9.826  12.443   5.163  0.00  0.00    +0.050 A 
ATOM     29  C   LIG    1       -8.988  11.496   4.606  0.00  0.00    -0.020 A 
ENDBRANCH  23  24
ENDBRANCH  22  23
ENDBRANCH   4  22
TORSDOF 9
