REMARK  Name = ZINCkj00000y7Cre.0
REMARK                            x       y       z     vdW  Elec       q    Type
REMARK                         _______ _______ _______ _____ _____    ______ ____
ROOT
ATOM      1  C   LIG    1       -2.088   3.913   1.421  0.00  0.00    +0.140 A 
ATOM      2  C   LIG    1       -2.678   4.964   0.737  0.00  0.00    -0.080 A 
ATOM      3  C   LIG    1       -2.686   4.967  -0.645  0.00  0.00    +0.060 A 
ATOM      4  C   LIG    1       -2.107   3.924  -1.341  0.00  0.00    -0.020 A 
ATOM      5  C   LIG    1       -1.516   2.871  -0.662  0.00  0.00    -0.060 A 
ATOM      6  C   LIG    1       -0.826   1.630  -1.186  0.00  0.00    +0.090 C 
ATOM      7  C   LIG    1       -0.013   1.086   0.008  0.00  0.00    +0.250 C 
ATOM      8  C   LIG    1       -0.803   1.617   1.223  0.00  0.00    +0.100 C 
ATOM      9  C   LIG    1       -1.506   2.864   0.720  0.00  0.00    -0.140 A 
ENDROOT
BRANCH   7  10
ATOM     10  N   LIG    1        1.350   1.623  -0.002  0.00  0.00    -0.700 N 
ATOM     11  H   LIG    1        1.552   2.444   0.474  0.00  0.00    +0.410 HD
ATOM     12  C   LIG    1        2.324   0.977  -0.673  0.00  0.00    +0.530 C 
ATOM     13  O   LIG    1        2.072  -0.053  -1.269  0.00  0.00    -0.530 OA
BRANCH  12  14
ATOM     14  C   LIG    1        3.693   1.516  -0.683  0.00  0.00    +0.010 C 
ATOM     15  C   LIG    1        4.654   0.878  -1.345  0.00  0.00    +0.000 C 
BRANCH  15  16
ATOM     16  C   LIG    1        6.056   1.431  -1.355  0.00  0.00    +0.320 C 
BRANCH  16  17
ATOM     17  N   LIG    1        6.991   0.402  -0.880  0.00  0.00    -0.390 N 
ATOM     18  C   LIG    1        6.706   0.093   0.528  0.00  0.00    +0.320 C 
ATOM     19  C   LIG    1        8.368   0.899  -1.003  0.00  0.00    +0.320 C 
ATOM     20  H   LIG    1        6.884  -0.433  -1.436  0.00  0.00    +0.430 HD
ENDBRANCH  16  17
ENDBRANCH  15  16
ENDBRANCH  12  14
ENDBRANCH   7  10
BRANCH   1  22
ATOM     21  C   LIG    1       -2.695   5.018   3.437  0.00  0.00    +0.250 C 
ATOM     22  O   LIG    1       -2.079   3.908   2.780  0.00  0.00    -0.320 OA
ENDBRANCH   1  22
TORSDOF 5
