REMARK  Name = ZINCrH000004jAQT.0
REMARK                            x       y       z     vdW  Elec       q    Type
REMARK                         _______ _______ _______ _____ _____    ______ ____
ROOT
ATOM      1  C   LIG    1       -3.157   4.688  -3.205  0.00  0.00    +0.520 C 
ATOM      2  N   LIG    1       -4.285   3.990  -3.438  0.00  0.00    -0.580 N 
ATOM      3  C   LIG    1       -4.817   3.092  -2.408  0.00  0.00    +0.300 C 
ATOM      4  O   LIG    1       -2.763   5.493  -4.022  0.00  0.00    -0.510 OA
ENDROOT
BRANCH   1  11
ATOM      5  C   LIG    1        3.030   1.951  -0.058  0.00  0.00    +0.300 C 
ATOM      6  N   LIG    1        1.624   2.348   0.059  0.00  0.00    -0.640 N 
ATOM      7  C   LIG    1        1.255   3.612  -0.227  0.00  0.00    +0.710 C 
ATOM      8  N   LIG    1       -0.043   3.901  -0.447  0.00  0.00    -0.630 N 
ATOM      9  C   LIG    1       -1.030   2.827  -0.626  0.00  0.00    +0.260 C 
ATOM     10  C   LIG    1       -1.786   3.059  -1.932  0.00  0.00    +0.020 C 
ATOM     11  C   LIG    1       -2.384   4.468  -1.930  0.00  0.00    +0.000 C 
ATOM     12  C   LIG    1       -1.259   5.501  -1.831  0.00  0.00    +0.050 C 
ATOM     13  C   LIG    1       -0.497   5.297  -0.518  0.00  0.00    +0.300 C 
ATOM     14  O   LIG    1        2.093   4.490  -0.292  0.00  0.00    -0.580 OA
ATOM     15  C   LIG    1        0.621   1.370   0.486  0.00  0.00    +0.280 C 
ENDBRANCH   1  11
BRANCH   2  16
ATOM     16  C   LIG    1       -4.949   4.121  -4.660  0.00  0.00    +0.150 A 
ATOM     17  C   LIG    1       -4.773   3.169  -5.654  0.00  0.00    +0.020 A 
ATOM     18  C   LIG    1       -5.435   3.298  -6.860  0.00  0.00    +0.020 A 
ATOM     19  C   LIG    1       -6.266   4.380  -7.089  0.00  0.00    +0.020 A 
ATOM     20  C   LIG    1       -6.446   5.338  -6.111  0.00  0.00    +0.030 A 
ATOM     21  C   LIG    1       -5.790   5.216  -4.889  0.00  0.00    -0.040 A 
BRANCH  21  22
ATOM     22  C   LIG    1       -5.979   6.243  -3.836  0.00  0.00    -0.040 A 
ATOM     23  C   LIG    1       -6.435   5.873  -2.572  0.00  0.00    +0.010 A 
ATOM     24  C   LIG    1       -6.606   6.832  -1.595  0.00  0.00    +0.000 A 
ATOM     25  C   LIG    1       -6.334   8.160  -1.870  0.00  0.00    +0.000 A 
ATOM     26  C   LIG    1       -5.887   8.534  -3.124  0.00  0.00    +0.000 A 
ATOM     27  C   LIG    1       -5.708   7.583  -4.108  0.00  0.00    +0.020 A 
ENDBRANCH  21  22
ENDBRANCH   2  16
TORSDOF 3
