REMARK  Name = ZINCtj00001tyK10.1
REMARK                            x       y       z     vdW  Elec       q    Type
REMARK                         _______ _______ _______ _____ _____    ______ ____
ROOT
ATOM      1  C   LIG    1        0.550   0.210  -0.441  0.00  0.00    +0.250 C 
ATOM      2  C   LIG    1        0.616  -0.163   1.042  0.00  0.00    +0.050 C 
ENDROOT
BRANCH   1   3
ATOM      3  C   LIG    1        1.693  -0.444  -1.174  0.00  0.00    +0.520 C 
ATOM      4  N   LIG    1        1.808  -1.787  -1.181  0.00  0.00    -0.750 N 
ATOM      5  H   LIG    1        1.156  -2.332  -0.715  0.00  0.00    +0.400 HD
ATOM      6  O   LIG    1        2.509   0.238  -1.758  0.00  0.00    -0.500 OA
BRANCH   4   7
ATOM      7  C   LIG    1        2.919  -2.423  -1.895  0.00  0.00    +0.320 C 
BRANCH   7   8
ATOM      8  C   LIG    1        2.888  -3.932  -1.644  0.00  0.00    +0.300 C 
BRANCH   8   9
ATOM      9  C   LIG    1        3.129  -4.204  -0.182  0.00  0.00    -0.110 A 
ATOM     10  C   LIG    1        4.296  -4.588   0.365  0.00  0.00    +0.030 A 
ATOM     11  C   LIG    1        4.071  -4.725   1.755  0.00  0.00    -0.050 A 
ATOM     12  C   LIG    1        2.779  -4.423   1.972  0.00  0.00    +0.230 A 
ATOM     13  O   LIG    1        2.213  -4.108   0.796  0.00  0.00    -0.180 OA
ENDBRANCH   8   9
BRANCH   8  14
ATOM     14  N   LIG    1        1.576  -4.466  -2.032  0.00  0.00    -0.390 N 
ATOM     15  C   LIG    1        1.508  -5.894  -1.693  0.00  0.00    +0.330 C 
ATOM     16  C   LIG    1        1.387  -4.298  -3.479  0.00  0.00    +0.330 C 
ATOM     17  H   LIG    1        0.851  -3.968  -1.538  0.00  0.00    +0.420 HD
ENDBRANCH   8  14
ENDBRANCH   7   8
ENDBRANCH   4   7
ENDBRANCH   1   3
BRANCH   1  18
ATOM     18  N   LIG    1        0.648   1.665  -0.583  0.00  0.00    -1.100 NA
ATOM     19  H   LIG    1        1.519   2.092  -0.609  0.00  0.00    +0.430 HD
BRANCH  18  20
ATOM     20  S   LIG    1       -0.727   2.579  -0.705  0.00  0.00    +2.700 S 
ATOM     21  O   LIG    1       -1.539   1.953  -1.689  0.00  0.00    -0.950 OA
ATOM     22  O   LIG    1       -0.303   3.932  -0.794  0.00  0.00    -0.940 OA
BRANCH  20  26
ATOM     23  C   LIG    1       -2.949   2.193   3.222  0.00  0.00    +0.210 A 
ATOM     24  C   LIG    1       -2.013   3.204   3.049  0.00  0.00    +0.010 A 
ATOM     25  C   LIG    1       -1.337   3.319   1.850  0.00  0.00    +0.160 A 
ATOM     26  C   LIG    1       -1.591   2.429   0.823  0.00  0.00    -0.700 A 
ATOM     27  C   LIG    1       -2.527   1.424   0.991  0.00  0.00    +0.140 A 
ATOM     28  C   LIG    1       -3.202   1.300   2.189  0.00  0.00    -0.030 A 
BRANCH  23  31
ATOM     29  C   LIG    1       -4.598   3.046   6.496  0.00  0.00    +0.130 C 
ATOM     30  C   LIG    1       -3.964   3.178   5.136  0.00  0.00    +0.510 C 
ATOM     31  N   LIG    1       -3.636   2.074   4.436  0.00  0.00    -0.680 N 
ATOM     32  H   LIG    1       -3.876   1.196   4.773  0.00  0.00    +0.420 HD
ATOM     33  O   LIG    1       -3.748   4.277   4.671  0.00  0.00    -0.510 OA
ENDBRANCH  23  31
ENDBRANCH  20  26
ENDBRANCH  18  20
ENDBRANCH   1  18
TORSDOF 9
