REMARK  Name = ZINCrg000000o3mj.0
REMARK                            x       y       z     vdW  Elec       q    Type
REMARK                         _______ _______ _______ _____ _____    ______ ____
ROOT
ATOM      1  N   LIG    1        0.585  -0.664  -1.018  0.00  0.00    -0.720 N 
ATOM      2  H   LIG    1        0.992  -0.170  -1.747  0.00  0.00    +0.410 HD
ATOM      3  C   LIG    1        0.002  -0.004   0.002  0.00  0.00    +0.510 C 
ATOM      4  O   LIG    1       -0.506  -0.622   0.913  0.00  0.00    -0.530 OA
ENDROOT
BRANCH   1   9
ATOM      5  C   LIG    1        2.688  -5.528  -2.018  0.00  0.00    +0.650 C 
ATOM      6  N   LIG    1        1.766  -4.649  -1.578  0.00  0.00    -0.600 N 
ATOM      7  C   LIG    1        0.709  -4.162  -2.475  0.00  0.00    +0.310 C 
ATOM      8  C   LIG    1        0.723  -2.630  -2.467  0.00  0.00    +0.030 C 
ATOM      9  C   LIG    1        0.605  -2.129  -1.026  0.00  0.00    +0.240 C 
ATOM     10  C   LIG    1        1.801  -2.627  -0.212  0.00  0.00    +0.000 C 
ATOM     11  C   LIG    1        1.799  -4.159  -0.193  0.00  0.00    +0.300 C 
ATOM     12  O   LIG    1        2.650  -5.926  -3.166  0.00  0.00    -0.570 OA
BRANCH   5  13
ATOM     13  O   LIG    1        3.651  -5.966  -1.185  0.00  0.00    -0.370 OA
BRANCH  13  15
ATOM     14  C   LIG    1        5.620  -7.292  -0.642  0.00  0.00    +0.070 C 
ATOM     15  C   LIG    1        4.610  -6.912  -1.727  0.00  0.00    +0.220 C 
ENDBRANCH  13  15
ENDBRANCH   5  13
ENDBRANCH   1   9
BRANCH   3  16
ATOM     16  C   LIG    1       -0.018   1.503   0.010  0.00  0.00    +0.320 C 
BRANCH  16  17
ATOM     17  N   LIG    1       -0.704   1.975   1.216  0.00  0.00    -0.710 N 
ATOM     18  H   LIG    1       -1.058   1.337   1.854  0.00  0.00    +0.410 HD
ATOM     19  C   LIG    1       -0.843   3.297   1.437  0.00  0.00    +0.570 C 
ATOM     20  O   LIG    1       -0.400   4.098   0.637  0.00  0.00    -0.520 OA
BRANCH  19  21
ATOM     21  C   LIG    1       -1.535   3.774   2.654  0.00  0.00    -0.130 A 
ATOM     22  C   LIG    1       -2.050   2.858   3.571  0.00  0.00    +0.110 A 
ATOM     23  C   LIG    1       -2.690   3.309   4.708  0.00  0.00    +0.040 A 
ATOM     24  C   LIG    1       -2.831   4.667   4.932  0.00  0.00    +0.130 A 
ATOM     25  C   LIG    1       -2.328   5.581   4.023  0.00  0.00    -0.050 A 
ATOM     26  C   LIG    1       -1.681   5.143   2.886  0.00  0.00    +0.170 A 
BRANCH  25  27
ATOM     27  N   LIG    1       -2.483   7.032   4.271  0.00  0.00    +0.030 N 
ATOM     28  O   LIG    1       -3.054   7.420   5.275  0.00  0.00    -0.150 OA
ATOM     29  O   LIG    1       -2.041   7.837   3.472  0.00  0.00    -0.150 OA
ENDBRANCH  25  27
ENDBRANCH  19  21
ENDBRANCH  16  17
ENDBRANCH   3  16
TORSDOF 7
