REMARK  Name = ZINCqH00000380YF.0
REMARK                            x       y       z     vdW  Elec       q    Type
REMARK                         _______ _______ _______ _____ _____    ______ ____
ROOT
ATOM      1  C   LIG    1       -2.095   1.782   1.232  0.00  0.00    +0.130 A 
ATOM      2  C   LIG    1       -2.747   2.219   2.378  0.00  0.00    +0.130 A 
ATOM      3  C   LIG    1       -2.029   2.443   3.536  0.00  0.00    -0.660 A 
ATOM      4  C   LIG    1       -0.664   2.227   3.558  0.00  0.00    +0.110 A 
ATOM      5  C   LIG    1       -0.012   1.788   2.420  0.00  0.00    +0.020 A 
ATOM      6  C   LIG    1       -0.724   1.562   1.258  0.00  0.00    -0.060 A 
ATOM      7  C   LIG    1       -0.013   1.084   0.018  0.00  0.00    +0.100 C 
ENDROOT
BRANCH   1   9
ATOM      8  C   LIG    1       -3.983   2.205  -0.151  0.00  0.00    +0.560 C 
ATOM      9  N   LIG    1       -2.818   1.560   0.056  0.00  0.00    -0.670 N 
ATOM     10  H   LIG    1       -2.482   0.941  -0.611  0.00  0.00    +0.410 HD
ATOM     11  O   LIG    1       -4.356   3.054   0.635  0.00  0.00    -0.510 OA
BRANCH   8  16
ATOM     12  C   LIG    1       -7.193   0.942  -4.757  0.00  0.00    +0.100 C 
ATOM     13  C   LIG    1       -6.352   1.273  -3.551  0.00  0.00    -0.050 A 
ATOM     14  C   LIG    1       -6.779   2.240  -2.658  0.00  0.00    +0.000 A 
ATOM     15  C   LIG    1       -6.015   2.547  -1.552  0.00  0.00    +0.090 A 
ATOM     16  C   LIG    1       -4.808   1.881  -1.335  0.00  0.00    -0.150 A 
ATOM     17  C   LIG    1       -4.380   0.910  -2.242  0.00  0.00    +0.040 A 
ATOM     18  C   LIG    1       -5.157   0.609  -3.341  0.00  0.00    +0.000 A 
ENDBRANCH   8  16
ENDBRANCH   1   9
BRANCH   3  19
ATOM     19  S   LIG    1       -2.855   3.003   4.989  0.00  0.00    +2.690 S 
ATOM     20  O   LIG    1       -2.039   2.619   6.087  0.00  0.00    -0.950 OA
ATOM     21  O   LIG    1       -4.214   2.610   4.855  0.00  0.00    -0.950 OA
BRANCH  19  22
ATOM     22  N   LIG    1       -2.841   4.659   4.952  0.00  0.00    -0.990 NA
ATOM     23  C   LIG    1       -1.738   5.412   5.565  0.00  0.00    +0.290 C 
ATOM     24  C   LIG    1       -1.163   6.376   4.516  0.00  0.00    +0.010 C 
ATOM     25  C   LIG    1       -2.292   7.251   3.964  0.00  0.00    +0.010 C 
ATOM     26  C   LIG    1       -3.338   6.367   3.283  0.00  0.00    +0.020 C 
ATOM     27  C   LIG    1       -3.935   5.402   4.313  0.00  0.00    +0.290 C 
ENDBRANCH  19  22
ENDBRANCH   3  19
TORSDOF 4
