REMARK  Name = ZINCpk00000jFl9V.0
REMARK                            x       y       z     vdW  Elec       q    Type
REMARK                         _______ _______ _______ _____ _____    ______ ____
ROOT
ATOM      1  N   LIG    1        3.353   4.985   2.043  0.00  0.00    -0.670 NA
ATOM      2  H   LIG    1        4.127   5.514   1.669  0.00  0.00    +0.350 HD
ENDROOT
BRANCH   1   3
ATOM      3  C   LIG    1        3.169   3.728   1.306  0.00  0.00    +0.160 C 
ATOM      4  C   LIG    1        4.533   3.170   0.832  0.00  0.00    -0.020 C 
ATOM      5  C   LIG    1        4.593   3.663  -0.637  0.00  0.00    +0.210 C 
ATOM      6  O   LIG    1        3.226   3.548  -1.086  0.00  0.00    -0.360 OA
ATOM      7  C   LIG    1        2.389   3.978   0.001  0.00  0.00    +0.240 C 
BRANCH   7   8
ATOM      8  C   LIG    1        1.109   3.182   0.008  0.00  0.00    -0.200 A 
ATOM      9  C   LIG    1       -0.085   3.819   0.022  0.00  0.00    +0.320 A 
ATOM     10  N   LIG    1       -1.246   3.116   0.030  0.00  0.00    -0.610 N 
ATOM     11  H   LIG    1       -2.093   3.588   0.041  0.00  0.00    +0.420 HD
ATOM     12  C   LIG    1       -1.235   1.769   0.018  0.00  0.00    +0.510 A 
ATOM     13  C   LIG    1       -0.013   1.076   0.008  0.00  0.00    -0.090 A 
ATOM     14  O   LIG    1       -2.287   1.151   0.019  0.00  0.00    -0.550 OA
ATOM     15  C   LIG    1        1.155   1.781   0.001  0.00  0.00    +0.130 A 
ENDBRANCH   7   8
ENDBRANCH   1   3
BRANCH   1  16
ATOM     16  C   LIG    1        3.534   4.732   3.479  0.00  0.00    +0.300 C 
BRANCH  16  22
ATOM     17  C   LIG    1        4.987   6.738   4.475  0.00  0.00    -0.240 A 
ATOM     18  C   LIG    1        4.577   7.865   5.146  0.00  0.00    +0.040 A 
ATOM     19  O   LIG    1        3.247   7.786   5.236  0.00  0.00    +0.110 OA
ATOM     20  N   LIG    1        2.795   6.794   4.720  0.00  0.00    -0.330 NA
ATOM     21  C   LIG    1        5.454   8.967   5.681  0.00  0.00    +0.210 C 
ATOM     22  C   LIG    1        3.720   6.041   4.201  0.00  0.00    +0.060 A 
BRANCH  17  23
ATOM     23  C   LIG    1        6.355   6.330   4.115  0.00  0.00    +0.550 C 
ATOM     24  O   LIG    1        6.833   6.678   3.053  0.00  0.00    -0.480 OA
BRANCH  23  25
ATOM     25  O   LIG    1        7.077   5.571   4.963  0.00  0.00    -0.350 OA
BRANCH  25  27
ATOM     26  C   LIG    1        9.077   4.352   5.628  0.00  0.00    +0.070 C 
ATOM     27  C   LIG    1        8.418   5.207   4.543  0.00  0.00    +0.210 C 
ENDBRANCH  25  27
ENDBRANCH  23  25
ENDBRANCH  17  23
ENDBRANCH  16  22
ENDBRANCH   1  16
TORSDOF 7
