REMARK  Name = ZINCvU0000000FKc.0
REMARK                            x       y       z     vdW  Elec       q    Type
REMARK                         _______ _______ _______ _____ _____    ______ ____
ROOT
ATOM      1  C   LIG    1       -1.260   5.908  -0.058  0.00  0.00    +0.380 A 
ATOM      2  N   LIG    1       -1.316   7.218  -0.054  0.00  0.00    -0.510 NA
ATOM      3  C   LIG    1       -0.203   7.973   0.037  0.00  0.00    +0.090 A 
ATOM      4  C   LIG    1        1.043   7.356   0.130  0.00  0.00    -0.240 A 
ATOM      5  C   LIG    1        1.086   5.929   0.130  0.00  0.00    +0.570 A 
ATOM      6  O   LIG    1        2.151   5.341   0.214  0.00  0.00    -0.500 OA
ATOM      7  C   LIG    1        2.124   8.320   0.221  0.00  0.00    +0.090 A 
ATOM      8  C   LIG    1        1.743   9.582   0.200  0.00  0.00    -0.050 A 
ATOM      9  S   LIG    1        0.001   9.720   0.065  0.00  0.00    +0.200 S 
ATOM     10  N   LIG    1       -0.069   5.243   0.030  0.00  0.00    -0.470 N 
ENDROOT
BRANCH  10  11
ATOM     11  C   LIG    1       -0.050   3.842   0.023  0.00  0.00    +0.090 A 
ATOM     12  C   LIG    1        0.054   3.154  -1.178  0.00  0.00    +0.040 A 
ATOM     13  C   LIG    1        0.072   1.773  -1.182  0.00  0.00    +0.030 A 
ATOM     14  C   LIG    1       -0.013   1.076   0.009  0.00  0.00    +0.030 A 
ATOM     15  C   LIG    1       -0.123   1.758   1.206  0.00  0.00    +0.030 A 
ATOM     16  C   LIG    1       -0.136   3.139   1.217  0.00  0.00    +0.040 A 
ENDBRANCH  10  11
BRANCH   1  17
ATOM     17  S   LIG    1       -2.755   4.984  -0.180  0.00  0.00    +0.050 S 
BRANCH  17  18
ATOM     18  C   LIG    1       -3.955   6.336  -0.265  0.00  0.00    +0.200 C 
BRANCH  18  21
ATOM     19  C   LIG    1       -7.264   5.008   0.471  0.00  0.00    +0.120 A 
ATOM     20  N   LIG    1       -6.076   5.497   0.681  0.00  0.00    -0.450 NA
ATOM     21  C   LIG    1       -5.346   5.767  -0.376  0.00  0.00    +0.070 A 
ATOM     22  C   LIG    1       -5.916   5.511  -1.559  0.00  0.00    -0.040 A 
ATOM     23  S   LIG    1       -7.526   4.857  -1.264  0.00  0.00    +0.120 S 
BRANCH  19  28
ATOM     24  C   LIG    1      -10.392   3.779   2.158  0.00  0.00    +0.130 A 
ATOM     25  C   LIG    1      -10.059   3.948   3.495  0.00  0.00    -0.060 A 
ATOM     26  C   LIG    1       -8.823   4.459   3.845  0.00  0.00    +0.050 A 
ATOM     27  C   LIG    1       -7.912   4.805   2.868  0.00  0.00    +0.030 A 
ATOM     28  C   LIG    1       -8.238   4.638   1.521  0.00  0.00    +0.010 A 
ATOM     29  C   LIG    1       -9.487   4.127   1.169  0.00  0.00    +0.000 A 
BRANCH  24  31
ATOM     30  C   LIG    1      -12.494   2.944   2.889  0.00  0.00    +0.250 C 
ATOM     31  O   LIG    1      -11.608   3.277   1.818  0.00  0.00    -0.320 OA
ENDBRANCH  24  31
ENDBRANCH  19  28
ENDBRANCH  18  21
ENDBRANCH  17  18
ENDBRANCH   1  17
TORSDOF 6
