REMARK  Name = ZINCrg000000mRlm.0
REMARK                            x       y       z     vdW  Elec       q    Type
REMARK                         _______ _______ _______ _____ _____    ______ ____
ROOT
ATOM      1  S   LIG    1        0.622   5.889   0.031  0.00  0.00    +2.700 S 
ATOM      2  O   LIG    1        1.921   6.106   0.565  0.00  0.00    -0.950 OA
ATOM      3  O   LIG    1       -0.553   6.460   0.591  0.00  0.00    -0.950 OA
ENDROOT
BRANCH   1  11
ATOM      4  C   LIG    1       -0.941  -2.291  -0.001  0.00  0.00    +0.120 C 
ATOM      5  C   LIG    1       -1.092  -0.792   0.008  0.00  0.00    +0.520 C 
ATOM      6  N   LIG    1        0.002  -0.004   0.002  0.00  0.00    -0.560 N 
ATOM      7  C   LIG    1        1.385  -0.487  -0.014  0.00  0.00    +0.280 C 
ATOM      8  C   LIG    1        2.255   0.780  -0.015  0.00  0.00    +0.110 C 
ATOM      9  C   LIG    1        1.265   1.922   0.000  0.00  0.00    -0.160 A 
ATOM     10  C   LIG    1        1.459   3.290   0.007  0.00  0.00    +0.160 A 
ATOM     11  C   LIG    1        0.373   4.145   0.023  0.00  0.00    -0.700 A 
ATOM     12  C   LIG    1       -0.910   3.629   0.032  0.00  0.00    +0.160 A 
ATOM     13  C   LIG    1       -1.108   2.264   0.030  0.00  0.00    +0.000 A 
ATOM     14  C   LIG    1       -0.017   1.394   0.010  0.00  0.00    +0.200 A 
ATOM     15  O   LIG    1       -2.197  -0.294   0.021  0.00  0.00    -0.510 OA
ENDBRANCH   1  11
BRANCH   1  16
ATOM     16  N   LIG    1        0.676   6.385  -1.548  0.00  0.00    -1.000 NA
ATOM     17  C   LIG    1        1.951   6.439  -2.282  0.00  0.00    +0.260 C 
ATOM     18  C   LIG    1        2.079   7.814  -2.938  0.00  0.00    +0.220 C 
ATOM     19  O   LIG    1        0.897   8.087  -3.695  0.00  0.00    -0.370 OA
ATOM     20  C   LIG    1       -0.297   8.153  -2.913  0.00  0.00    +0.240 C 
ATOM     21  C   LIG    1       -0.547   6.790  -2.257  0.00  0.00    +0.270 C 
BRANCH  20  22
ATOM     22  C   LIG    1       -1.462   8.505  -3.802  0.00  0.00    -0.240 A 
ATOM     23  C   LIG    1       -2.478   9.342  -3.489  0.00  0.00    +0.250 A 
ATOM     24  N   LIG    1       -3.314   9.390  -4.548  0.00  0.00    -0.370 N 
ATOM     25  N   LIG    1       -2.794   8.553  -5.544  0.00  0.00    -0.300 NA
ATOM     26  C   LIG    1       -4.546  10.176  -4.638  0.00  0.00    +0.360 C 
ATOM     27  C   LIG    1       -1.681   8.029  -5.099  0.00  0.00    +0.270 A 
ENDBRANCH  20  22
ENDBRANCH   1  16
TORSDOF 3
