REMARK  Name = ZINCrH000004olr9.0
REMARK                            x       y       z     vdW  Elec       q    Type
REMARK                         _______ _______ _______ _____ _____    ______ ____
ROOT
ATOM      1  N   LIG    1       -4.256  -4.582   0.909  0.00  0.00    -0.720 N 
ATOM      2  H   LIG    1       -3.343  -4.862   1.084  0.00  0.00    +0.390 HD
ATOM      3  C   LIG    1       -5.284  -5.245   1.475  0.00  0.00    +0.600 C 
ATOM      4  O   LIG    1       -6.428  -4.894   1.256  0.00  0.00    -0.510 OA
ENDROOT
BRANCH   3   5
ATOM      5  C   LIG    1       -5.022  -6.393   2.359  0.00  0.00    -0.040 A 
ATOM      6  C   LIG    1       -5.964  -7.167   3.009  0.00  0.00    +0.040 A 
ATOM      7  C   LIG    1       -5.225  -8.128   3.723  0.00  0.00    +0.070 A 
ATOM      8  N   LIG    1       -3.949  -7.904   3.487  0.00  0.00    -0.250 NA
ATOM      9  N   LIG    1       -3.801  -6.905   2.694  0.00  0.00    -0.370 N 
ATOM     10  H   LIG    1       -2.948  -6.564   2.381  0.00  0.00    +0.440 HD
BRANCH   7  11
ATOM     11  C   LIG    1       -5.782  -9.200   4.586  0.00  0.00    -0.010 A 
ATOM     12  C   LIG    1       -7.161  -9.318   4.751  0.00  0.00    +0.030 A 
ATOM     13  C   LIG    1       -7.674 -10.319   5.550  0.00  0.00    +0.010 A 
ATOM     14  C   LIG    1       -6.822 -11.198   6.195  0.00  0.00    +0.010 A 
ATOM     15  C   LIG    1       -5.453 -11.082   6.039  0.00  0.00    +0.010 A 
ATOM     16  C   LIG    1       -4.929 -10.087   5.237  0.00  0.00    +0.040 A 
ENDBRANCH   7  11
ENDBRANCH   3   5
BRANCH   1  18
ATOM     17  C   LIG    1       -4.784  -3.941  -1.391  0.00  0.00    +0.040 C 
ATOM     18  C   LIG    1       -4.516  -3.440   0.029  0.00  0.00    +0.300 C 
BRANCH  18  19
ATOM     19  C   LIG    1       -3.316  -2.528   0.022  0.00  0.00    -0.100 A 
ATOM     20  C   LIG    1       -3.492  -1.156   0.031  0.00  0.00    +0.070 A 
ATOM     21  C   LIG    1       -2.395  -0.318   0.024  0.00  0.00    +0.010 A 
ATOM     22  C   LIG    1       -1.114  -0.853   0.009  0.00  0.00    +0.140 A 
ATOM     23  C   LIG    1       -0.941  -2.230  -0.006  0.00  0.00    +0.000 A 
ATOM     24  C   LIG    1       -2.042  -3.064   0.007  0.00  0.00    +0.040 A 
BRANCH  22  25
ATOM     25  N   LIG    1        0.002  -0.004   0.002  0.00  0.00    -0.410 N 
ATOM     26  C   LIG    1        1.318  -0.388  -0.013  0.00  0.00    +0.120 A 
ATOM     27  C   LIG    1        2.054   0.740  -0.014  0.00  0.00    +0.160 A 
ATOM     28  N   LIG    1        1.215   1.786   0.000  0.00  0.00    -0.480 NA
ATOM     29  C   LIG    1       -0.016   1.354   0.009  0.00  0.00    +0.400 A 
ENDBRANCH  22  25
ENDBRANCH  18  19
ENDBRANCH   1  18
TORSDOF 5
