REMARK  Name = ZINCAx0000000g4m.0
REMARK                            x       y       z     vdW  Elec       q    Type
REMARK                         _______ _______ _______ _____ _____    ______ ____
ROOT
ATOM      1  C   LIG    1       -5.655   3.475   5.661  0.00  0.00    +0.280 C 
ATOM      2  N   LIG    1       -6.661   3.249   4.620  0.00  0.00    -0.610 N 
ATOM      3  C   LIG    1       -6.285   2.807   3.404  0.00  0.00    +0.570 C 
ATOM      4  O   LIG    1       -7.108   2.690   2.517  0.00  0.00    -0.510 OA
ENDROOT
BRANCH   3   5
ATOM      5  C   LIG    1       -4.871   2.464   3.148  0.00  0.00    -0.230 A 
ATOM      6  C   LIG    1       -4.542   1.384   2.323  0.00  0.00    +0.420 A 
ATOM      7  N   LIG    1       -3.289   1.063   2.082  0.00  0.00    -0.510 NA
ATOM      8  C   LIG    1       -2.282   1.745   2.607  0.00  0.00    +0.420 A 
ATOM      9  C   LIG    1       -2.532   2.847   3.449  0.00  0.00    -0.250 A 
ATOM     10  C   LIG    1       -1.382   3.573   4.016  0.00  0.00    +0.570 A 
ATOM     11  N   LIG    1       -0.140   3.151   3.693  0.00  0.00    -0.560 N 
ATOM     12  C   LIG    1        0.045   2.095   2.885  0.00  0.00    +0.710 A 
ATOM     13  O   LIG    1        1.183   1.753   2.628  0.00  0.00    -0.520 OA
ATOM     14  C   LIG    1        1.024   3.855   4.236  0.00  0.00    +0.360 C 
ATOM     15  O   LIG    1       -1.547   4.527   4.752  0.00  0.00    -0.480 OA
ATOM     16  N   LIG    1       -0.970   1.399   2.348  0.00  0.00    -0.530 N 
ATOM     17  C   LIG    1       -0.682   0.257   1.476  0.00  0.00    +0.340 C 
ATOM     18  C   LIG    1       -3.843   3.217   3.727  0.00  0.00    +0.220 A 
ENDBRANCH   3   5
BRANCH   2  19
ATOM     19  C   LIG    1       -8.076   3.503   4.901  0.00  0.00    +0.380 C 
BRANCH  19  20
ATOM     20  C   LIG    1       -8.687   2.285   5.546  0.00  0.00    -0.230 A 
ATOM     21  C   LIG    1       -8.026   1.169   5.922  0.00  0.00    +0.240 A 
ATOM     22  N   LIG    1       -8.931   0.312   6.463  0.00  0.00    -0.320 N 
ATOM     23  N   LIG    1      -10.191   0.920   6.408  0.00  0.00    -0.270 NA
ATOM     24  C   LIG    1      -10.050   2.108   5.857  0.00  0.00    +0.140 A 
BRANCH  22  25
ATOM     25  C   LIG    1       -8.652  -0.961   6.979  0.00  0.00    +0.160 A 
ATOM     26  C   LIG    1       -7.352  -1.448   6.966  0.00  0.00    -0.010 A 
ATOM     27  C   LIG    1       -7.080  -2.700   7.481  0.00  0.00    +0.040 A 
ATOM     28  C   LIG    1       -8.103  -3.474   7.999  0.00  0.00    +0.000 A 
ATOM     29  C   LIG    1       -9.400  -2.994   8.008  0.00  0.00    +0.040 A 
ATOM     30  C   LIG    1       -9.677  -1.740   7.500  0.00  0.00    +0.020 A 
ENDBRANCH  22  25
BRANCH  24  31
ATOM     31  C   LIG    1      -11.135   3.088   5.608  0.00  0.00    -0.020 A 
ATOM     32  C   LIG    1      -10.900   4.450   5.779  0.00  0.00    +0.030 A 
ATOM     33  C   LIG    1      -11.912   5.358   5.540  0.00  0.00    +0.010 A 
ATOM     34  C   LIG    1      -13.161   4.916   5.143  0.00  0.00    +0.020 A 
ATOM     35  C   LIG    1      -13.402   3.564   4.978  0.00  0.00    +0.010 A 
ATOM     36  C   LIG    1      -12.396   2.648   5.208  0.00  0.00    +0.040 A 
ENDBRANCH  24  31
ENDBRANCH  19  20
ENDBRANCH   2  19
TORSDOF 5
