REMARK  Name = ZINCvU00000006vX.0
REMARK                            x       y       z     vdW  Elec       q    Type
REMARK                         _______ _______ _______ _____ _____    ______ ____
ROOT
ATOM      1  C   LIG    1       -0.806   3.508  -0.005  0.00  0.00    +0.160 A 
ATOM      2  N   LIG    1        0.466   3.185  -0.102  0.00  0.00    -0.280 NA
ATOM      3  N   LIG    1        0.591   1.911  -0.208  0.00  0.00    -0.250 NA
ATOM      4  C   LIG    1       -0.591   1.340  -0.185  0.00  0.00    +0.230 A 
ATOM      5  N   LIG    1       -1.524   2.347  -0.061  0.00  0.00    -0.410 N 
ENDROOT
BRANCH   5   6
ATOM      6  C   LIG    1       -2.918   2.208  -0.001  0.00  0.00    +0.110 A 
ATOM      7  C   LIG    1       -3.626   1.811  -1.127  0.00  0.00    +0.050 A 
ATOM      8  C   LIG    1       -4.999   1.672  -1.064  0.00  0.00    +0.080 A 
ATOM      9  C   LIG    1       -5.669   1.937   0.117  0.00  0.00    -0.070 A 
ATOM     10  C   LIG    1       -4.966   2.337   1.240  0.00  0.00    +0.080 A 
ATOM     11 BR   LIG    1       -7.549   1.751   0.198  0.00  0.00    -0.030 Br
ATOM     12  C   LIG    1       -3.593   2.473   1.183  0.00  0.00    +0.050 A 
ENDBRANCH   5   6
BRANCH   4  13
ATOM     13  C   LIG    1       -0.870  -0.108  -0.282  0.00  0.00    +0.020 A 
ATOM     14  C   LIG    1       -2.097  -0.635   0.139  0.00  0.00    -0.020 A 
ATOM     15  C   LIG    1       -2.316  -1.992   0.026  0.00  0.00    +0.270 A 
ATOM     16  N   LIG    1       -1.385  -2.790  -0.460  0.00  0.00    -0.470 NA
ATOM     17  C   LIG    1       -0.213  -2.336  -0.863  0.00  0.00    +0.280 A 
ATOM     18  C   LIG    1        0.089  -0.993  -0.791  0.00  0.00    +0.020 A 
ENDBRANCH   4  13
BRANCH   1  19
ATOM     19  S   LIG    1       -1.461   5.136   0.157  0.00  0.00    +0.110 S 
BRANCH  19  20
ATOM     20  C   LIG    1        0.074   6.095   0.146  0.00  0.00    +0.100 C 
BRANCH  20  23
ATOM     21  N   LIG    1        0.744   8.472   0.292  0.00  0.00    -0.660 N 
ATOM     22  H   LIG    1        1.663   8.188   0.166  0.00  0.00    +0.420 HD
ATOM     23  C   LIG    1       -0.249   7.561   0.277  0.00  0.00    +0.530 C 
ATOM     24  O   LIG    1       -1.404   7.922   0.370  0.00  0.00    -0.500 OA
BRANCH  21  30
ATOM     25  C   LIG    1       -2.443  12.200  -0.033  0.00  0.00    +0.100 C 
ATOM     26  C   LIG    1       -1.087  11.660   0.340  0.00  0.00    -0.070 A 
ATOM     27  C   LIG    1       -0.132  12.503   0.876  0.00  0.00    -0.010 A 
ATOM     28  C   LIG    1        1.114  12.010   1.220  0.00  0.00    +0.030 A 
ATOM     29  C   LIG    1        1.406  10.674   1.033  0.00  0.00    -0.120 A 
ATOM     30  C   LIG    1        0.450   9.826   0.488  0.00  0.00    +0.140 A 
ATOM     31  C   LIG    1        2.761  10.137   1.414  0.00  0.00    +0.080 C 
ATOM     32  C   LIG    1       -0.800  10.323   0.144  0.00  0.00    +0.020 A 
ENDBRANCH  21  30
ENDBRANCH  20  23
ENDBRANCH  19  20
ENDBRANCH   1  19
TORSDOF 6
