REMARK  Name = ZINCrm000000FkFM.1
REMARK                            x       y       z     vdW  Elec       q    Type
REMARK                         _______ _______ _______ _____ _____    ______ ____
ROOT
ATOM      1  C   LIG    1       -0.696   1.477   1.218  0.00  0.00    +0.290 C 
ENDROOT
BRANCH   1   2
ATOM      2  N   LIG    1       -0.012   1.005   0.008  0.00  0.00    -0.370 N 
ATOM      3  C   LIG    1       -0.730   1.490  -1.177  0.00  0.00    +0.260 C 
ATOM      4  C   LIG    1       -0.068   0.935  -2.441  0.00  0.00    +0.070 C 
ATOM      5  C   LIG    1        1.388   1.405  -2.497  0.00  0.00    +0.010 C 
ATOM      6  C   LIG    1        2.108   0.958  -1.221  0.00  0.00    +0.070 C 
ATOM      7  C   LIG    1        1.366   1.511  -0.003  0.00  0.00    +0.260 C 
ATOM      8  H   LIG    1        0.002  -0.004   0.002  0.00  0.00    +0.430 HD
BRANCH   5   9
ATOM      9  C   LIG    1        2.078   0.790  -3.716  0.00  0.00    +0.070 C 
BRANCH   9  10
ATOM     10  C   LIG    1        1.447   1.327  -4.975  0.00  0.00    +0.530 C 
ATOM     11  N   LIG    1        1.895   0.923  -6.179  0.00  0.00    -0.610 N 
ATOM     12  C   LIG    1        2.993  -0.029  -6.410  0.00  0.00    +0.240 C 
ATOM     13  C   LIG    1        3.166  -0.167  -7.937  0.00  0.00    +0.030 C 
ATOM     14  C   LIG    1        2.542   1.147  -8.476  0.00  0.00    +0.030 C 
ATOM     15  C   LIG    1        1.372   1.366  -7.484  0.00  0.00    +0.250 C 
ATOM     16  O   LIG    1        0.535   2.124  -4.904  0.00  0.00    -0.550 OA
ENDBRANCH   9  10
ENDBRANCH   5   9
ENDBRANCH   1   2
BRANCH   1  19
ATOM     17  N   LIG    1       -2.882   1.147   2.328  0.00  0.00    -0.710 N 
ATOM     18  H   LIG    1       -2.586   1.755   3.023  0.00  0.00    +0.420 HD
ATOM     19  C   LIG    1       -2.067   0.856   1.295  0.00  0.00    +0.510 C 
ATOM     20  O   LIG    1       -2.438   0.095   0.426  0.00  0.00    -0.510 OA
BRANCH  17  24
ATOM     21  N   LIG    1       -7.002   0.803   3.150  0.00  0.00    -0.380 N 
ATOM     22  C   LIG    1       -6.100  -0.059   3.924  0.00  0.00    +0.270 C 
ATOM     23  C   LIG    1       -4.676   0.499   3.862  0.00  0.00    +0.060 C 
ATOM     24  C   LIG    1       -4.215   0.543   2.402  0.00  0.00    +0.240 C 
ATOM     25  C   LIG    1       -5.204   1.384   1.590  0.00  0.00    +0.050 C 
ATOM     26  C   LIG    1       -6.608   0.794   1.736  0.00  0.00    +0.270 C 
ATOM     27  H   LIG    1       -6.950   1.747   3.505  0.00  0.00    +0.420 HD
BRANCH  21  29
ATOM     28  C   LIG    1       -9.319   1.206   2.471  0.00  0.00    +0.080 C 
ATOM     29  C   LIG    1       -8.379   0.308   3.277  0.00  0.00    +0.160 C 
ATOM     30  C   LIG    1       -8.457  -1.123   2.743  0.00  0.00    +0.080 C 
ENDBRANCH  21  29
ENDBRANCH  17  24
ENDBRANCH   1  19
TORSDOF 6
