REMARK  Name = ZINCpe000000YAi3.0
REMARK                            x       y       z     vdW  Elec       q    Type
REMARK                         _______ _______ _______ _____ _____    ______ ____
ROOT
ATOM      1  C   LIG    1        2.454   1.514   0.082  0.00  0.00    +0.440 A 
ATOM      2  C   LIG    1        1.360   1.771   0.931  0.00  0.00    -0.260 A 
ATOM      3  C   LIG    1        0.635   1.011   1.874  0.00  0.00    +0.330 A 
ATOM      4  N   LIG    1       -0.303   1.763   2.377  0.00  0.00    -0.240 NA
ATOM      5  N   LIG    1       -0.240   3.041   1.809  0.00  0.00    -0.330 N 
ATOM      6  C   LIG    1        0.786   3.058   0.907  0.00  0.00    +0.350 A 
ATOM      7  N   LIG    1        1.297   3.974   0.088  0.00  0.00    -0.530 NA
ATOM      8  C   LIG    1        2.321   3.686  -0.686  0.00  0.00    +0.570 A 
ATOM      9  N   LIG    1        2.892   2.495  -0.699  0.00  0.00    -0.570 NA
ENDROOT
BRANCH   1  15
ATOM     10  C   LIG    1        4.510   0.393  -0.127  0.00  0.00    +0.160 C 
ATOM     11  C   LIG    1        5.143  -1.000  -0.083  0.00  0.00    +0.250 C 
ATOM     12  O   LIG    1        4.535  -1.826  -1.079  0.00  0.00    -0.370 OA
ATOM     13  C   LIG    1        3.120  -1.967  -0.925  0.00  0.00    +0.240 C 
ATOM     14  C   LIG    1        2.466  -0.584  -0.977  0.00  0.00    +0.180 C 
ATOM     15  N   LIG    1        3.057   0.271   0.062  0.00  0.00    -0.480 N 
BRANCH  10  16
ATOM     16  C   LIG    1        5.099   1.258   0.989  0.00  0.00    +0.050 C 
BRANCH  16  20
ATOM     17  N   LIG    1        7.329   2.102   1.650  0.00  0.00    -0.850 N 
ATOM     18  H   LIG    1        8.271   2.252   1.479  0.00  0.00    +0.400 HD
ATOM     19  H   LIG    1        6.936   2.390   2.489  0.00  0.00    +0.400 HD
ATOM     20  C   LIG    1        6.564   1.492   0.723  0.00  0.00    +0.520 C 
ATOM     21  O   LIG    1        7.054   1.132  -0.326  0.00  0.00    -0.530 OA
ENDBRANCH  16  20
ENDBRANCH  10  16
ENDBRANCH   1  15
BRANCH   5  22
ATOM     22  C   LIG    1       -1.086   4.116   2.109  0.00  0.00    +0.150 A 
ATOM     23  C   LIG    1       -0.590   5.413   2.111  0.00  0.00    +0.020 A 
ATOM     24  C   LIG    1       -1.428   6.471   2.403  0.00  0.00    +0.030 A 
ATOM     25  C   LIG    1       -2.758   6.239   2.703  0.00  0.00    +0.010 A 
ATOM     26  C   LIG    1       -3.254   4.949   2.707  0.00  0.00    +0.030 A 
ATOM     27  C   LIG    1       -2.422   3.886   2.411  0.00  0.00    +0.020 A 
ENDBRANCH   5  22
TORSDOF 4
