REMARK  Name = ZINCrg00000AiIFp.2
REMARK                            x       y       z     vdW  Elec       q    Type
REMARK                         _______ _______ _______ _____ _____    ______ ____
ROOT
ATOM      1  C   LIG    1       -5.776   1.048   2.822  0.00  0.00    +0.630 C 
ATOM      2  N   LIG    1       -4.450   1.081   3.061  0.00  0.00    -0.630 N 
ATOM      3  C   LIG    1       -3.420   0.054   3.322  0.00  0.00    +0.300 C 
ATOM      4  C   LIG    1       -2.420   1.087   2.802  0.00  0.00    -0.090 C 
ATOM      5  C   LIG    1       -2.068   0.982   1.313  0.00  0.00    +0.210 C 
ATOM      6  N   LIG    1       -0.700   1.560   1.217  0.00  0.00    -0.510 NA
ATOM      7  C   LIG    1       -0.010   1.083   2.444  0.00  0.00    +0.190 C 
ATOM      8  C   LIG    1       -0.013   1.086   0.008  0.00  0.00    +0.180 C 
ATOM      9  C   LIG    1       -1.085   1.159   3.552  0.00  0.00    +0.080 C 
ATOM     10  C   LIG    1       -3.446   2.160   3.167  0.00  0.00    +0.330 C 
ATOM     11  O   LIG    1       -6.361  -0.017   2.792  0.00  0.00    -0.530 OA
ENDROOT
BRANCH   1  15
ATOM     12  C   LIG    1       -9.452   4.416   1.910  0.00  0.00    +0.150 C 
ATOM     13  C   LIG    1       -8.127   3.758   2.199  0.00  0.00    +0.010 A 
ATOM     14  C   LIG    1       -7.903   2.430   2.335  0.00  0.00    -0.140 A 
ATOM     15  C   LIG    1       -6.518   2.305   2.596  0.00  0.00    -0.010 A 
ATOM     16  N   LIG    1       -6.017   3.524   2.605  0.00  0.00    -0.250 NA
ATOM     17  C   LIG    1       -8.915   1.318   2.230  0.00  0.00    +0.130 C 
ATOM     18  N   LIG    1       -6.943   4.383   2.370  0.00  0.00    -0.380 N 
ATOM     19  H   LIG    1       -6.810   5.343   2.325  0.00  0.00    +0.450 HD
ENDBRANCH   1  15
BRANCH   9  20
ATOM     20  C   LIG    1       -0.950  -0.007   4.497  0.00  0.00    +0.230 A 
ATOM     21  C   LIG    1       -0.527  -1.242   4.031  0.00  0.00    -0.150 A 
ATOM     22  C   LIG    1       -0.415  -2.288   4.933  0.00  0.00    +0.370 A 
ATOM     23  N   LIG    1       -0.714  -2.078   6.205  0.00  0.00    -0.570 NA
ATOM     24  C   LIG    1       -1.115  -0.885   6.618  0.00  0.00    +0.570 A 
ATOM     25  N   LIG    1       -1.228   0.137   5.782  0.00  0.00    -0.560 NA
BRANCH  24  26
ATOM     26  N   LIG    1       -1.420  -0.701   7.955  0.00  0.00    -0.590 N 
ATOM     27  C   LIG    1       -1.866   0.611   8.431  0.00  0.00    +0.310 C 
ATOM     28  C   LIG    1       -1.297  -1.818   8.895  0.00  0.00    +0.300 C 
ENDBRANCH  24  26
ENDBRANCH   9  20
TORSDOF 3
