REMARK  Name = ZINCpk000000pVdm.0
REMARK                            x       y       z     vdW  Elec       q    Type
REMARK                         _______ _______ _______ _____ _____    ______ ____
ROOT
ATOM      1  C   LIG    1       -0.253   1.415   0.488  0.00  0.00    +0.590 C 
ATOM      2  N   LIG    1       -0.122   0.078   0.387  0.00  0.00    -0.730 N 
ATOM      3  H   LIG    1       -0.893  -0.470   0.172  0.00  0.00    +0.390 HD
ATOM      4  O   LIG    1        0.715   2.102   0.758  0.00  0.00    -0.520 OA
ENDROOT
BRANCH   1   8
ATOM      5  C   LIG    1       -3.720   2.281  -0.178  0.00  0.00    +0.120 A 
ATOM      6  C   LIG    1       -3.203   3.542   0.056  0.00  0.00    -0.210 A 
ATOM      7  C   LIG    1       -1.827   3.379   0.338  0.00  0.00    -0.020 A 
ATOM      8  C   LIG    1       -1.561   2.044   0.267  0.00  0.00    -0.060 A 
ATOM      9  C   LIG    1       -0.842   4.474   0.657  0.00  0.00    +0.130 C 
ATOM     10  N   LIG    1       -2.728   1.386  -0.055  0.00  0.00    -0.520 N 
ATOM     11  H   LIG    1       -2.818   0.427  -0.173  0.00  0.00    +0.420 HD
BRANCH   5  13
ATOM     12  C   LIG    1       -5.365   2.117  -2.026  0.00  0.00    +0.050 C 
ATOM     13  C   LIG    1       -5.154   1.966  -0.519  0.00  0.00    +0.100 C 
ENDBRANCH   5  13
BRANCH   6  14
ATOM     14  C   LIG    1       -3.944   4.813   0.018  0.00  0.00    +0.550 C 
ATOM     15  O   LIG    1       -4.029   5.437  -1.021  0.00  0.00    -0.490 OA
BRANCH  14  16
ATOM     16  O   LIG    1       -4.529   5.285   1.137  0.00  0.00    -0.350 OA
ATOM     17  C   LIG    1       -5.243   6.545   1.026  0.00  0.00    +0.250 C 
ENDBRANCH  14  16
ENDBRANCH   6  14
ENDBRANCH   1   8
BRANCH   2  18
ATOM     18  C   LIG    1        1.185  -0.549   0.603  0.00  0.00    +0.380 C 
BRANCH  18  19
ATOM     19  C   LIG    1        1.060  -2.041   0.433  0.00  0.00    -0.050 A 
ATOM     20  C   LIG    1        1.301  -2.742  -0.688  0.00  0.00    +0.190 A 
ATOM     21  N   LIG    1        1.079  -4.042  -0.430  0.00  0.00    -0.510 NA
ATOM     22  C   LIG    1        0.697  -4.177   0.818  0.00  0.00    +0.380 A 
ATOM     23  N   LIG    1        0.672  -2.946   1.396  0.00  0.00    -0.440 N 
ATOM     24  C   LIG    1        0.302  -2.640   2.780  0.00  0.00    +0.330 C 
BRANCH  22  25
ATOM     25  N   LIG    1        0.374  -5.371   1.441  0.00  0.00    -0.480 N 
ATOM     26  C   LIG    1        1.524  -6.286   1.453  0.00  0.00    +0.230 C 
ATOM     27  C   LIG    1       -0.791  -5.999   0.805  0.00  0.00    +0.240 C 
ENDBRANCH  22  25
ENDBRANCH  18  19
ENDBRANCH   2  18
TORSDOF 7
