REMARK  Name = ZINCrH000004olp9.0
REMARK                            x       y       z     vdW  Elec       q    Type
REMARK                         _______ _______ _______ _____ _____    ______ ____
ROOT
ATOM      1  N   LIG    1        1.944   7.186  -1.911  0.00  0.00    -0.720 N 
ATOM      2  H   LIG    1        2.824   7.518  -1.673  0.00  0.00    +0.390 HD
ATOM      3  C   LIG    1        1.486   6.042  -1.366  0.00  0.00    +0.600 C 
ATOM      4  O   LIG    1        0.382   5.625  -1.664  0.00  0.00    -0.530 OA
ENDROOT
BRANCH   3   5
ATOM      5  C   LIG    1        2.321   5.295  -0.409  0.00  0.00    -0.280 A 
ATOM      6  C   LIG    1        3.583   5.637   0.029  0.00  0.00    +0.300 A 
ATOM      7  N   LIG    1        3.992   4.691   0.888  0.00  0.00    -0.460 N 
ATOM      8  H   LIG    1        4.848   4.683   1.343  0.00  0.00    +0.450 HD
ATOM      9  N   LIG    1        2.997   3.720   1.026  0.00  0.00    -0.280 NA
ATOM     10  C   LIG    1        1.973   4.043   0.269  0.00  0.00    +0.180 A 
BRANCH  10  11
ATOM     11  C   LIG    1        0.709   3.281   0.123  0.00  0.00    -0.030 A 
ATOM     12  C   LIG    1        0.723   1.888   0.167  0.00  0.00    +0.060 A 
ATOM     13  C   LIG    1       -0.456   1.185   0.030  0.00  0.00    +0.020 A 
ATOM     14  C   LIG    1       -1.651   1.860  -0.157  0.00  0.00    -0.020 A 
ATOM     15  C   LIG    1       -1.670   3.243  -0.195  0.00  0.00    +0.020 A 
ATOM     16 CL   LIG    1       -3.129   0.968  -0.336  0.00  0.00    -0.070 Cl
ATOM     17  C   LIG    1       -0.497   3.956  -0.059  0.00  0.00    +0.110 A 
ENDBRANCH  10  11
ENDBRANCH   3   5
BRANCH   1  19
ATOM     18  C   LIG    1        1.309   7.354  -4.266  0.00  0.00    +0.040 C 
ATOM     19  C   LIG    1        1.114   7.928  -2.862  0.00  0.00    +0.290 C 
BRANCH  19  20
ATOM     20  C   LIG    1        1.516   9.381  -2.853  0.00  0.00    -0.110 A 
ATOM     21  C   LIG    1        2.853   9.726  -2.766  0.00  0.00    +0.030 A 
ATOM     22  C   LIG    1        3.225  11.056  -2.763  0.00  0.00    -0.010 A 
ATOM     23  C   LIG    1        2.255  12.047  -2.837  0.00  0.00    +0.170 A 
ATOM     24  C   LIG    1        0.914  11.697  -2.919  0.00  0.00    +0.030 A 
ATOM     25  C   LIG    1        0.548  10.365  -2.927  0.00  0.00    +0.050 A 
BRANCH  23  26
ATOM     26  N   LIG    1        2.629  13.396  -2.828  0.00  0.00    -0.690 N 
ATOM     27  H   LIG    1        3.463  13.670  -3.240  0.00  0.00    +0.410 HD
ATOM     28  C   LIG    1        1.830  14.313  -2.248  0.00  0.00    +0.700 C 
ATOM     29  O   LIG    1        0.833  13.958  -1.649  0.00  0.00    -0.570 OA
ATOM     30  N   LIG    1        2.135  15.623  -2.333  0.00  0.00    -0.860 N 
ATOM     31  H   LIG    1        1.560  16.283  -1.916  0.00  0.00    +0.420 HD
ATOM     32  H   LIG    1        2.930  15.905  -2.811  0.00  0.00    +0.400 HD
ENDBRANCH  23  26
ENDBRANCH  19  20
ENDBRANCH   1  19
TORSDOF 5
