REMARK  Name = ZINCtV00000L6l97.0
REMARK                            x       y       z     vdW  Elec       q    Type
REMARK                         _______ _______ _______ _____ _____    ______ ____
ROOT
ATOM      1  C   LIG    1        0.002  -0.004   0.002  0.00  0.00    -0.090 A 
ATOM      2  C   LIG    1       -0.017   1.377   0.010  0.00  0.00    +0.030 A 
ATOM      3  C   LIG    1        1.171   2.086   0.002  0.00  0.00    -0.080 A 
ATOM      4  C   LIG    1        2.379   1.415  -0.013  0.00  0.00    +0.060 A 
ATOM      5  C   LIG    1        2.403   0.033  -0.021  0.00  0.00    -0.090 A 
ATOM      6  C   LIG    1        1.213  -0.680  -0.013  0.00  0.00    +0.120 A 
ENDROOT
BRANCH   1   8
ATOM      7  C   LIG    1       -2.469   0.202   0.026  0.00  0.00    +0.030 C 
ATOM      8  C   LIG    1       -1.292  -0.776   0.010  0.00  0.00    -0.020 C 
ATOM      9  C   LIG    1       -1.349  -1.663   1.255  0.00  0.00    +0.040 C 
ATOM     10  C   LIG    1       -1.372  -1.650  -1.244  0.00  0.00    +0.030 C 
ENDBRANCH   1   8
BRANCH   5  11
ATOM     11  C   LIG    1        3.721  -0.698  -0.037  0.00  0.00    -0.020 C 
ATOM     12  C   LIG    1        3.805  -1.570  -1.291  0.00  0.00    +0.030 C 
ATOM     13  C   LIG    1        3.829  -1.582   1.207  0.00  0.00    +0.030 C 
ATOM     14  C   LIG    1        4.867   0.316  -0.043  0.00  0.00    +0.040 C 
ENDBRANCH   5  11
BRANCH   6  15
ATOM     15  O   LIG    1        1.234  -2.039  -0.020  0.00  0.00    -0.490 OA
ATOM     16  H   LIG    1        1.232  -2.428  -0.906  0.00  0.00    +0.380 HD
ENDBRANCH   6  15
BRANCH   3  17
ATOM     17  C   LIG    1        1.147   3.593   0.011  0.00  0.00    +0.230 C 
BRANCH  17  18
ATOM     18  C   LIG    1        1.373   4.106  -1.388  0.00  0.00    -0.070 A 
ATOM     19  C   LIG    1        2.654   4.169  -1.903  0.00  0.00    +0.060 A 
ATOM     20  C   LIG    1        2.861   4.635  -3.188  0.00  0.00    +0.020 A 
ATOM     21  C   LIG    1        1.787   5.050  -3.954  0.00  0.00    -0.030 A 
ATOM     22  C   LIG    1        0.505   4.992  -3.436  0.00  0.00    +0.020 A 
ATOM     23 CL   LIG    1        2.046   5.644  -5.565  0.00  0.00    -0.070 Cl
ATOM     24  C   LIG    1        0.299   4.520  -2.154  0.00  0.00    +0.030 A 
ENDBRANCH  17  18
BRANCH  17  25
ATOM     25  N   LIG    1        2.209   4.094   0.893  0.00  0.00    -0.520 NA
ATOM     26  C   LIG    1        2.070   3.543   2.249  0.00  0.00    +0.150 C 
ATOM     27  C   LIG    1        3.228   4.043   3.118  0.00  0.00    +0.230 C 
ATOM     28  O   LIG    1        3.238   5.473   3.113  0.00  0.00    -0.380 OA
ATOM     29  C   LIG    1        3.372   6.043   1.808  0.00  0.00    +0.230 C 
ATOM     30  C   LIG    1        2.216   5.564   0.926  0.00  0.00    +0.150 C 
ENDBRANCH  17  25
ENDBRANCH   3  17
TORSDOF 6
