REMARK  Name = ZINCrH000004reB8.0
REMARK                            x       y       z     vdW  Elec       q    Type
REMARK                         _______ _______ _______ _____ _____    ______ ____
ROOT
ATOM      1  C   LIG    1       -1.454   3.517   3.131  0.00  0.00    -0.150 A 
ATOM      2  C   LIG    1       -0.727   3.138   2.001  0.00  0.00    +0.170 A 
ATOM      3  C   LIG    1       -0.930   1.894   1.440  0.00  0.00    -0.690 A 
ATOM      4  C   LIG    1       -1.843   1.018   1.999  0.00  0.00    +0.180 A 
ATOM      5  C   LIG    1       -2.564   1.385   3.121  0.00  0.00    +0.010 A 
ATOM      6  C   LIG    1       -2.376   2.628   3.692  0.00  0.00    +0.060 A 
ATOM      7 CL   LIG    1       -3.280   3.086   5.100  0.00  0.00    -0.010 Cl
ENDROOT
BRANCH   1  10
ATOM      8  N   LIG    1       -0.356   5.704   3.192  0.00  0.00    -0.720 N 
ATOM      9  H   LIG    1        0.148   5.444   2.405  0.00  0.00    +0.400 HD
ATOM     10  C   LIG    1       -1.246   4.849   3.735  0.00  0.00    +0.550 C 
ATOM     11  O   LIG    1       -1.877   5.175   4.721  0.00  0.00    -0.510 OA
BRANCH   8  12
ATOM     12  C   LIG    1       -0.150   7.025   3.791  0.00  0.00    +0.320 C 
BRANCH  12  17
ATOM     13  C   LIG    1        3.832   9.914   0.759  0.00  0.00    +0.090 C 
ATOM     14  C   LIG    1        2.793   9.161   1.550  0.00  0.00    -0.070 A 
ATOM     15  C   LIG    1        1.457   9.266   1.213  0.00  0.00    +0.000 A 
ATOM     16  C   LIG    1        0.505   8.575   1.938  0.00  0.00    +0.020 A 
ATOM     17  C   LIG    1        0.889   7.778   3.000  0.00  0.00    -0.120 A 
ATOM     18  C   LIG    1        2.224   7.677   3.341  0.00  0.00    +0.030 A 
ATOM     19  C   LIG    1        3.178   8.363   2.612  0.00  0.00    +0.010 A 
ENDBRANCH  12  17
ENDBRANCH   8  12
ENDBRANCH   1  10
BRANCH   3  20
ATOM     20  S   LIG    1       -0.017   1.417   0.010  0.00  0.00    +2.690 S 
ATOM     21  O   LIG    1        1.162   2.210   0.003  0.00  0.00    -0.950 OA
ATOM     22  O   LIG    1        0.002  -0.004   0.002  0.00  0.00    -0.950 OA
BRANCH  20  23
ATOM     23  N   LIG    1       -0.900   1.880  -1.312  0.00  0.00    -0.990 NA
ATOM     24  C   LIG    1       -1.882   0.967  -1.914  0.00  0.00    +0.290 C 
ATOM     25  C   LIG    1       -3.234   1.691  -2.000  0.00  0.00    +0.010 C 
ATOM     26  C   LIG    1       -3.054   3.008  -2.759  0.00  0.00    +0.020 C 
ATOM     27  C   LIG    1       -2.074   3.906  -1.999  0.00  0.00    +0.010 C 
ATOM     28  C   LIG    1       -0.713   3.209  -1.910  0.00  0.00    +0.290 C 
ENDBRANCH  20  23
ENDBRANCH   3  20
TORSDOF 5
