REMARK  Name = ZINCpk00000KfKje.0
REMARK                            x       y       z     vdW  Elec       q    Type
REMARK                         _______ _______ _______ _____ _____    ______ ____
ROOT
ATOM      1  C   LIG    1       -6.015   2.613   4.943  0.00  0.00    +0.030 C 
ATOM      2  C   LIG    1       -7.145   2.381   3.936  0.00  0.00    +0.010 C 
ATOM      3  C   LIG    1       -7.470   0.885   3.882  0.00  0.00    +0.040 C 
ATOM      4  C   LIG    1       -6.208   0.107   3.503  0.00  0.00    +0.170 C 
ATOM      5  N   LIG    1       -5.158   0.362   4.497  0.00  0.00    -0.510 NA
ATOM      6  C   LIG    1       -4.795   1.784   4.534  0.00  0.00    +0.190 C 
ENDROOT
BRANCH   1  11
ATOM      7  N   LIG    1       -7.029   5.733   4.171  0.00  0.00    -0.580 N 
ATOM      8  C   LIG    1       -6.094   5.498   3.243  0.00  0.00    +0.700 C 
ATOM      9  N   LIG    1       -5.225   4.542   3.620  0.00  0.00    -0.720 N 
ATOM     10  H   LIG    1       -4.471   4.210   3.108  0.00  0.00    +0.440 HD
ATOM     11  C   LIG    1       -5.644   4.097   4.960  0.00  0.00    +0.130 C 
ATOM     12  C   LIG    1       -4.538   4.362   5.985  0.00  0.00    +0.090 C 
ATOM     13  O   LIG    1       -6.036   6.082   2.179  0.00  0.00    -0.540 OA
ATOM     14  C   LIG    1       -6.863   4.949   5.254  0.00  0.00    +0.530 C 
ATOM     15  O   LIG    1       -7.546   4.928   6.255  0.00  0.00    -0.460 OA
BRANCH   7  17
ATOM     16  C   LIG    1       -9.319   6.060   3.378  0.00  0.00    +0.030 C 
ATOM     17  C   LIG    1       -8.101   6.721   4.026  0.00  0.00    +0.310 C 
ENDBRANCH   7  17
ENDBRANCH   1  11
BRANCH   5  18
ATOM     18  C   LIG    1       -3.978  -0.476   4.243  0.00  0.00    +0.360 C 
BRANCH  18  19
ATOM     19  C   LIG    1       -3.344  -0.068   2.939  0.00  0.00    +0.130 A 
ATOM     20  N   LIG    1       -3.621  -0.550   1.764  0.00  0.00    -0.370 NA
ATOM     21  O   LIG    1       -2.942  -0.009   0.917  0.00  0.00    +0.080 OA
ATOM     22  C   LIG    1       -2.136   0.891   1.489  0.00  0.00    +0.210 A 
ATOM     23  N   LIG    1       -2.387   0.864   2.776  0.00  0.00    -0.470 NA
BRANCH  22  24
ATOM     24  C   LIG    1       -1.136   1.773   0.788  0.00  0.00    +0.060 C 
ATOM     25  C   LIG    1       -0.013   1.086   0.008  0.00  0.00    +0.070 C 
ATOM     26  C   LIG    1       -1.150   1.781  -0.743  0.00  0.00    +0.070 C 
ENDBRANCH  22  24
ENDBRANCH  18  19
ENDBRANCH   5  18
TORSDOF 5
