REMARK  Name = ZINCvU00000004dJ.0
REMARK                            x       y       z     vdW  Elec       q    Type
REMARK                         _______ _______ _______ _____ _____    ______ ____
ROOT
ATOM      1  C   LIG    1        2.164   9.507   1.650  0.00  0.00    +0.210 C 
ENDROOT
BRANCH   1   2
ATOM      2  C   LIG    1        3.521   9.931   2.148  0.00  0.00    +0.520 C 
ATOM      3  N   LIG    1        4.059  11.095   1.731  0.00  0.00    -0.690 N 
ATOM      4  H   LIG    1        3.541  11.695   1.171  0.00  0.00    +0.400 HD
ATOM      5  O   LIG    1        4.130   9.225   2.924  0.00  0.00    -0.490 OA
BRANCH   3   6
ATOM      6  C   LIG    1        5.363  11.437   2.105  0.00  0.00    +0.140 A 
ATOM      7  C   LIG    1        6.443  10.742   1.577  0.00  0.00    -0.060 A 
ATOM      8  C   LIG    1        7.729  11.086   1.944  0.00  0.00    +0.010 A 
ATOM      9  C   LIG    1        7.942  12.113   2.844  0.00  0.00    +0.010 A 
ATOM     10  C   LIG    1        6.868  12.804   3.376  0.00  0.00    +0.010 A 
ATOM     11  C   LIG    1        5.579  12.468   3.009  0.00  0.00    -0.070 A 
BRANCH   7  12
ATOM     12  C   LIG    1        6.212   9.617   0.600  0.00  0.00    +0.020 C 
ATOM     13  C   LIG    1        6.732   8.308   1.198  0.00  0.00    +0.030 C 
ATOM     14  C   LIG    1        6.956   9.914  -0.703  0.00  0.00    +0.030 C 
ENDBRANCH   7  12
BRANCH  11  15
ATOM     15  C   LIG    1        4.410  13.221   3.589  0.00  0.00    +0.020 C 
ATOM     16  C   LIG    1        4.524  14.702   3.223  0.00  0.00    +0.030 C 
ATOM     17  C   LIG    1        4.411  13.070   5.112  0.00  0.00    +0.040 C 
ENDBRANCH  11  15
ENDBRANCH   3   6
ENDBRANCH   1   2
BRANCH   1  18
ATOM     18  N   LIG    1        1.756   8.271   2.332  0.00  0.00    -0.500 NA
BRANCH  18  20
ATOM     19  C   LIG    1        2.323   6.966   0.339  0.00  0.00    -0.030 C 
ATOM     20  C   LIG    1        2.531   7.122   1.847  0.00  0.00    +0.230 C 
ENDBRANCH  18  20
BRANCH  18  21
ATOM     21  C   LIG    1        0.314   8.036   2.179  0.00  0.00    +0.210 C 
BRANCH  21  22
ATOM     22  C   LIG    1       -0.111   6.910   3.085  0.00  0.00    +0.510 C 
ATOM     23  N   LIG    1       -1.399   6.516   3.113  0.00  0.00    -0.670 N 
ATOM     24  H   LIG    1       -2.040   6.912   2.502  0.00  0.00    +0.410 HD
ATOM     25  O   LIG    1        0.708   6.357   3.789  0.00  0.00    -0.490 OA
BRANCH  23  26
ATOM     26  C   LIG    1       -1.813   5.538   4.023  0.00  0.00    +0.160 A 
ATOM     27  C   LIG    1       -0.954   4.503   4.370  0.00  0.00    +0.040 A 
ATOM     28  C   LIG    1       -1.366   3.537   5.269  0.00  0.00    -0.020 A 
ATOM     29  C   LIG    1       -2.632   3.602   5.824  0.00  0.00    +0.020 A 
ATOM     30  C   LIG    1       -3.490   4.629   5.477  0.00  0.00    +0.050 A 
ATOM     31 CL   LIG    1       -0.294   2.243   5.703  0.00  0.00    -0.060 Cl
ATOM     32  C   LIG    1       -3.083   5.599   4.582  0.00  0.00    -0.110 A 
ATOM     33  C   LIG    1       -4.017   6.721   4.209  0.00  0.00    +0.090 C 
ENDBRANCH  23  26
ENDBRANCH  21  22
ENDBRANCH  18  21
ENDBRANCH   1  18
TORSDOF 9
