REMARK  Name = ZINCrH000004nOHd.0
REMARK                            x       y       z     vdW  Elec       q    Type
REMARK                         _______ _______ _______ _____ _____    ______ ____
ROOT
ATOM      1  N   LIG    1       -0.011   0.966   0.007  0.00  0.00    -0.640 N 
ATOM      2  H   LIG    1        0.002  -0.004   0.002  0.00  0.00    +0.430 HD
ATOM      3  C   LIG    1        1.147   1.655   0.000  0.00  0.00    +0.510 C 
ATOM      4  O   LIG    1        1.130   2.868   0.007  0.00  0.00    -0.450 OA
ENDROOT
BRANCH   1  10
ATOM      5  C   LIG    1       -5.296   4.134   0.050  0.00  0.00    -0.660 A 
ATOM      6  C   LIG    1       -4.322   5.121   0.050  0.00  0.00    +0.140 A 
ATOM      7  C   LIG    1       -2.991   4.789   0.043  0.00  0.00    +0.060 A 
ATOM      8  C   LIG    1       -2.592   3.436   0.033  0.00  0.00    +0.160 A 
ATOM      9  N   LIG    1       -1.345   2.924   0.030  0.00  0.00    -0.480 NA
ATOM     10  C   LIG    1       -1.220   1.642   0.017  0.00  0.00    +0.360 A 
ATOM     11  S   LIG    1       -2.801   0.872   0.020  0.00  0.00    +0.080 S 
ATOM     12  C   LIG    1       -3.584   2.450   0.032  0.00  0.00    -0.210 A 
ATOM     13  C   LIG    1       -4.931   2.806   0.041  0.00  0.00    +0.200 A 
BRANCH   5  15
ATOM     14  C   LIG    1       -7.432   4.683   1.819  0.00  0.00    -0.250 C 
ATOM     15  S   LIG    1       -7.001   4.578   0.059  0.00  0.00    +2.500 S 
ATOM     16  O   LIG    1       -7.655   3.473  -0.549  0.00  0.00    -0.930 OA
ATOM     17  O   LIG    1       -7.031   5.867  -0.538  0.00  0.00    -0.930 OA
ENDBRANCH   5  15
ENDBRANCH   1  10
BRANCH   3  18
ATOM     18  C   LIG    1        2.462   0.920  -0.017  0.00  0.00    +0.130 C 
BRANCH  18  19
ATOM     19  C   LIG    1        3.594   1.915  -0.022  0.00  0.00    -0.080 A 
ATOM     20  C   LIG    1        4.107   2.374  -1.220  0.00  0.00    +0.020 A 
ATOM     21  C   LIG    1        5.142   3.287  -1.217  0.00  0.00    +0.000 A 
ATOM     22  C   LIG    1        5.680   3.739  -0.019  0.00  0.00    -0.070 A 
ATOM     23  C   LIG    1        6.822   4.720  -0.089  0.00  0.00    +0.070 C 
ATOM     24  C   LIG    1        6.997   5.436   1.249  0.00  0.00    +0.020 C 
ATOM     25  C   LIG    1        7.071   4.378   2.357  0.00  0.00    +0.020 C 
ATOM     26  C   LIG    1        5.691   3.743   2.510  0.00  0.00    +0.070 C 
ATOM     27  C   LIG    1        5.169   3.282   1.174  0.00  0.00    -0.070 A 
ATOM     28  C   LIG    1        4.125   2.365   1.169  0.00  0.00    +0.020 A 
ENDBRANCH  18  19
ENDBRANCH   3  18
TORSDOF 4
