REMARK  Name = ZINCqH0000033ePn.0
REMARK                            x       y       z     vdW  Elec       q    Type
REMARK                         _______ _______ _______ _____ _____    ______ ____
ROOT
ATOM      1  N   LIG    1       -0.700   1.557   1.216  0.00  0.00    -0.590 N 
ATOM      2  C   LIG    1       -1.673   0.767   1.711  0.00  0.00    +0.580 C 
ATOM      3  O   LIG    1       -2.003  -0.239   1.112  0.00  0.00    -0.500 OA
ENDROOT
BRANCH   2   4
ATOM      4  C   LIG    1       -2.338   1.122   2.978  0.00  0.00    -0.080 A 
ATOM      5  C   LIG    1       -1.590   1.336   4.126  0.00  0.00    +0.080 A 
ATOM      6  C   LIG    1       -2.209   1.671   5.325  0.00  0.00    -0.040 A 
ATOM      7  C   LIG    1       -3.564   1.798   5.405  0.00  0.00    +0.090 A 
ATOM      8  C   LIG    1       -4.360   1.590   4.266  0.00  0.00    -0.100 A 
ATOM      9  C   LIG    1       -5.761   1.715   4.321  0.00  0.00    +0.100 A 
ATOM     10  C   LIG    1       -6.472   1.513   3.171  0.00  0.00    -0.030 A 
ATOM     11  C   LIG    1       -5.808   1.180   1.994  0.00  0.00    +0.300 A 
ATOM     12  N   LIG    1       -4.501   1.060   1.950  0.00  0.00    -0.460 NA
ATOM     13 CL   LIG    1       -1.240   1.932   6.742  0.00  0.00    -0.050 Cl
ATOM     14  C   LIG    1       -3.750   1.253   3.034  0.00  0.00    +0.160 A 
ENDBRANCH   2   4
BRANCH   1  16
ATOM     15  C   LIG    1       -1.333   3.916   1.356  0.00  0.00    +0.010 C 
ATOM     16  C   LIG    1       -0.387   2.830   1.871  0.00  0.00    +0.260 C 
ENDBRANCH   1  16
BRANCH   1  17
ATOM     17  C   LIG    1        0.043   1.144   0.024  0.00  0.00    +0.320 C 
BRANCH  17  18
ATOM     18  C   LIG    1       -0.655   1.661  -1.208  0.00  0.00    +0.490 C 
ATOM     19  N   LIG    1       -0.147   1.401  -2.429  0.00  0.00    -0.610 N 
ATOM     20  C   LIG    1        1.072   0.629  -2.523  0.00  0.00    +0.270 C 
ATOM     21  C   LIG    1        2.294   1.569  -2.472  0.00  0.00    -0.000 C 
ATOM     22  C   LIG    1        2.398   2.341  -3.720  0.00  0.00    +0.000 C 
ATOM     23  C   LIG    1        1.216   3.269  -3.985  0.00  0.00    +0.000 C 
ATOM     24  C   LIG    1        0.114   2.495  -4.665  0.00  0.00    +0.020 C 
ATOM     25  C   LIG    1       -0.855   1.922  -3.615  0.00  0.00    +0.260 C 
ATOM     26  O   LIG    1       -1.673   2.310  -1.100  0.00  0.00    -0.520 OA
ENDBRANCH  17  18
ENDBRANCH   1  17
TORSDOF 4
