REMARK  Name = ZINCkj000005gpHB.0
REMARK                            x       y       z     vdW  Elec       q    Type
REMARK                         _______ _______ _______ _____ _____    ______ ____
ROOT
ATOM      1  C   LIG    1       -2.834   1.745   2.884  0.00  0.00    -0.660 A 
ATOM      2  C   LIG    1       -3.037   0.861   3.929  0.00  0.00    +0.180 A 
ATOM      3  C   LIG    1       -3.866   1.204   4.982  0.00  0.00    +0.030 A 
ATOM      4  C   LIG    1       -4.506   2.428   4.991  0.00  0.00    +0.060 A 
ATOM      5  C   LIG    1       -4.309   3.322   3.935  0.00  0.00    -0.150 A 
ATOM      6 CL   LIG    1       -5.552   2.854   6.309  0.00  0.00    -0.020 Cl
ATOM      7  C   LIG    1       -3.466   2.971   2.879  0.00  0.00    +0.160 A 
ENDROOT
BRANCH   5   8
ATOM      8  C   LIG    1       -4.989   4.634   3.937  0.00  0.00    +0.590 C 
ATOM      9  N   LIG    1       -4.290   5.756   3.676  0.00  0.00    -0.620 N 
ATOM     10  C   LIG    1       -2.876   5.811   3.278  0.00  0.00    +0.270 C 
ATOM     11  C   LIG    1       -2.503   7.300   3.115  0.00  0.00    +0.080 C 
ATOM     12  C   LIG    1       -3.571   8.022   3.980  0.00  0.00    +0.170 C 
ATOM     13  C   LIG    1       -4.818   7.131   3.738  0.00  0.00    +0.290 C 
ATOM     14  O   LIG    1       -6.180   4.701   4.173  0.00  0.00    -0.490 OA
BRANCH  12  15
ATOM     15  N   LIG    1       -3.801   9.390   3.498  0.00  0.00    -0.630 N 
ATOM     16  H   LIG    1       -2.940   9.913   3.545  0.00  0.00    +0.440 HD
ATOM     17  H   LIG    1       -4.498   9.837   4.075  0.00  0.00    +0.440 HD
ATOM     18  H   LIG    1       -4.125   9.360   2.543  0.00  0.00    +0.440 HD
ENDBRANCH  12  15
ENDBRANCH   5   8
BRANCH   1  19
ATOM     19  S   LIG    1       -1.770   1.300   1.552  0.00  0.00    +2.490 S 
ATOM     20  O   LIG    1       -1.804  -0.121   1.536  0.00  0.00    -0.920 OA
ATOM     21  O   LIG    1       -2.253   2.056   0.450  0.00  0.00    -0.930 OA
BRANCH  19  23
ATOM     22  C   LIG    1        0.891   1.561   0.975  0.00  0.00    +0.100 C 
ATOM     23  C   LIG    1       -0.133   1.892   2.062  0.00  0.00    -0.330 C 
ENDBRANCH  19  23
ENDBRANCH   1  19
TORSDOF 4
