REMARK  Name = ZINCrD000000fLyz.0
REMARK                            x       y       z     vdW  Elec       q    Type
REMARK                         _______ _______ _______ _____ _____    ______ ____
ROOT
ATOM      1  N   LIG    1        5.111  -1.615  -1.816  0.00  0.00    -0.670 N 
ATOM      2  H   LIG    1        5.567  -1.978  -1.041  0.00  0.00    +0.420 HD
ATOM      3  C   LIG    1        4.213  -0.621  -1.665  0.00  0.00    +0.500 C 
ATOM      4  O   LIG    1        3.712  -0.103  -2.641  0.00  0.00    -0.500 OA
ENDROOT
BRANCH   1   9
ATOM      5  C   LIG    1        4.662  -2.671  -5.314  0.00  0.00    +0.160 A 
ATOM      6  C   LIG    1        5.939  -3.128  -5.614  0.00  0.00    +0.010 A 
ATOM      7  C   LIG    1        6.933  -3.082  -4.655  0.00  0.00    +0.050 A 
ATOM      8  C   LIG    1        6.661  -2.581  -3.397  0.00  0.00    -0.030 A 
ATOM      9  C   LIG    1        5.386  -2.122  -3.091  0.00  0.00    +0.160 A 
ATOM     10  C   LIG    1        4.384  -2.172  -4.049  0.00  0.00    -0.010 A 
BRANCH   5  13
ATOM     11  C   LIG    1        2.902  -2.713  -8.641  0.00  0.00    +0.110 C 
ATOM     12  C   LIG    1        3.964  -2.547  -7.585  0.00  0.00    +0.510 C 
ATOM     13  N   LIG    1        3.655  -2.719  -6.285  0.00  0.00    -0.670 N 
ATOM     14  H   LIG    1        2.735  -2.877  -6.022  0.00  0.00    +0.410 HD
ATOM     15  O   LIG    1        5.098  -2.258  -7.906  0.00  0.00    -0.520 OA
ENDBRANCH   5  13
ENDBRANCH   1   9
BRANCH   3  16
ATOM     16  C   LIG    1        3.831  -0.154  -0.285  0.00  0.00    +0.360 C 
BRANCH  16  17
ATOM     17  N   LIG    1        2.846   0.926  -0.390  0.00  0.00    -0.530 N 
ATOM     18  C   LIG    1        1.520   0.629  -0.411  0.00  0.00    +0.600 A 
ATOM     19  N   LIG    1        0.589   1.528  -0.502  0.00  0.00    -0.510 NA
ATOM     20  C   LIG    1        0.881   2.850  -0.584  0.00  0.00    +0.170 A 
ATOM     21  C   LIG    1       -0.121   3.818  -0.677  0.00  0.00    -0.020 A 
ATOM     22  C   LIG    1        0.222   5.150  -0.763  0.00  0.00    +0.100 A 
ATOM     23  C   LIG    1        1.554   5.544  -0.748  0.00  0.00    -0.050 A 
ATOM     24  C   LIG    1        2.561   4.606  -0.651  0.00  0.00    +0.130 A 
ATOM     25 CL   LIG    1        1.955   7.230  -0.850  0.00  0.00    -0.040 Cl
ATOM     26 CL   LIG    1       -1.792   3.345  -0.691  0.00  0.00    -0.020 Cl
ATOM     27  C   LIG    1        2.235   3.254  -0.569  0.00  0.00    -0.170 A 
ATOM     28  C   LIG    1        3.266   2.211  -0.465  0.00  0.00    +0.560 A 
ATOM     29  O   LIG    1        4.450   2.491  -0.447  0.00  0.00    -0.490 OA
ENDBRANCH  16  17
ENDBRANCH   3  16
TORSDOF 4
