REMARK  Name = ZINCnE000001TCg5.0
REMARK                            x       y       z     vdW  Elec       q    Type
REMARK                         _______ _______ _______ _____ _____    ______ ____
ROOT
ATOM      1  C   LIG    1       -4.560   3.139   3.340  0.00  0.00    -0.020 A 
ATOM      2  C   LIG    1       -4.532   3.797   2.112  0.00  0.00    +0.030 A 
ATOM      3  C   LIG    1       -3.867   3.230   1.044  0.00  0.00    +0.040 A 
ATOM      4  C   LIG    1       -3.229   2.011   1.190  0.00  0.00    -0.120 A 
ATOM      5  C   LIG    1       -3.259   1.351   2.405  0.00  0.00    +0.020 A 
ATOM      6  C   LIG    1       -3.916   1.911   3.482  0.00  0.00    +0.020 A 
ENDROOT
BRANCH   1   9
ATOM      7  C   LIG    1       -6.852   3.561   6.304  0.00  0.00    -0.140 A 
ATOM      8  C   LIG    1       -6.188   2.988   5.217  0.00  0.00    +0.120 A 
ATOM      9  C   LIG    1       -5.274   3.743   4.492  0.00  0.00    -0.110 A 
ATOM     10  C   LIG    1       -5.032   5.073   4.846  0.00  0.00    +0.110 A 
ATOM     11  C   LIG    1       -5.697   5.639   5.920  0.00  0.00    -0.030 A 
ATOM     12  F   LIG    1       -4.148   5.809   4.137  0.00  0.00    -0.140 F 
ATOM     13  C   LIG    1       -6.602   4.894   6.649  0.00  0.00    +0.020 A 
ATOM     14 CL   LIG    1       -7.431   5.612   7.995  0.00  0.00    -0.030 Cl
BRANCH   7  16
ATOM     15  O   LIG    1       -8.034   1.600   6.779  0.00  0.00    -0.680 OA
ATOM     16  C   LIG    1       -7.817   2.765   7.082  0.00  0.00    +0.520 C 
ATOM     17  O   LIG    1       -8.402   3.270   8.030  0.00  0.00    -0.660 OA
ENDBRANCH   7  16
ENDBRANCH   1   9
BRANCH   4  18
ATOM     18  C   LIG    1       -2.505   1.398   0.020  0.00  0.00    +0.380 C 
BRANCH  18  19
ATOM     19  N   LIG    1       -1.111   1.850   0.017  0.00  0.00    -0.370 N 
ATOM     20  C   LIG    1       -0.013   1.076   0.008  0.00  0.00    +0.470 A 
ATOM     21  N   LIG    1        1.036   1.858   0.002  0.00  0.00    -0.550 NA
ATOM     22  C   LIG    1        0.648   3.133   0.013  0.00  0.00    +0.400 A 
ATOM     23  N   LIG    1       -0.658   3.180   0.025  0.00  0.00    -0.310 NA
ENDBRANCH  18  19
ENDBRANCH   4  18
TORSDOF 4
