REMARK  Name = ZINCrg00000J08xD.0
REMARK                            x       y       z     vdW  Elec       q    Type
REMARK                         _______ _______ _______ _____ _____    ______ ____
ROOT
ATOM      1  O   LIG    1        3.096   5.222  -1.896  0.00  0.00    -0.500 OA
ATOM      2  C   LIG    1        2.306   5.111  -0.982  0.00  0.00    +0.530 C 
ATOM      3  N   LIG    1        1.327   6.024  -0.824  0.00  0.00    -0.620 N 
ATOM      4  C   LIG    1        0.436   5.970   0.344  0.00  0.00    +0.280 C 
ATOM      5  C   LIG    1        0.493   7.330   1.060  0.00  0.00    +0.300 C 
ATOM      6  N   LIG    1        0.293   8.393   0.064  0.00  0.00    -0.600 N 
ATOM      7  C   LIG    1        1.179   8.442  -1.107  0.00  0.00    +0.290 C 
ATOM      8  C   LIG    1        1.126   7.086  -1.820  0.00  0.00    +0.280 C 
ENDROOT
BRANCH   2   9
ATOM      9  C   LIG    1        2.419   3.954  -0.024  0.00  0.00    +0.210 C 
ATOM     10  O   LIG    1        3.769   3.490  -0.000  0.00  0.00    -0.350 OA
ATOM     11  C   LIG    1        3.934   2.276   0.741  0.00  0.00    +0.230 C 
ATOM     12  C   LIG    1        3.291   1.134  -0.050  0.00  0.00    +0.060 C 
ATOM     13  C   LIG    1        1.901   1.531  -0.477  0.00  0.00    -0.060 A 
ATOM     14  C   LIG    1        1.022   0.541  -0.887  0.00  0.00    +0.010 A 
ATOM     15  C   LIG    1       -0.256   0.870  -1.295  0.00  0.00    +0.020 A 
ATOM     16  C   LIG    1       -0.663   2.191  -1.285  0.00  0.00    +0.010 A 
ATOM     17  C   LIG    1        0.212   3.178  -0.876  0.00  0.00    +0.010 A 
ATOM     18  C   LIG    1        1.496   2.849  -0.470  0.00  0.00    -0.120 A 
ENDBRANCH   2   9
BRANCH   6  19
ATOM     19  C   LIG    1       -0.714   9.329   0.226  0.00  0.00    +0.410 A 
ATOM     20  C   LIG    1       -1.457   9.348   1.370  0.00  0.00    +0.110 A 
ATOM     21  N   LIG    1       -2.428  10.241   1.541  0.00  0.00    -0.380 NA
ATOM     22  C   LIG    1       -2.705  11.135   0.620  0.00  0.00    +0.270 A 
ATOM     23  C   LIG    1       -1.969  11.158  -0.577  0.00  0.00    +0.280 A 
ATOM     24  N   LIG    1       -2.009  11.915  -1.665  0.00  0.00    -0.530 NA
ATOM     25  C   LIG    1       -1.081  11.515  -2.523  0.00  0.00    +0.480 A 
ATOM     26  N   LIG    1       -0.420  10.498  -2.017  0.00  0.00    -0.350 NA
ATOM     27  N   LIG    1       -0.966  10.242  -0.755  0.00  0.00    -0.310 N 
ENDBRANCH   6  19
TORSDOF 2
