REMARK  Name = ZINCqH00000098Gu.0
REMARK                            x       y       z     vdW  Elec       q    Type
REMARK                         _______ _______ _______ _____ _____    ______ ____
ROOT
ATOM      1  N   LIG    1       -1.510  -6.179  -0.014  0.00  0.00    -0.720 N 
ATOM      2  H   LIG    1       -0.761  -6.795  -0.025  0.00  0.00    +0.400 HD
ATOM      3  C   LIG    1       -1.289  -4.849  -0.010  0.00  0.00    +0.510 C 
ATOM      4  O   LIG    1       -2.225  -4.079   0.003  0.00  0.00    -0.540 OA
ENDROOT
BRANCH   1   6
ATOM      5  C   LIG    1       -3.418  -6.747  -1.436  0.00  0.00    +0.020 C 
ATOM      6  C   LIG    1       -2.882  -6.693  -0.004  0.00  0.00    +0.240 C 
BRANCH   6   7
ATOM      7  C   LIG    1       -2.895  -8.099   0.599  0.00  0.00    -0.060 C 
ATOM      8  C   LIG    1       -2.011  -9.022  -0.242  0.00  0.00    +0.020 C 
ATOM      9  C   LIG    1       -2.024 -10.429   0.361  0.00  0.00    -0.020 C 
ATOM     10  C   LIG    1       -1.488 -10.375   1.793  0.00  0.00    +0.010 C 
ATOM     11  C   LIG    1       -2.373  -9.451   2.634  0.00  0.00    -0.020 C 
ATOM     12  C   LIG    1       -3.805  -9.988   2.645  0.00  0.00    +0.010 C 
ATOM     13  C   LIG    1       -4.341 -10.042   1.213  0.00  0.00    -0.020 C 
ATOM     14  C   LIG    1       -3.457 -10.965   0.372  0.00  0.00    +0.010 C 
ATOM     15  C   LIG    1       -2.360  -8.045   2.031  0.00  0.00    +0.020 C 
ATOM     16  C   LIG    1       -4.328  -8.636   0.610  0.00  0.00    +0.030 C 
ENDBRANCH   6   7
ENDBRANCH   1   6
BRANCH   3  17
ATOM     17  C   LIG    1        0.122  -4.321  -0.021  0.00  0.00    +0.300 C 
BRANCH  17  18
ATOM     18  N   LIG    1        0.095  -2.856  -0.013  0.00  0.00    -0.710 N 
ATOM     19  H   LIG    1       -0.754  -2.386  -0.003  0.00  0.00    +0.410 HD
ATOM     20  C   LIG    1        1.249  -2.160  -0.021  0.00  0.00    +0.550 C 
ATOM     21  O   LIG    1        2.313  -2.748  -0.034  0.00  0.00    -0.500 OA
BRANCH  20  22
ATOM     22  C   LIG    1        1.222  -0.682  -0.013  0.00  0.00    -0.110 A 
ATOM     23  C   LIG    1        0.002  -0.004   0.002  0.00  0.00    +0.050 A 
ATOM     24  C   LIG    1       -0.017   1.375   0.010  0.00  0.00    +0.030 A 
ATOM     25  C   LIG    1        1.170   2.087   0.002  0.00  0.00    +0.050 A 
ATOM     26  C   LIG    1        2.383   1.421  -0.013  0.00  0.00    +0.050 A 
ATOM     27  C   LIG    1        2.416   0.042  -0.021  0.00  0.00    -0.060 A 
ATOM     28  I   LIG    1        4.254  -0.964  -0.043  0.00  0.00    +0.010 I 
ENDBRANCH  20  22
ENDBRANCH  17  18
ENDBRANCH   3  17
TORSDOF 5
