REMARK  Name = ZINCrH000004ncli.0
REMARK                            x       y       z     vdW  Elec       q    Type
REMARK                         _______ _______ _______ _____ _____    ______ ____
ROOT
ATOM      1  C   LIG    1        6.165  -0.505   0.068  0.00  0.00    +0.520 C 
ATOM      2  N   LIG    1        7.322   0.128   0.344  0.00  0.00    -0.730 N 
ATOM      3  H   LIG    1        7.309   1.012   0.742  0.00  0.00    +0.400 HD
ATOM      4  O   LIG    1        6.182  -1.611  -0.428  0.00  0.00    -0.530 OA
ENDROOT
BRANCH   1  10
ATOM      5  C   LIG    1       -0.017   1.383   0.010  0.00  0.00    +0.160 A 
ATOM      6  C   LIG    1        0.002  -0.004   0.002  0.00  0.00    -0.100 A 
ATOM      7  C   LIG    1        1.208  -0.676  -0.015  0.00  0.00    +0.090 A 
ATOM      8  C   LIG    1        2.401   0.026  -0.025  0.00  0.00    -0.190 A 
ATOM      9  C   LIG    1        3.696  -0.747  -0.055  0.00  0.00    +0.130 C 
ATOM     10  C   LIG    1        4.849   0.162   0.377  0.00  0.00    -0.040 C 
ATOM     11  C   LIG    1        4.743   1.480  -0.403  0.00  0.00    +0.250 C 
ATOM     12  O   LIG    1        3.536   2.137  -0.012  0.00  0.00    -0.310 OA
ATOM     13  C   LIG    1        2.388   1.410  -0.014  0.00  0.00    +0.170 A 
ATOM     14  C   LIG    1        1.175   2.089   0.002  0.00  0.00    -0.040 A 
BRANCH   5  16
ATOM     15  C   LIG    1       -2.391   1.256   0.020  0.00  0.00    +0.250 C 
ATOM     16  O   LIG    1       -1.202   2.048   0.019  0.00  0.00    -0.310 OA
ENDBRANCH   5  16
ENDBRANCH   1  10
BRANCH   2  17
ATOM     17  C   LIG    1        8.601  -0.521   0.045  0.00  0.00    +0.260 C 
BRANCH  17  18
ATOM     18  C   LIG    1        9.750   0.404   0.452  0.00  0.00    +0.070 C 
BRANCH  18  19
ATOM     19  C   LIG    1       11.066  -0.264   0.144  0.00  0.00    -0.070 A 
ATOM     20  C   LIG    1       11.720  -0.965   1.110  0.00  0.00    +0.010 A 
ATOM     21  C   LIG    1       12.937  -1.589   0.843  0.00  0.00    +0.010 A 
ATOM     22  C   LIG    1       13.507  -1.516  -0.391  0.00  0.00    +0.030 A 
ATOM     23  C   LIG    1       12.861  -0.800  -1.413  0.00  0.00    -0.050 A 
ATOM     24  C   LIG    1       13.419  -0.701  -2.699  0.00  0.00    +0.030 A 
ATOM     25  C   LIG    1       12.765   0.001  -3.665  0.00  0.00    +0.000 A 
ATOM     26  C   LIG    1       11.549   0.625  -3.398  0.00  0.00    +0.010 A 
ATOM     27  C   LIG    1       10.978   0.551  -2.164  0.00  0.00    +0.020 A 
ATOM     28  C   LIG    1       11.620  -0.170  -1.144  0.00  0.00    -0.040 A 
ENDBRANCH  18  19
ENDBRANCH  17  18
ENDBRANCH   2  17
TORSDOF 5
