REMARK  Name = ZINCtV00001bB3xo.0
REMARK                            x       y       z     vdW  Elec       q    Type
REMARK                         _______ _______ _______ _____ _____    ______ ____
ROOT
ATOM      1  C   LIG    1        2.406   0.029  -0.021  0.00  0.00    -0.200 A 
ATOM      2  C   LIG    1        1.201  -0.683  -0.014  0.00  0.00    +0.150 A 
ATOM      3  C   LIG    1        0.002  -0.004   0.002  0.00  0.00    -0.140 A 
ATOM      4  C   LIG    1       -0.017   1.382   0.010  0.00  0.00    +0.130 A 
ATOM      5  C   LIG    1        1.164   2.098   0.002  0.00  0.00    -0.070 A 
ATOM      6 BR   LIG    1       -1.625  -0.967   0.012  0.00  0.00    -0.040 Br
ATOM      7  C   LIG    1        2.381   1.433  -0.013  0.00  0.00    +0.210 A 
ENDROOT
BRANCH   1   9
ATOM      8  O   LIG    1        4.729  -0.066  -0.045  0.00  0.00    -0.400 OA
ATOM      9  C   LIG    1        3.687  -0.687  -0.038  0.00  0.00    +0.410 C 
BRANCH   9  10
ATOM     10  C   LIG    1        3.708  -2.194  -0.048  0.00  0.00    +0.130 C 
ATOM     11  O   LIG    1        4.743  -2.850   0.688  0.00  0.00    -0.300 OA
ATOM     12  C   LIG    1        3.441  -2.919   1.273  0.00  0.00    +0.240 C 
BRANCH  12  13
ATOM     13  C   LIG    1        2.714  -4.238   1.215  0.00  0.00    +0.030 A 
ATOM     14  C   LIG    1        1.394  -4.394   1.379  0.00  0.00    +0.000 A 
ATOM     15  C   LIG    1        1.131  -5.831   1.241  0.00  0.00    -0.130 A 
ATOM     16  C   LIG    1       -0.015  -6.623   1.302  0.00  0.00    +0.060 A 
ATOM     17  C   LIG    1        0.090  -7.985   1.128  0.00  0.00    -0.010 A 
ATOM     18  C   LIG    1        1.326  -8.568   0.893  0.00  0.00    +0.050 A 
ATOM     19  C   LIG    1        2.467  -7.796   0.831  0.00  0.00    +0.020 A 
ATOM     20  C   LIG    1        2.384  -6.420   1.003  0.00  0.00    +0.060 A 
ATOM     21  O   LIG    1        3.298  -5.429   0.997  0.00  0.00    -0.180 OA
ENDBRANCH  12  13
ENDBRANCH   9  10
ENDBRANCH   1   9
BRANCH   7  22
ATOM     22  O   LIG    1        3.541   2.136  -0.020  0.00  0.00    -0.270 OA
BRANCH  22  23
ATOM     23  C   LIG    1        3.437   3.561  -0.011  0.00  0.00    +0.250 C 
BRANCH  23  24
ATOM     24  C   LIG    1        4.817   4.166  -0.021  0.00  0.00    -0.100 A 
ATOM     25  C   LIG    1        5.459   4.441   1.171  0.00  0.00    +0.030 A 
ATOM     26  C   LIG    1        6.727   4.992   1.162  0.00  0.00    +0.010 A 
ATOM     27  C   LIG    1        7.349   5.276  -0.040  0.00  0.00    +0.020 A 
ATOM     28  C   LIG    1        6.704   5.005  -1.232  0.00  0.00    +0.010 A 
ATOM     29  C   LIG    1        5.438   4.450  -1.223  0.00  0.00    +0.030 A 
ENDBRANCH  23  24
ENDBRANCH  22  23
ENDBRANCH   7  22
TORSDOF 6
