REMARK  Name = ZINCrg000000mWs0.0
REMARK                            x       y       z     vdW  Elec       q    Type
REMARK                         _______ _______ _______ _____ _____    ______ ____
ROOT
ATOM      1  C   LIG    1       -2.598   1.345  -0.448  0.00  0.00    +0.590 C 
ATOM      2  N   LIG    1       -2.258   0.086  -0.105  0.00  0.00    -0.610 N 
ATOM      3  C   LIG    1       -1.389  -0.717  -0.977  0.00  0.00    +0.270 C 
ATOM      4  C   LIG    1       -2.107  -2.032  -1.307  0.00  0.00    +0.300 C 
ATOM      5  N   LIG    1       -2.600  -2.625  -0.056  0.00  0.00    -1.010 NA
ATOM      6  C   LIG    1       -3.473  -1.823   0.813  0.00  0.00    +0.300 C 
ATOM      7  C   LIG    1       -2.750  -0.507   1.146  0.00  0.00    +0.290 C 
ATOM      8  O   LIG    1       -3.434   1.946   0.198  0.00  0.00    -0.510 OA
ENDROOT
BRANCH   1  12
ATOM      9  C   LIG    1       -0.514   2.809  -3.493  0.00  0.00    -0.280 A 
ATOM     10  C   LIG    1       -1.724   3.442  -3.378  0.00  0.00    +0.090 A 
ATOM     11  C   LIG    1       -2.507   2.997  -2.351  0.00  0.00    +0.090 A 
ATOM     12  C   LIG    1       -1.956   1.992  -1.605  0.00  0.00    -0.240 A 
ATOM     13  S   LIG    1       -0.361   1.595  -2.231  0.00  0.00    +0.220 S 
BRANCH   9  15
ATOM     14  C   LIG    1        1.792   2.332  -4.525  0.00  0.00    +0.080 C 
ATOM     15  C   LIG    1        0.498   3.103  -4.507  0.00  0.00    +0.420 C 
ATOM     16  O   LIG    1        0.295   3.968  -5.334  0.00  0.00    -0.440 OA
ENDBRANCH   9  15
ENDBRANCH   1  12
BRANCH   5  17
ATOM     17  S   LIG    1       -2.183  -4.172   0.364  0.00  0.00    +2.780 S 
ATOM     18  O   LIG    1       -1.866  -4.845  -0.846  0.00  0.00    -0.970 OA
ATOM     19  O   LIG    1       -3.183  -4.625   1.267  0.00  0.00    -0.960 OA
BRANCH  17  20
ATOM     20  N   LIG    1       -0.775  -4.082   1.232  0.00  0.00    -1.010 NA
ATOM     21  C   LIG    1       -0.794  -4.008   2.701  0.00  0.00    +0.270 C 
ATOM     22  C   LIG    1        0.163  -5.079   3.247  0.00  0.00    +0.200 C 
ATOM     23  O   LIG    1        1.440  -4.930   2.621  0.00  0.00    -0.370 OA
ATOM     24  C   LIG    1        1.424  -5.130   1.206  0.00  0.00    +0.140 C 
ATOM     25  C   LIG    1        2.847  -5.008   0.657  0.00  0.00    +0.070 C 
ATOM     26  C   LIG    1       -0.395  -6.471   2.945  0.00  0.00    +0.020 C 
ATOM     27  C   LIG    1        0.531  -4.067   0.555  0.00  0.00    +0.270 C 
ENDBRANCH  17  20
ENDBRANCH   5  17
TORSDOF 4
