REMARK  Name = ZINCpk00000KfLws.0
REMARK                            x       y       z     vdW  Elec       q    Type
REMARK                         _______ _______ _______ _____ _____    ______ ____
ROOT
ATOM      1  N   LIG    1       -2.370   5.686   0.044  0.00  0.00    -0.730 N 
ATOM      2  H   LIG    1       -1.536   6.183   0.043  0.00  0.00    +0.400 HD
ATOM      3  C   LIG    1       -2.351   4.339   0.037  0.00  0.00    +0.520 C 
ATOM      4  O   LIG    1       -3.393   3.718   0.038  0.00  0.00    -0.530 OA
ENDROOT
BRANCH   1   5
ATOM      5  C   LIG    1       -3.648   6.401   0.054  0.00  0.00    +0.340 C 
BRANCH   5   8
ATOM      6  C   LIG    1       -3.044   9.959  -1.079  0.00  0.00    +0.350 A 
ATOM      7  C   LIG    1       -3.279   8.591  -1.125  0.00  0.00    -0.020 A 
ATOM      8  C   LIG    1       -3.393   7.887   0.061  0.00  0.00    -0.040 A 
ATOM      9  C   LIG    1       -3.273   8.581   1.257  0.00  0.00    -0.020 A 
ATOM     10  C   LIG    1       -3.034   9.941   1.228  0.00  0.00    +0.310 A 
ATOM     11  N   LIG    1       -2.930  10.585   0.081  0.00  0.00    -0.490 NA
BRANCH   6  17
ATOM     12  C   LIG    1       -2.538  12.985  -1.242  0.00  0.00    +0.190 C 
ATOM     13  C   LIG    1       -2.703  12.018  -2.386  0.00  0.00    +0.250 A 
ATOM     14  N   LIG    1       -2.652  12.322  -3.654  0.00  0.00    -0.490 NA
ATOM     15  C   LIG    1       -2.847  11.214  -4.385  0.00  0.00    +0.170 A 
ATOM     16  C   LIG    1       -3.020  10.179  -3.543  0.00  0.00    +0.120 A 
ATOM     17  N   LIG    1       -2.926  10.682  -2.270  0.00  0.00    -0.410 N 
ENDBRANCH   6  17
ENDBRANCH   5   8
ENDBRANCH   1   5
BRANCH   3  18
ATOM     18  C   LIG    1       -1.036   3.603   0.026  0.00  0.00    +0.040 C 
BRANCH  18  19
ATOM     19  C   LIG    1       -1.295   2.095   0.020  0.00  0.00    +0.310 C 
BRANCH  19  20
ATOM     20  N   LIG    1       -0.017   1.380   0.010  0.00  0.00    -0.700 N 
ATOM     21  H   LIG    1        0.817   1.876   0.004  0.00  0.00    +0.410 HD
BRANCH  20  22
ATOM     22  C   LIG    1        0.002  -0.004   0.002  0.00  0.00    +0.560 A 
ATOM     23  N   LIG    1       -1.145  -0.666   0.015  0.00  0.00    -0.570 NA
ATOM     24  C   LIG    1       -1.163  -1.989   0.003  0.00  0.00    +0.360 A 
ATOM     25  C   LIG    1        0.038  -2.681  -0.013  0.00  0.00    -0.140 A 
ATOM     26  C   LIG    1        1.220  -1.957  -0.020  0.00  0.00    +0.360 A 
ATOM     27  N   LIG    1        1.167  -0.635  -0.013  0.00  0.00    -0.570 NA
ENDBRANCH  20  22
ENDBRANCH  19  20
ENDBRANCH  18  19
ENDBRANCH   3  18
TORSDOF 7
