REMARK  Name = ZINCvU0000000GHw.0
REMARK                            x       y       z     vdW  Elec       q    Type
REMARK                         _______ _______ _______ _____ _____    ______ ____
ROOT
ATOM      1  C   LIG    1       -0.286   0.046  -3.578  0.00  0.00    +0.290 C 
ENDROOT
BRANCH   1  16
ATOM      2  C   LIG    1        3.289   0.653  -0.695  0.00  0.00    +0.050 C 
ATOM      3  C   LIG    1        2.197   1.634  -1.129  0.00  0.00    +0.260 C 
ATOM      4  C   LIG    1        1.737   2.447   0.082  0.00  0.00    +0.070 C 
ATOM      5  C   LIG    1        0.422   3.118  -0.215  0.00  0.00    +0.530 C 
ATOM      6  N   LIG    1       -0.725   2.405  -0.218  0.00  0.00    -0.680 N 
ATOM      7  H   LIG    1       -1.573   2.858  -0.348  0.00  0.00    +0.410 HD
ATOM      8  C   LIG    1       -0.698   1.017  -0.041  0.00  0.00    +0.140 A 
ATOM      9  C   LIG    1       -1.531   0.402   0.878  0.00  0.00    +0.020 A 
ATOM     10  C   LIG    1       -1.502  -0.974   1.019  0.00  0.00    +0.050 A 
ATOM     11  C   LIG    1       -0.646  -1.736   0.245  0.00  0.00    +0.030 A 
ATOM     12  C   LIG    1        0.196  -1.128  -0.668  0.00  0.00    +0.030 A 
ATOM     13  C   LIG    1        0.181   0.250  -0.807  0.00  0.00    +0.100 A 
ATOM     14  O   LIG    1        0.393   4.307  -0.453  0.00  0.00    -0.520 OA
ATOM     15  N   LIG    1        1.067   0.888  -1.686  0.00  0.00    -0.570 N 
ATOM     16  C   LIG    1        0.882   0.817  -3.019  0.00  0.00    +0.520 C 
ATOM     17  O   LIG    1        1.656   1.374  -3.769  0.00  0.00    -0.510 OA
ENDBRANCH   1  16
BRANCH   1  18
ATOM     18  N   LIG    1       -0.266   0.120  -5.041  0.00  0.00    -0.730 N 
ATOM     19  H   LIG    1        0.436   0.616  -5.492  0.00  0.00    +0.420 HD
BRANCH  18  20
ATOM     20  C   LIG    1       -1.259  -0.523  -5.788  0.00  0.00    +0.210 A 
ATOM     21  C   LIG    1       -2.260  -1.237  -5.146  0.00  0.00    -0.040 A 
ATOM     22  C   LIG    1       -3.242  -1.868  -5.886  0.00  0.00    +0.020 A 
ATOM     23  C   LIG    1       -3.224  -1.799  -7.266  0.00  0.00    -0.020 A 
ATOM     24  C   LIG    1       -2.226  -1.094  -7.914  0.00  0.00    -0.020 A 
ATOM     25  C   LIG    1       -1.241  -0.454  -7.180  0.00  0.00    +0.050 A 
BRANCH  25  26
ATOM     26  O   LIG    1       -0.259   0.239  -7.816  0.00  0.00    -0.250 OA
BRANCH  26  27
ATOM     27  C   LIG    1       -0.342   0.372  -9.165  0.00  0.00    +0.100 A 
ATOM     28  C   LIG    1        0.314  -0.527  -9.994  0.00  0.00    +0.030 A 
ATOM     29  C   LIG    1        0.223  -0.394 -11.366  0.00  0.00    +0.040 A 
ATOM     30  C   LIG    1       -0.512   0.641 -11.914  0.00  0.00    +0.030 A 
ATOM     31  C   LIG    1       -1.163   1.542 -11.092  0.00  0.00    +0.040 A 
ATOM     32  C   LIG    1       -1.080   1.410  -9.719  0.00  0.00    -0.050 A 
ATOM     33 CL   LIG    1       -1.897   2.542  -8.686  0.00  0.00    -0.050 Cl
ENDBRANCH  26  27
ENDBRANCH  25  26
ENDBRANCH  18  20
ENDBRANCH   1  18
TORSDOF 5
