REMARK  Name = ZINCpk00001AZiMn.1
REMARK                            x       y       z     vdW  Elec       q    Type
REMARK                         _______ _______ _______ _____ _____    ______ ____
ROOT
ATOM      1  C   LIG    1       -7.089   4.767  -0.236  0.00  0.00    +0.550 C 
ATOM      2  N   LIG    1       -8.305   4.190  -0.164  0.00  0.00    -0.710 N 
ATOM      3  H   LIG    1       -8.380   3.227  -0.069  0.00  0.00    +0.400 HD
ATOM      4  O   LIG    1       -6.995   5.975  -0.355  0.00  0.00    -0.550 OA
ENDROOT
BRANCH   1   6
ATOM      5  C   LIG    1       -4.665   4.521  -0.242  0.00  0.00    +0.130 C 
ATOM      6  C   LIG    1       -5.883   3.943  -0.171  0.00  0.00    -0.090 C 
BRANCH   5  10
ATOM      7  C   LIG    1       -1.167   2.130  -0.053  0.00  0.00    +0.160 A 
ATOM      8  C   LIG    1       -2.421   1.531   0.016  0.00  0.00    +0.020 A 
ATOM      9  C   LIG    1       -3.558   2.303  -0.039  0.00  0.00    +0.050 A 
ATOM     10  C   LIG    1       -3.453   3.692  -0.177  0.00  0.00    -0.090 A 
ATOM     11  C   LIG    1       -2.189   4.290  -0.251  0.00  0.00    +0.060 A 
ATOM     12  C   LIG    1       -1.057   3.510  -0.189  0.00  0.00    -0.020 A 
BRANCH   7  15
ATOM     13  C   LIG    1        1.194  -0.688   0.736  0.00  0.00    +0.110 C 
ATOM     14  C   LIG    1       -0.004   0.226   0.763  0.00  0.00    +0.510 C 
ATOM     15  N   LIG    1       -0.016   1.344   0.009  0.00  0.00    -0.680 N 
ATOM     16  H   LIG    1        0.773   1.599  -0.493  0.00  0.00    +0.410 HD
ATOM     17  O   LIG    1       -0.956  -0.043   1.464  0.00  0.00    -0.520 OA
ENDBRANCH   7  15
ENDBRANCH   5  10
ENDBRANCH   1   6
BRANCH   2  18
ATOM     18  C   LIG    1       -9.513   5.016  -0.229  0.00  0.00    +0.240 C 
ATOM     19  C   LIG    1       -9.844   5.546   1.167  0.00  0.00    +0.040 C 
BRANCH  18  20
ATOM     20  C   LIG    1      -10.680   4.171  -0.745  0.00  0.00    +0.170 C 
BRANCH  20  21
ATOM     21  N   LIG    1      -10.315   3.565  -2.032  0.00  0.00    -0.540 NA
ATOM     22  C   LIG    1      -10.146   4.592  -3.069  0.00  0.00    +0.180 C 
ATOM     23  C   LIG    1       -9.690   3.928  -4.371  0.00  0.00    +0.180 C 
ATOM     24  N   LIG    1      -10.684   2.927  -4.782  0.00  0.00    -0.550 NA
ATOM     25  C   LIG    1      -10.853   1.900  -3.745  0.00  0.00    +0.180 C 
ATOM     26  C   LIG    1      -10.319   2.321  -6.069  0.00  0.00    +0.190 C 
ATOM     27  C   LIG    1      -11.309   2.564  -2.443  0.00  0.00    +0.180 C 
ENDBRANCH  20  21
ENDBRANCH  18  20
ENDBRANCH   2  18
TORSDOF 6
