REMARK  Name = ZINCrH000004tPmV.0
REMARK                            x       y       z     vdW  Elec       q    Type
REMARK                         _______ _______ _______ _____ _____    ______ ____
ROOT
ATOM      1  O   LIG    1        0.002  -0.004   0.002  0.00  0.00    -0.280 OA
ENDROOT
BRANCH   1   2
ATOM      2  C   LIG    1        0.606  -0.607  -1.056  0.00  0.00    +0.140 A 
ATOM      3  C   LIG    1        1.162   0.163  -2.067  0.00  0.00    -0.060 A 
ATOM      4  C   LIG    1        1.780  -0.446  -3.140  0.00  0.00    +0.080 A 
ATOM      5  C   LIG    1        1.836  -1.836  -3.213  0.00  0.00    -0.070 A 
ATOM      6  C   LIG    1        1.272  -2.608  -2.198  0.00  0.00    +0.080 A 
ATOM      7  C   LIG    1        0.660  -1.994  -1.125  0.00  0.00    -0.060 A 
ATOM      8 CL   LIG    1       -0.044  -2.954   0.138  0.00  0.00    -0.050 Cl
BRANCH   5   9
ATOM      9  C   LIG    1        2.494  -2.494  -4.368  0.00  0.00    -0.040 A 
ATOM     10  C   LIG    1        2.555  -3.884  -4.440  0.00  0.00    +0.020 A 
ATOM     11  C   LIG    1        3.164  -4.491  -5.520  0.00  0.00    +0.020 A 
ATOM     12  C   LIG    1        3.723  -3.721  -6.525  0.00  0.00    +0.000 A 
ATOM     13  C   LIG    1        3.670  -2.340  -6.456  0.00  0.00    +0.010 A 
ATOM     14  C   LIG    1        3.059  -1.723  -5.383  0.00  0.00    +0.020 A 
ENDBRANCH   5   9
ENDBRANCH   1   2
BRANCH   1  15
ATOM     15  C   LIG    1       -0.017   1.425   0.010  0.00  0.00    +0.240 C 
BRANCH  15  17
ATOM     16  O   LIG    1       -1.165   1.112   2.048  0.00  0.00    -0.510 OA
ATOM     17  C   LIG    1       -0.723   1.911   1.250  0.00  0.00    +0.520 C 
ATOM     18  N   LIG    1       -0.862   3.233   1.472  0.00  0.00    -0.610 N 
ATOM     19  C   LIG    1       -0.326   4.212   0.516  0.00  0.00    +0.290 C 
ATOM     20  C   LIG    1        0.580   5.191   1.262  0.00  0.00    +0.040 C 
ATOM     21  C   LIG    1       -0.191   5.804   2.432  0.00  0.00    +0.260 C 
ATOM     22  O   LIG    1        0.643   6.748   3.116  0.00  0.00    -0.380 OA
ATOM     23  C   LIG    1       -0.020   8.028   3.053  0.00  0.00    +0.200 C 
ATOM     24  C   LIG    1       -1.498   7.644   2.790  0.00  0.00    +0.200 C 
ATOM     25  C   LIG    1       -0.624   4.704   3.404  0.00  0.00    +0.030 C 
ATOM     26  O   LIG    1       -1.353   6.486   1.934  0.00  0.00    -0.370 OA
ATOM     27  C   LIG    1       -1.547   3.721   2.676  0.00  0.00    +0.300 C 
ENDBRANCH  15  17
ENDBRANCH   1  15
TORSDOF 4
