REMARK  Name = ZINCpe000000YJtt.0
REMARK                            x       y       z     vdW  Elec       q    Type
REMARK                         _______ _______ _______ _____ _____    ______ ____
ROOT
ATOM      1  C   LIG    1       -7.193  -1.688   0.027  0.00  0.00    +0.280 C 
ENDROOT
BRANCH   1   2
ATOM      2  N   LIG    1       -8.255  -2.696   0.026  0.00  0.00    -0.730 N 
ATOM      3  H   LIG    1       -8.028  -3.640   0.020  0.00  0.00    +0.400 HD
ATOM      4  C   LIG    1       -9.548  -2.314   0.035  0.00  0.00    +0.520 C 
ATOM      5  O   LIG    1       -9.831  -1.135   0.042  0.00  0.00    -0.500 OA
BRANCH   4   6
ATOM      6  C   LIG    1      -10.640  -3.352   0.034  0.00  0.00    +0.140 C 
ATOM      7  C   LIG    1      -10.598  -4.149   1.345  0.00  0.00    +0.250 C 
ATOM      8  O   LIG    1      -11.655  -5.114   1.317  0.00  0.00    -0.300 OA
ATOM      9  C   LIG    1      -12.877  -4.672   0.915  0.00  0.00    +0.040 A 
ATOM     10  C   LIG    1      -14.003  -5.429   1.199  0.00  0.00    +0.030 A 
ATOM     11  C   LIG    1      -15.251  -4.994   0.794  0.00  0.00    +0.030 A 
ATOM     12  C   LIG    1      -15.380  -3.804   0.104  0.00  0.00    +0.030 A 
ATOM     13  C   LIG    1      -14.262  -3.043  -0.181  0.00  0.00    +0.030 A 
ATOM     14  C   LIG    1      -13.008  -3.473   0.224  0.00  0.00    +0.050 A 
ATOM     15  O   LIG    1      -11.916  -2.710  -0.060  0.00  0.00    -0.280 OA
ENDBRANCH   4   6
ENDBRANCH   1   2
BRANCH   1  16
ATOM     16  C   LIG    1       -5.830  -2.382   0.017  0.00  0.00    +0.080 C 
BRANCH  16  20
ATOM     17  C   LIG    1       -2.733   0.560   0.018  0.00  0.00    -0.680 A 
ATOM     18  C   LIG    1       -3.244   0.094  -1.179  0.00  0.00    +0.140 A 
ATOM     19  C   LIG    1       -4.242  -0.862  -1.180  0.00  0.00    +0.010 A 
ATOM     20  C   LIG    1       -4.737  -1.345   0.017  0.00  0.00    -0.020 A 
ATOM     21  C   LIG    1       -4.230  -0.875   1.214  0.00  0.00    +0.010 A 
ATOM     22  C   LIG    1       -3.228   0.077   1.215  0.00  0.00    +0.140 A 
BRANCH  17  23
ATOM     23  S   LIG    1       -1.456   1.774   0.019  0.00  0.00    +2.700 S 
ATOM     24  O   LIG    1       -1.547   2.452  -1.227  0.00  0.00    -0.960 OA
ATOM     25  O   LIG    1       -1.535   2.438   1.272  0.00  0.00    -0.960 OA
BRANCH  23  26
ATOM     26  N   LIG    1       -0.011   0.966   0.007  0.00  0.00    -1.250 NA
ATOM     27  H   LIG    1        0.822   1.462   0.002  0.00  0.00    +0.420 HD
ATOM     28  H   LIG    1        0.002  -0.004   0.002  0.00  0.00    +0.420 HD
ENDBRANCH  23  26
ENDBRANCH  17  23
ENDBRANCH  16  20
ENDBRANCH   1  16
TORSDOF 6
