REMARK  Name = ZINCrg000000sefx.0
REMARK                            x       y       z     vdW  Elec       q    Type
REMARK                         _______ _______ _______ _____ _____    ______ ____
ROOT
ATOM      1  N   LIG    1       -0.018   1.461   0.010  0.00  0.00    -0.740 N 
ATOM      2  H   LIG    1       -0.864   1.934   0.017  0.00  0.00    +0.400 HD
ATOM      3  C   LIG    1        1.140   2.151   0.003  0.00  0.00    +0.710 C 
ATOM      4  N   LIG    1        1.122   3.498   0.010  0.00  0.00    -0.750 N 
ATOM      5  H   LIG    1        0.275   3.972   0.021  0.00  0.00    +0.400 HD
ATOM      6  O   LIG    1        2.201   1.557  -0.011  0.00  0.00    -0.580 OA
ENDROOT
BRANCH   1  17
ATOM      7  C   LIG    1       -4.907  -3.982  -3.445  0.00  0.00    +0.080 C 
ATOM      8  C   LIG    1       -3.840  -4.045  -2.383  0.00  0.00    -0.120 A 
ATOM      9  C   LIG    1       -3.519  -5.272  -1.826  0.00  0.00    +0.020 A 
ATOM     10  C   LIG    1       -2.550  -5.408  -0.846  0.00  0.00    +0.000 A 
ATOM     11  C   LIG    1       -1.901  -4.247  -0.436  0.00  0.00    +0.090 A 
ATOM     12  N   LIG    1       -0.919  -4.024   0.487  0.00  0.00    -0.580 N 
ATOM     13  H   LIG    1       -0.501  -4.708   1.033  0.00  0.00    +0.420 HD
ATOM     14  C   LIG    1       -0.612  -2.689   0.524  0.00  0.00    +0.080 A 
ATOM     15  C   LIG    1       -1.378  -2.018  -0.363  0.00  0.00    -0.170 A 
ATOM     16  C   LIG    1       -1.308  -0.530  -0.595  0.00  0.00    +0.110 C 
ATOM     17  C   LIG    1        0.002  -0.004   0.002  0.00  0.00    +0.260 C 
ATOM     18  C   LIG    1        0.148  -0.521   1.436  0.00  0.00    +0.030 C 
ATOM     19  C   LIG    1        0.420  -2.029   1.409  0.00  0.00    +0.110 C 
ATOM     20  C   LIG    1       -2.233  -2.992  -1.010  0.00  0.00    -0.090 A 
ATOM     21  C   LIG    1       -3.216  -2.884  -1.998  0.00  0.00    +0.060 A 
ENDBRANCH   1  17
BRANCH   4  22
ATOM     22  C   LIG    1        2.380   4.248   0.002  0.00  0.00    +0.290 C 
BRANCH  22  23
ATOM     23  C   LIG    1        2.080   5.748   0.013  0.00  0.00    +0.170 C 
BRANCH  23  24
ATOM     24  N   LIG    1        3.343   6.500   0.005  0.00  0.00    -0.520 NA
ATOM     25  C   LIG    1        3.101   7.934  -0.224  0.00  0.00    +0.230 C 
ATOM     26  C   LIG    1        2.097   8.435   0.816  0.00  0.00    +0.230 C 
ATOM     27  N   LIG    1        2.520   8.032   2.155  0.00  0.00    -0.720 N 
ATOM     28  H   LIG    1        2.141   8.494   2.919  0.00  0.00    +0.400 HD
ATOM     29  C   LIG    1        3.406   7.056   2.374  0.00  0.00    +0.490 C 
ATOM     30  O   LIG    1        3.679   6.764   3.519  0.00  0.00    -0.550 OA
ATOM     31  C   LIG    1        4.080   6.304   1.260  0.00  0.00    +0.270 C 
ENDBRANCH  23  24
ENDBRANCH  22  23
ENDBRANCH   4  22
TORSDOF 4
