REMARK  Name = ZINCvU0000000CwQ.0
REMARK                            x       y       z     vdW  Elec       q    Type
REMARK                         _______ _______ _______ _____ _____    ______ ____
ROOT
ATOM      1  N   LIG    1        1.355  -1.672   1.116  0.00  0.00    -0.510 N 
ATOM      2  C   LIG    1        0.897  -2.929   0.963  0.00  0.00    +0.570 A 
ATOM      3  C   LIG    1        0.947  -3.824   2.077  0.00  0.00    -0.230 A 
ATOM      4  C   LIG    1        1.473  -3.340   3.276  0.00  0.00    +0.080 A 
ATOM      5  S   LIG    1        1.429  -4.613   4.491  0.00  0.00    +0.230 S 
ATOM      6  C   LIG    1        0.710  -5.741   3.355  0.00  0.00    -0.160 A 
ATOM      7  N   LIG    1        1.913  -2.070   3.349  0.00  0.00    -0.510 NA
ATOM      8  C   LIG    1        0.535  -5.162   2.165  0.00  0.00    +0.100 A 
ATOM      9  O   LIG    1        0.447  -3.299  -0.108  0.00  0.00    -0.510 OA
ATOM     10  C   LIG    1        1.864  -1.264   2.315  0.00  0.00    +0.360 A 
ENDROOT
BRANCH   6  11
ATOM     11  C   LIG    1        0.348  -7.138   3.672  0.00  0.00    -0.020 A 
ATOM     12  C   LIG    1       -0.226  -7.953   2.694  0.00  0.00    +0.030 A 
ATOM     13  C   LIG    1       -0.557  -9.258   2.996  0.00  0.00    +0.020 A 
ATOM     14  C   LIG    1       -0.330  -9.756   4.267  0.00  0.00    +0.010 A 
ATOM     15  C   LIG    1        0.234  -8.952   5.242  0.00  0.00    +0.020 A 
ATOM     16  C   LIG    1        0.574  -7.647   4.952  0.00  0.00    +0.010 A 
ENDBRANCH   6  11
BRANCH   1  17
ATOM     17  C   LIG    1        1.314  -0.739  -0.013  0.00  0.00    +0.340 C 
BRANCH  17  19
ATOM     18  C   LIG    1       -0.006   1.315   0.002  0.00  0.00    +0.070 C 
ATOM     19  C   LIG    1        0.003   0.005  -0.002  0.00  0.00    -0.070 C 
ENDBRANCH  17  19
ENDBRANCH   1  17
BRANCH  10  20
ATOM     20  S   LIG    1        2.462   0.385   2.479  0.00  0.00    +0.110 S 
BRANCH  20  21
ATOM     21  C   LIG    1        2.990   0.356   4.210  0.00  0.00    +0.120 C 
BRANCH  21  22
ATOM     22  C   LIG    1        3.554   1.702   4.586  0.00  0.00    +0.530 C 
ATOM     23  N   LIG    1        4.013   1.916   5.835  0.00  0.00    -0.660 N 
ATOM     24  H   LIG    1        3.920   1.226   6.510  0.00  0.00    +0.420 HD
ATOM     25  O   LIG    1        3.594   2.594   3.764  0.00  0.00    -0.500 OA
BRANCH  23  26
ATOM     26  C   LIG    1        4.625   3.134   6.157  0.00  0.00    +0.130 A 
ATOM     27  C   LIG    1        5.677   3.165   7.062  0.00  0.00    +0.030 A 
ATOM     28  C   LIG    1        6.282   4.367   7.375  0.00  0.00    +0.010 A 
ATOM     29  C   LIG    1        5.833   5.541   6.795  0.00  0.00    +0.090 A 
ATOM     30  C   LIG    1        4.780   5.513   5.896  0.00  0.00    +0.010 A 
ATOM     31  F   LIG    1        6.422   6.716   7.106  0.00  0.00    -0.140 F 
ATOM     32  C   LIG    1        4.176   4.312   5.577  0.00  0.00    +0.060 A 
ENDBRANCH  23  26
ENDBRANCH  21  22
ENDBRANCH  20  21
ENDBRANCH  10  20
TORSDOF 7
