REMARK  Name = ZINCvU00000009qI.0
REMARK                            x       y       z     vdW  Elec       q    Type
REMARK                         _______ _______ _______ _____ _____    ______ ____
ROOT
ATOM      1  C   LIG    1        7.817   2.706  -0.932  0.00  0.00    +0.100 C 
ENDROOT
BRANCH   1   2
ATOM      2  C   LIG    1        8.821   3.802  -1.181  0.00  0.00    +0.430 C 
ATOM      3  O   LIG    1        9.897   3.538  -1.673  0.00  0.00    -0.420 OA
BRANCH   2   4
ATOM      4  C   LIG    1        8.495   5.193  -0.829  0.00  0.00    -0.150 A 
ATOM      5  C   LIG    1        7.919   6.042  -1.780  0.00  0.00    -0.040 A 
ATOM      6  C   LIG    1        7.610   7.344  -1.444  0.00  0.00    +0.020 A 
ATOM      7  C   LIG    1        7.877   7.817  -0.172  0.00  0.00    -0.040 A 
ATOM      8  C   LIG    1        8.453   6.984   0.780  0.00  0.00    +0.130 A 
ATOM      9  C   LIG    1        7.541   9.243   0.183  0.00  0.00    +0.110 C 
ATOM     10  C   LIG    1        7.633   5.534  -3.169  0.00  0.00    +0.100 C 
ATOM     11  C   LIG    1        8.763   5.673   0.456  0.00  0.00    -0.050 A 
ATOM     12  C   LIG    1        9.388   4.768   1.486  0.00  0.00    +0.100 C 
BRANCH   8  13
ATOM     13  N   LIG    1        8.720   7.469   2.065  0.00  0.00    -0.680 N 
ATOM     14  H   LIG    1        8.333   7.031   2.839  0.00  0.00    +0.410 HD
ATOM     15  C   LIG    1        9.515   8.545   2.227  0.00  0.00    +0.510 C 
ATOM     16  O   LIG    1        9.958   9.124   1.257  0.00  0.00    -0.520 OA
ATOM     17  C   LIG    1        9.854   9.030   3.613  0.00  0.00    +0.110 C 
ENDBRANCH   8  13
ENDBRANCH   2   4
ENDBRANCH   1   2
BRANCH   1  18
ATOM     18  S   LIG    1        8.567   1.103  -1.312  0.00  0.00    +0.060 S 
BRANCH  18  20
ATOM     19  N   LIG    1        7.202  -1.324  -1.048  0.00  0.00    -0.450 N 
ATOM     20  C   LIG    1        7.213   0.037  -0.943  0.00  0.00    +0.150 A 
ATOM     21  N   LIG    1        6.026   0.404  -0.514  0.00  0.00    -0.290 NA
ATOM     22  N   LIG    1        5.279  -0.628  -0.346  0.00  0.00    -0.260 NA
ATOM     23  C   LIG    1        5.943  -1.717  -0.656  0.00  0.00    +0.220 A 
BRANCH  23  24
ATOM     24  C   LIG    1        5.434  -3.104  -0.596  0.00  0.00    -0.000 A 
ATOM     25  C   LIG    1        4.303  -3.402   0.164  0.00  0.00    +0.070 A 
ATOM     26  C   LIG    1        3.832  -4.699   0.216  0.00  0.00    +0.040 A 
ATOM     27  C   LIG    1        4.479  -5.702  -0.483  0.00  0.00    +0.040 A 
ATOM     28  C   LIG    1        5.603  -5.412  -1.239  0.00  0.00    -0.030 A 
ATOM     29 CL   LIG    1        6.408  -6.678  -2.113  0.00  0.00    -0.060 Cl
ATOM     30  C   LIG    1        6.080  -4.119  -1.304  0.00  0.00    +0.030 A 
ENDBRANCH  23  24
BRANCH  19  32
ATOM     31  C   LIG    1        8.259  -2.332  -3.010  0.00  0.00    +0.050 C 
ATOM     32  C   LIG    1        8.302  -2.187  -1.488  0.00  0.00    +0.310 C 
ENDBRANCH  19  32
ENDBRANCH  18  20
ENDBRANCH   1  18
TORSDOF 7
