REMARK  Name = ZINCrH000004oWHf.0
REMARK                            x       y       z     vdW  Elec       q    Type
REMARK                         _______ _______ _______ _____ _____    ______ ____
ROOT
ATOM      1  C   LIG    1       -1.283   1.175   1.498  0.00  0.00    +0.530 C 
ATOM      2  N   LIG    1       -0.361   1.607   0.615  0.00  0.00    -0.600 N 
ATOM      3  C   LIG    1        0.226   2.897   0.725  0.00  0.00    +0.260 C 
ATOM      4  C   LIG    1       -0.617   4.051   0.090  0.00  0.00    +0.020 C 
ATOM      5  C   LIG    1       -1.262   3.489  -1.219  0.00  0.00    +0.260 C 
ATOM      6  N   LIG    1       -0.426   2.611  -1.961  0.00  0.00    -0.600 N 
ATOM      7  C   LIG    1       -0.608   1.154  -1.735  0.00  0.00    +0.290 C 
ATOM      8  C   LIG    1        0.490   3.079  -2.831  0.00  0.00    +0.600 C 
ATOM      9  O   LIG    1        1.229   2.305  -3.412  0.00  0.00    -0.520 OA
ATOM     10  C   LIG    1        0.088   0.755  -0.517  0.00  0.00    +0.280 C 
ATOM     11  O   LIG    1       -1.727   1.935   2.332  0.00  0.00    -0.520 OA
ENDROOT
BRANCH   1  13
ATOM     12  C   LIG    1       -0.576  -1.192   1.678  0.00  0.00    +0.060 C 
ATOM     13  C   LIG    1       -1.762  -0.253   1.449  0.00  0.00    -0.030 C 
ATOM     14  C   LIG    1       -2.368  -0.534   0.075  0.00  0.00    +0.030 C 
ATOM     15  C   LIG    1       -3.676   0.255  -0.048  0.00  0.00    +0.010 C 
ATOM     16  C   LIG    1       -4.706  -0.372   0.890  0.00  0.00    +0.080 C 
ATOM     17  C   LIG    1       -4.138  -0.521   2.277  0.00  0.00    -0.070 A 
ATOM     18  C   LIG    1       -5.029  -0.719   3.323  0.00  0.00    +0.000 A 
ATOM     19  C   LIG    1       -4.570  -0.868   4.616  0.00  0.00    +0.010 A 
ATOM     20  C   LIG    1       -3.213  -0.822   4.872  0.00  0.00    +0.000 A 
ATOM     21  C   LIG    1       -2.326  -0.624   3.834  0.00  0.00    +0.020 A 
ATOM     22  C   LIG    1       -2.785  -0.471   2.533  0.00  0.00    -0.050 A 
ENDBRANCH   1  13
BRANCH   8  23
ATOM     23  C   LIG    1        0.598   4.520  -3.078  0.00  0.00    -0.280 A 
ATOM     24  C   LIG    1        1.383   5.104  -4.031  0.00  0.00    +0.100 A 
ATOM     25  C   LIG    1        1.292   6.476  -4.044  0.00  0.00    -0.010 A 
ATOM     26  C   LIG    1        0.461   6.998  -3.135  0.00  0.00    -0.090 A 
ATOM     27  S   LIG    1       -0.270   5.772  -2.200  0.00  0.00    +0.240 S 
ENDBRANCH   8  23
TORSDOF 2
