REMARK  Name = ZINCqH0000006Grn.0
REMARK                            x       y       z     vdW  Elec       q    Type
REMARK                         _______ _______ _______ _____ _____    ______ ____
ROOT
ATOM      1  C   LIG    1        7.080  -5.379  -1.042  0.00  0.00    +0.560 C 
ATOM      2  N   LIG    1        6.154  -4.407  -1.155  0.00  0.00    -0.610 N 
ATOM      3  C   LIG    1        5.029  -4.549  -2.090  0.00  0.00    +0.290 C 
ATOM      4  C   LIG    1        4.989  -3.320  -3.003  0.00  0.00    +0.030 C 
ATOM      5  C   LIG    1        4.937  -2.053  -2.146  0.00  0.00    +0.100 C 
ATOM      6  C   LIG    1        6.195  -1.970  -1.279  0.00  0.00    +0.020 C 
ATOM      7  C   LIG    1        6.250  -3.184  -0.346  0.00  0.00    +0.280 C 
ATOM      8  O   LIG    1        6.952  -6.416  -1.665  0.00  0.00    -0.520 OA
ENDROOT
BRANCH   5   9
ATOM      9  C   LIG    1        4.862  -0.843  -3.041  0.00  0.00    +0.290 A 
ATOM     10  N   LIG    1        3.763  -0.243  -3.393  0.00  0.00    -0.490 NA
ATOM     11  C   LIG    1        4.055   0.808  -4.201  0.00  0.00    +0.050 A 
ATOM     12  C   LIG    1        3.277   1.771  -4.849  0.00  0.00    +0.070 A 
ATOM     13  C   LIG    1        3.879   2.730  -5.614  0.00  0.00    +0.000 A 
ATOM     14  C   LIG    1        5.259   2.760  -5.755  0.00  0.00    +0.030 A 
ATOM     15  C   LIG    1        6.046   1.820  -5.125  0.00  0.00    +0.010 A 
ATOM     16  C   LIG    1        5.453   0.839  -4.343  0.00  0.00    +0.050 A 
ATOM     17  N   LIG    1        5.935  -0.219  -3.597  0.00  0.00    -0.600 N 
ATOM     18  H   LIG    1        6.866  -0.470  -3.491  0.00  0.00    +0.420 HD
ENDBRANCH   5   9
BRANCH   1  21
ATOM     19  C   LIG    1       10.629  -5.236   0.183  0.00  0.00    +0.100 A 
ATOM     20  C   LIG    1        9.538  -5.423  -0.645  0.00  0.00    +0.020 A 
ATOM     21  C   LIG    1        8.249  -5.187  -0.161  0.00  0.00    -0.100 A 
ATOM     22  C   LIG    1        8.070  -4.773   1.160  0.00  0.00    +0.040 A 
ATOM     23  C   LIG    1        9.164  -4.593   1.981  0.00  0.00    +0.030 A 
ATOM     24  C   LIG    1       10.442  -4.823   1.498  0.00  0.00    +0.090 A 
ATOM     25  F   LIG    1       11.509  -4.646   2.307  0.00  0.00    -0.120 F 
BRANCH  19  27
ATOM     26  C   LIG    1       12.004  -5.882  -1.647  0.00  0.00    +0.250 C 
ATOM     27  O   LIG    1       11.885  -5.460  -0.287  0.00  0.00    -0.310 OA
ENDBRANCH  19  27
ENDBRANCH   1  21
TORSDOF 3
