REMARK  Name = ZINCrD000000Btcn.0
REMARK                            x       y       z     vdW  Elec       q    Type
REMARK                         _______ _______ _______ _____ _____    ______ ____
ROOT
ATOM      1  O   LIG    1        2.777   1.073  -0.815  0.00  0.00    -0.520 OA
ATOM      2  C   LIG    1        1.827   1.737  -0.442  0.00  0.00    +0.590 C 
ATOM      3  N   LIG    1        0.635   1.147  -0.226  0.00  0.00    -0.700 N 
ATOM      4  H   LIG    1       -0.122   1.677   0.068  0.00  0.00    +0.400 HD
ENDROOT
BRANCH   2   5
ATOM      5  C   LIG    1        1.980   3.175  -0.230  0.00  0.00    -0.280 A 
ATOM      6  C   LIG    1        3.138   3.889  -0.416  0.00  0.00    +0.190 A 
ATOM      7  C   LIG    1        2.993   5.234  -0.139  0.00  0.00    +0.000 A 
ATOM      8  C   LIG    1        1.771   5.603   0.255  0.00  0.00    -0.040 A 
ATOM      9  S   LIG    1        0.709   4.269   0.297  0.00  0.00    +0.240 S 
BRANCH   6  10
ATOM     10  N   LIG    1        4.340   3.314  -0.841  0.00  0.00    -0.390 N 
ATOM     11  C   LIG    1        4.930   2.208  -0.298  0.00  0.00    +0.210 A 
ATOM     12  C   LIG    1        6.068   1.961  -0.977  0.00  0.00    -0.070 A 
ATOM     13  C   LIG    1        6.192   2.954  -1.970  0.00  0.00    -0.040 A 
ATOM     14  C   LIG    1        5.122   3.768  -1.865  0.00  0.00    +0.140 A 
ENDBRANCH   6  10
ENDBRANCH   2   5
BRANCH   3  15
ATOM     15  C   LIG    1        0.482  -0.294  -0.439  0.00  0.00    +0.330 C 
BRANCH  15  16
ATOM     16  C   LIG    1       -0.936  -0.700  -0.128  0.00  0.00    -0.090 A 
ATOM     17  C   LIG    1       -1.239  -1.274   1.092  0.00  0.00    +0.030 A 
ATOM     18  C   LIG    1       -2.541  -1.641   1.379  0.00  0.00    +0.010 A 
ATOM     19  C   LIG    1       -3.537  -1.445   0.441  0.00  0.00    +0.010 A 
ATOM     20  C   LIG    1       -3.233  -0.876  -0.782  0.00  0.00    +0.000 A 
ATOM     21  C   LIG    1       -1.932  -0.504  -1.067  0.00  0.00    -0.060 A 
BRANCH  21  22
ATOM     22  C   LIG    1       -1.601   0.116  -2.399  0.00  0.00    +0.230 C 
BRANCH  22  23
ATOM     23  N   LIG    1       -1.437   1.567  -2.237  0.00  0.00    -0.530 NA
ATOM     24  C   LIG    1       -2.732   2.220  -1.998  0.00  0.00    +0.150 C 
ATOM     25  C   LIG    1       -2.509   3.718  -1.776  0.00  0.00    +0.220 C 
ATOM     26  O   LIG    1       -1.827   4.267  -2.907  0.00  0.00    -0.380 OA
ATOM     27  C   LIG    1       -0.562   3.654  -3.169  0.00  0.00    +0.220 C 
ATOM     28  C   LIG    1       -0.765   2.155  -3.405  0.00  0.00    +0.150 C 
ENDBRANCH  22  23
ENDBRANCH  21  22
ENDBRANCH  15  16
ENDBRANCH   3  15
TORSDOF 6
