REMARK  Name = ZINCrH000004vAWm.0
REMARK                            x       y       z     vdW  Elec       q    Type
REMARK                         _______ _______ _______ _____ _____    ______ ____
ROOT
ATOM      1  O   LIG    1       -3.455   2.105   5.720  0.00  0.00    -0.520 OA
ATOM      2  C   LIG    1       -2.608   2.835   5.244  0.00  0.00    +0.560 C 
ATOM      3  N   LIG    1       -2.262   3.971   5.881  0.00  0.00    -0.600 N 
ATOM      4  C   LIG    1       -1.331   4.923   5.261  0.00  0.00    +0.260 C 
ATOM      5  C   LIG    1       -1.990   6.311   5.243  0.00  0.00    +0.020 C 
ATOM      6  C   LIG    1       -2.417   6.684   6.665  0.00  0.00    +0.000 C 
ATOM      7  C   LIG    1       -3.443   5.670   7.175  0.00  0.00    +0.020 C 
ATOM      8  C   LIG    1       -2.804   4.278   7.212  0.00  0.00    +0.280 C 
ENDROOT
BRANCH   2   9
ATOM      9  C   LIG    1       -1.957   2.476   3.966  0.00  0.00    -0.060 A 
ATOM     10  C   LIG    1       -2.714   1.954   2.916  0.00  0.00    +0.060 A 
ATOM     11  C   LIG    1       -2.100   1.622   1.725  0.00  0.00    +0.140 A 
ATOM     12  C   LIG    1       -0.737   1.806   1.571  0.00  0.00    -0.640 A 
ATOM     13  C   LIG    1        0.020   2.318   2.610  0.00  0.00    +0.130 A 
ATOM     14  C   LIG    1       -0.583   2.659   3.804  0.00  0.00    +0.030 A 
BRANCH  12  15
ATOM     15  S   LIG    1        0.039   1.379   0.048  0.00  0.00    +2.480 S 
ATOM     16  O   LIG    1        1.384   1.095   0.408  0.00  0.00    -0.880 OA
ATOM     17  O   LIG    1       -0.800   0.373  -0.502  0.00  0.00    -0.880 OA
BRANCH  15  18
ATOM     18  C   LIG    1       -0.049   2.894  -0.945  0.00  0.00    -0.050 C 
ATOM     19  F   LIG    1        0.629   3.925  -0.284  0.00  0.00    -0.160 F 
ATOM     20  F   LIG    1       -1.388   3.257  -1.125  0.00  0.00    -0.160 F 
ENDBRANCH  15  18
ENDBRANCH  12  15
ENDBRANCH   2   9
BRANCH   6  21
ATOM     21  C   LIG    1       -3.040   8.081   6.659  0.00  0.00    +0.070 C 
BRANCH  21  22
ATOM     22  C   LIG    1       -1.995   9.096   6.275  0.00  0.00    -0.080 A 
ATOM     23  C   LIG    1       -1.227   9.701   7.253  0.00  0.00    +0.000 A 
ATOM     24  C   LIG    1       -0.264  10.629   6.900  0.00  0.00    +0.000 A 
ATOM     25  C   LIG    1       -0.077  10.959   5.571  0.00  0.00    +0.000 A 
ATOM     26  C   LIG    1       -0.849  10.358   4.594  0.00  0.00    +0.000 A 
ATOM     27  C   LIG    1       -1.808   9.427   4.946  0.00  0.00    +0.000 A 
ENDBRANCH  21  22
ENDBRANCH   6  21
TORSDOF 5
