REMARK  Name = ZINCvU0000000JEF.0
REMARK                            x       y       z     vdW  Elec       q    Type
REMARK                         _______ _______ _______ _____ _____    ______ ____
ROOT
ATOM      1  O   LIG    1        0.002  -0.004   0.002  0.00  0.00    -0.500 OA
ATOM      2  C   LIG    1       -0.014   1.213   0.009  0.00  0.00    +0.620 C 
ATOM      3  N   LIG    1        1.143   1.902   0.001  0.00  0.00    -0.610 N 
ATOM      4  C   LIG    1        1.269   3.371   0.009  0.00  0.00    +0.260 C 
ATOM      5  C   LIG    1        2.670   3.647   0.610  0.00  0.00    +0.040 C 
ATOM      6  C   LIG    1        3.500   2.482   0.010  0.00  0.00    +0.050 C 
ATOM      7  C   LIG    1        2.491   1.314  -0.009  0.00  0.00    +0.270 C 
ENDROOT
BRANCH   7   8
ATOM      8  C   LIG    1        2.683   0.495  -1.259  0.00  0.00    -0.090 A 
ATOM      9  C   LIG    1        2.157   0.933  -2.459  0.00  0.00    +0.030 A 
ATOM     10  C   LIG    1        2.335   0.186  -3.608  0.00  0.00    +0.020 A 
ATOM     11  C   LIG    1        3.032  -1.011  -3.558  0.00  0.00    +0.050 A 
ATOM     12  O   LIG    1        3.191  -1.741  -4.696  0.00  0.00    -0.310 OA
ATOM     13  C   LIG    1        4.213  -2.744  -4.680  0.00  0.00    +0.220 C 
ATOM     14  C   LIG    1        4.088  -3.535  -3.371  0.00  0.00    +0.220 C 
ATOM     15  O   LIG    1        4.250  -2.624  -2.279  0.00  0.00    -0.310 OA
ATOM     16  C   LIG    1        3.558  -1.454  -2.350  0.00  0.00    +0.050 A 
ATOM     17  C   LIG    1        3.381  -0.698  -1.201  0.00  0.00    +0.040 A 
ENDBRANCH   7   8
BRANCH   2  18
ATOM     18  C   LIG    1       -1.295   1.929   0.019  0.00  0.00    -0.050 A 
ATOM     19  C   LIG    1       -2.544   1.348   0.021  0.00  0.00    +0.050 A 
ATOM     20  C   LIG    1       -3.476   2.390   0.032  0.00  0.00    +0.040 A 
ATOM     21  C   LIG    1       -2.761   3.567   0.035  0.00  0.00    +0.050 A 
ATOM     22  O   LIG    1       -1.450   3.268   0.033  0.00  0.00    -0.150 OA
BRANCH  21  23
ATOM     23  C   LIG    1       -3.334   4.922   0.046  0.00  0.00    +0.180 A 
ATOM     24  N   LIG    1       -4.599   5.190   0.048  0.00  0.00    -0.440 NA
ATOM     25  C   LIG    1       -4.971   6.474   0.062  0.00  0.00    +0.090 A 
ATOM     26  C   LIG    1       -6.275   7.017   0.069  0.00  0.00    +0.080 A 
ATOM     27  C   LIG    1       -6.463   8.365   0.076  0.00  0.00    +0.030 A 
ATOM     28  C   LIG    1       -5.380   9.234   0.076  0.00  0.00    +0.050 A 
ATOM     29  C   LIG    1       -4.097   8.735   0.069  0.00  0.00    +0.060 A 
ATOM     30  C   LIG    1       -3.883   7.358   0.062  0.00  0.00    -0.170 A 
ATOM     31  S   LIG    1       -2.398   6.410   0.050  0.00  0.00    +0.100 S 
ENDBRANCH  21  23
ENDBRANCH   2  18
TORSDOF 3
