REMARK  Name = ZINCqH0000008AsN.0
REMARK                            x       y       z     vdW  Elec       q    Type
REMARK                         _______ _______ _______ _____ _____    ______ ____
ROOT
ATOM      1  C   LIG    1       -0.580  -2.324  -0.005  0.00  0.00    -0.240 A 
ATOM      2  C   LIG    1        0.790  -2.621  -0.020  0.00  0.00    +0.370 A 
ATOM      3  N   LIG    1        1.695  -1.671  -0.023  0.00  0.00    -0.500 NA
ATOM      4  C   LIG    1        1.361  -0.385  -0.013  0.00  0.00    +0.340 A 
ATOM      5  C   LIG    1        0.002  -0.004   0.002  0.00  0.00    -0.240 A 
ATOM      6  C   LIG    1       -0.018   1.456   0.010  0.00  0.00    +0.310 A 
ATOM      7  N   LIG    1        1.218   1.866   0.001  0.00  0.00    -0.230 NA
ATOM      8  N   LIG    1        2.088   0.772  -0.014  0.00  0.00    -0.380 N 
ATOM      9  C   LIG    1       -0.987  -0.990   0.007  0.00  0.00    +0.230 A 
ENDROOT
BRANCH   1  12
ATOM     10  N   LIG    1       -1.178  -4.697  -0.012  0.00  0.00    -0.720 N 
ATOM     11  H   LIG    1       -0.232  -4.909  -0.022  0.00  0.00    +0.400 HD
ATOM     12  C   LIG    1       -1.580  -3.411  -0.001  0.00  0.00    +0.570 C 
ATOM     13  O   LIG    1       -2.767  -3.145   0.012  0.00  0.00    -0.530 OA
BRANCH  10  20
ATOM     14  C   LIG    1       -1.136  -6.735  -2.070  0.00  0.00    +0.030 C 
ATOM     15  C   LIG    1       -1.560  -7.032  -0.630  0.00  0.00    -0.020 C 
ATOM     16  C   LIG    1       -2.596  -8.158  -0.626  0.00  0.00    +0.030 C 
ATOM     17  C   LIG    1       -3.021  -8.456   0.813  0.00  0.00    +0.000 C 
ATOM     18  C   LIG    1       -3.631  -7.198   1.435  0.00  0.00    +0.010 C 
ATOM     19  C   LIG    1       -2.595  -6.073   1.431  0.00  0.00    +0.000 C 
ATOM     20  C   LIG    1       -2.171  -5.775  -0.008  0.00  0.00    +0.240 C 
ENDBRANCH  10  20
ENDBRANCH   1  12
BRANCH   8  21
ATOM     21  C   LIG    1        3.551   0.853  -0.027  0.00  0.00    +0.400 C 
BRANCH  21  22
ATOM     22  C   LIG    1        4.039   0.888  -1.452  0.00  0.00    -0.120 A 
ATOM     23  C   LIG    1        4.335  -0.291  -2.111  0.00  0.00    +0.040 A 
ATOM     24  C   LIG    1        4.778  -0.259  -3.420  0.00  0.00    +0.000 A 
ATOM     25  C   LIG    1        4.936   0.953  -4.066  0.00  0.00    +0.010 A 
ATOM     26  C   LIG    1        4.646   2.132  -3.406  0.00  0.00    +0.010 A 
ATOM     27  C   LIG    1        4.197   2.099  -2.099  0.00  0.00    +0.030 A 
ENDBRANCH  21  22
ENDBRANCH   8  21
TORSDOF 4
