REMARK  Name = ZINCrD000000AmaY.1
REMARK                            x       y       z     vdW  Elec       q    Type
REMARK                         _______ _______ _______ _____ _____    ______ ____
ROOT
ATOM      1  N   LIG    1        6.273  -0.453   3.246  0.00  0.00    -0.520 NA
ATOM      2  C   LIG    1        5.925  -1.877   3.142  0.00  0.00    +0.190 C 
ATOM      3  C   LIG    1        5.236  -2.134   1.799  0.00  0.00    +0.190 C 
ATOM      4  N   LIG    1        4.035  -1.292   1.699  0.00  0.00    -0.530 NA
ATOM      5  C   LIG    1        4.384   0.132   1.804  0.00  0.00    +0.180 C 
ATOM      6  C   LIG    1        5.072   0.388   3.146  0.00  0.00    +0.180 C 
ENDROOT
BRANCH   1   7
ATOM      7  C   LIG    1        7.005  -0.180   4.491  0.00  0.00    +0.210 C 
BRANCH   7   9
ATOM      8  O   LIG    1        8.699  -1.444   3.441  0.00  0.00    -0.520 OA
ATOM      9  C   LIG    1        8.340  -0.878   4.451  0.00  0.00    +0.510 C 
ATOM     10  N   LIG    1        9.136  -0.871   5.539  0.00  0.00    -0.730 N 
ATOM     11  H   LIG    1        8.849  -0.418   6.347  0.00  0.00    +0.400 HD
BRANCH  10  12
ATOM     12  C   LIG    1       10.434  -1.549   5.501  0.00  0.00    +0.370 C 
BRANCH  12  13
ATOM     13  C   LIG    1       11.121  -1.394   6.833  0.00  0.00    -0.210 A 
ATOM     14  C   LIG    1       11.002  -2.235   7.862  0.00  0.00    +0.030 A 
ATOM     15  C   LIG    1       11.729  -1.887   8.987  0.00  0.00    +0.000 A 
ATOM     16  C   LIG    1       12.440  -0.764   8.872  0.00  0.00    -0.030 A 
ATOM     17  S   LIG    1       12.208  -0.082   7.267  0.00  0.00    +0.120 S 
ENDBRANCH  12  13
ENDBRANCH  10  12
ENDBRANCH   7   9
ENDBRANCH   1   7
BRANCH   4  18
ATOM     18  C   LIG    1        3.304  -1.565   0.454  0.00  0.00    +0.230 C 
BRANCH  18  19
ATOM     19  C   LIG    1        1.912  -0.995   0.555  0.00  0.00    -0.060 A 
ATOM     20  C   LIG    1        1.581   0.128  -0.138  0.00  0.00    +0.010 A 
ATOM     21  C   LIG    1        0.299   0.669  -0.058  0.00  0.00    +0.000 A 
ATOM     22  C   LIG    1       -0.659   0.090   0.715  0.00  0.00    +0.020 A 
ATOM     23  C   LIG    1       -0.355  -1.072   1.446  0.00  0.00    -0.050 A 
ATOM     24  C   LIG    1       -1.318  -1.699   2.254  0.00  0.00    +0.010 A 
ATOM     25  C   LIG    1       -0.987  -2.824   2.946  0.00  0.00    +0.010 A 
ATOM     26  C   LIG    1        0.294  -3.364   2.866  0.00  0.00    +0.000 A 
ATOM     27  C   LIG    1        1.253  -2.784   2.093  0.00  0.00    +0.040 A 
ATOM     28  C   LIG    1        0.949  -1.622   1.364  0.00  0.00    -0.030 A 
ENDBRANCH  18  19
ENDBRANCH   4  18
TORSDOF 6
