REMARK  Name = ZINCb70000006lv9.1
REMARK                            x       y       z     vdW  Elec       q    Type
REMARK                         _______ _______ _______ _____ _____    ______ ____
ROOT
ATOM      1  C   LIG    1        3.292   2.810  -0.014  0.00  0.00    +0.680 C 
ATOM      2  N   LIG    1        2.849   4.061  -0.003  0.00  0.00    -0.580 NA
ATOM      3  C   LIG    1        1.548   4.332   0.011  0.00  0.00    +0.560 C 
ATOM      4  C   LIG    1        0.640   3.268   0.013  0.00  0.00    -0.080 C 
ATOM      5  N   LIG    1       -0.735   3.173   0.026  0.00  0.00    -0.540 N 
ATOM      6  H   LIG    1       -1.346   3.926   0.035  0.00  0.00    +0.440 HD
ATOM      7  C   LIG    1       -1.106   1.861   0.017  0.00  0.00    +0.340 C 
ATOM      8  C   LIG    1       -0.013   1.076   0.008  0.00  0.00    -0.020 C 
ATOM      9  C   LIG    1        1.149   1.959   0.002  0.00  0.00    +0.150 C 
ATOM     10  N   LIG    1        2.472   1.774  -0.012  0.00  0.00    -0.550 NA
ATOM     11  H   LIG    1        2.833   0.873  -0.020  0.00  0.00    +0.440 HD
ENDROOT
BRANCH   1  12
ATOM     12  N   LIG    1        4.660   2.583  -0.029  0.00  0.00    -0.790 NA
ATOM     13  H   LIG    1        5.276   3.333  -0.031  0.00  0.00    +0.440 HD
ATOM     14  H   LIG    1        5.001   1.675  -0.037  0.00  0.00    +0.430 HD
ENDBRANCH   1  12
BRANCH   3  15
ATOM     15  N   LIG    1        1.100   5.644   0.022  0.00  0.00    -0.790 NA
ATOM     16  H   LIG    1        0.149   5.831   0.032  0.00  0.00    +0.430 HD
ATOM     17  H   LIG    1        1.738   6.374   0.021  0.00  0.00    +0.430 HD
ENDBRANCH   3  15
TORSDOF 2
