REMARK  Name = ZINCvU0000000GNM.0
REMARK                            x       y       z     vdW  Elec       q    Type
REMARK                         _______ _______ _______ _____ _____    ______ ____
ROOT
ATOM      1  C   LIG    1       -1.212   1.740   0.010  0.00  0.00    +0.150 A 
ATOM      2  C   LIG    1       -1.228   3.130   0.113  0.00  0.00    +0.010 A 
ATOM      3  C   LIG    1       -0.057   3.834   0.103  0.00  0.00    +0.140 A 
ATOM      4  C   LIG    1        1.156   3.155  -0.005  0.00  0.00    -0.220 A 
ATOM      5  C   LIG    1        2.444   3.876  -0.006  0.00  0.00    +0.430 A 
ATOM      6  C   LIG    1        3.648   3.041   0.170  0.00  0.00    -0.240 A 
ATOM      7  C   LIG    1        3.514   1.694   0.051  0.00  0.00    +0.150 A 
ATOM      8  O   LIG    1        2.356   1.099  -0.233  0.00  0.00    -0.210 OA
ATOM      9  C   LIG    1        4.734   0.832   0.249  0.00  0.00    +0.180 C 
ATOM     10  O   LIG    1        2.509   5.085  -0.143  0.00  0.00    -0.450 OA
ATOM     11  C   LIG    1        1.185   1.753  -0.111  0.00  0.00    +0.160 A 
ATOM     12  C   LIG    1       -0.015   1.053  -0.096  0.00  0.00    +0.000 A 
ENDROOT
BRANCH   6  13
ATOM     13  C   LIG    1        4.965   3.654   0.468  0.00  0.00    -0.060 A 
ATOM     14  C   LIG    1        5.588   3.410   1.691  0.00  0.00    +0.060 A 
ATOM     15  C   LIG    1        6.816   3.977   1.963  0.00  0.00    -0.080 A 
ATOM     16  C   LIG    1        7.425   4.800   1.025  0.00  0.00    +0.130 A 
ATOM     17  C   LIG    1        6.804   5.049  -0.191  0.00  0.00    -0.020 A 
ATOM     18  C   LIG    1        5.580   4.480  -0.472  0.00  0.00    +0.080 A 
BRANCH  16  19
ATOM     19  O   LIG    1        8.632   5.362   1.299  0.00  0.00    -0.320 OA
ATOM     20  C   LIG    1        9.213   5.063   2.569  0.00  0.00    +0.250 C 
ENDBRANCH  16  19
ENDBRANCH   6  13
BRANCH   1  21
ATOM     21  O   LIG    1       -2.383   1.053   0.020  0.00  0.00    -0.290 OA
BRANCH  21  22
ATOM     22  C   LIG    1       -2.640   0.297   1.106  0.00  0.00    +0.510 C 
ATOM     23  O   LIG    1       -1.893   0.335   2.063  0.00  0.00    -0.480 OA
BRANCH  22  27
ATOM     24  C   LIG    1       -6.063  -2.214   1.182  0.00  0.00    +0.170 A 
ATOM     25  C   LIG    1       -5.208  -2.173   2.278  0.00  0.00    -0.020 A 
ATOM     26  C   LIG    1       -4.097  -1.360   2.257  0.00  0.00    +0.140 A 
ATOM     27  C   LIG    1       -3.829  -0.575   1.132  0.00  0.00    -0.170 A 
ATOM     28  C   LIG    1       -4.693  -0.616   0.034  0.00  0.00    +0.120 A 
ATOM     29  C   LIG    1       -5.800  -1.435   0.061  0.00  0.00    -0.080 A 
BRANCH  24  31
ATOM     30  C   LIG    1       -7.992  -3.010   0.047  0.00  0.00    +0.250 C 
ATOM     31  O   LIG    1       -7.157  -3.016   1.207  0.00  0.00    -0.310 OA
ENDBRANCH  24  31
ENDBRANCH  22  27
ENDBRANCH  21  22
ENDBRANCH   1  21
TORSDOF 6
