REMARK  Name = ZINCrD000000BKij.0
REMARK                            x       y       z     vdW  Elec       q    Type
REMARK                         _______ _______ _______ _____ _____    ______ ____
ROOT
ATOM      1  O   LIG    1        4.602   1.121   1.257  0.00  0.00    -0.580 OA
ATOM      2  C   LIG    1        3.655   1.595   0.658  0.00  0.00    +0.710 C 
ATOM      3  N   LIG    1        3.578   1.477  -0.682  0.00  0.00    -0.740 N 
ATOM      4  H   LIG    1        2.789   1.791  -1.152  0.00  0.00    +0.400 HD
ATOM      5  N   LIG    1        2.683   2.238   1.336  0.00  0.00    -0.730 N 
ATOM      6  H   LIG    1        1.928   2.616   0.858  0.00  0.00    +0.400 HD
ENDROOT
BRANCH   5   7
ATOM      7  C   LIG    1        2.767   2.366   2.792  0.00  0.00    +0.300 C 
ATOM      8  C   LIG    1        2.094   1.162   3.493  0.00  0.00    +0.240 C 
ATOM      9  O   LIG    1        0.752   1.632   3.711  0.00  0.00    -0.300 OA
ATOM     10  C   LIG    1        0.763   2.988   3.821  0.00  0.00    +0.120 A 
ATOM     11  C   LIG    1       -0.191   3.848   4.360  0.00  0.00    -0.010 A 
ATOM     12  C   LIG    1        0.019   5.212   4.351  0.00  0.00    +0.060 A 
ATOM     13  C   LIG    1        1.177   5.737   3.807  0.00  0.00    -0.020 A 
ATOM     14  C   LIG    1        2.131   4.889   3.273  0.00  0.00    +0.080 A 
ATOM     15  C   LIG    1        1.925   3.527   3.284  0.00  0.00    -0.200 A 
ENDBRANCH   5   7
BRANCH   3  16
ATOM     16  C   LIG    1        4.684   0.875  -1.429  0.00  0.00    +0.210 C 
ATOM     17  C   LIG    1        4.348   0.866  -2.924  0.00  0.00    +0.010 C 
ATOM     18  C   LIG    1        3.115  -0.010  -3.157  0.00  0.00    +0.210 C 
ATOM     19  O   LIG    1        3.369  -1.328  -2.667  0.00  0.00    -0.380 OA
ATOM     20  C   LIG    1        3.643  -1.387  -1.266  0.00  0.00    +0.200 C 
ATOM     21  C   LIG    1        4.897  -0.567  -0.957  0.00  0.00    +0.010 C 
BRANCH  16  22
ATOM     22  C   LIG    1        5.961   1.685  -1.194  0.00  0.00    +0.090 C 
BRANCH  22  23
ATOM     23  C   LIG    1        5.713   3.128  -1.549  0.00  0.00    -0.040 A 
ATOM     24  C   LIG    1        5.949   3.574  -2.836  0.00  0.00    +0.000 A 
ATOM     25  C   LIG    1        5.717   4.897  -3.164  0.00  0.00    +0.040 A 
ATOM     26  C   LIG    1        5.259   5.777  -2.203  0.00  0.00    -0.030 A 
ATOM     27  C   LIG    1        5.027   5.333  -0.912  0.00  0.00    +0.100 A 
ATOM     28  F   LIG    1        4.578   6.193   0.029  0.00  0.00    -0.140 F 
ATOM     29  C   LIG    1        5.254   4.007  -0.586  0.00  0.00    -0.010 A 
ENDBRANCH  22  23
ENDBRANCH  16  22
ENDBRANCH   3  16
TORSDOF 4
