REMARK  Name = ZINCpk000000nudh.0
REMARK                            x       y       z     vdW  Elec       q    Type
REMARK                         _______ _______ _______ _____ _____    ______ ____
ROOT
ATOM      1  C   LIG    1       -2.705   2.273  -2.630  0.00  0.00    +0.240 C 
ATOM      2  C   LIG    1       -4.184   1.826  -2.675  0.00  0.00    +0.170 C 
ATOM      3  S   LIG    1       -4.515   1.490  -0.894  0.00  0.00    -0.240 S 
ATOM      4  C   LIG    1       -2.791   0.934  -0.551  0.00  0.00    +0.370 C 
ATOM      5  N   LIG    1       -1.994   1.783  -1.458  0.00  0.00    -0.600 N 
ATOM      6  C   LIG    1       -0.701   2.079  -1.221  0.00  0.00    +0.550 C 
ATOM      7  O   LIG    1       -0.086   2.777  -1.999  0.00  0.00    -0.500 OA
ENDROOT
BRANCH   6   8
ATOM      8  C   LIG    1       -0.019   1.542   0.011  0.00  0.00    +0.000 C 
ATOM      9  C   LIG    1        0.002  -0.004   0.002  0.00  0.00    +0.070 C 
ATOM     10  C   LIG    1        1.344  -0.360   0.603  0.00  0.00    +0.520 C 
ATOM     11  N   LIG    1        2.154   0.712   0.592  0.00  0.00    -0.610 N 
ATOM     12  O   LIG    1        1.645  -1.454   1.030  0.00  0.00    -0.520 OA
ATOM     13  C   LIG    1        1.489   1.878  -0.002  0.00  0.00    +0.300 C 
BRANCH  11  14
ATOM     14  C   LIG    1        3.525   0.718   1.109  0.00  0.00    +0.240 C 
ATOM     15  C   LIG    1        4.369  -0.349   0.380  0.00  0.00    +0.010 C 
ATOM     16  C   LIG    1        5.296  -0.917   1.483  0.00  0.00    +0.020 C 
ATOM     17  C   LIG    1        4.373  -0.947   2.726  0.00  0.00    +0.010 C 
ATOM     18  C   LIG    1        3.528   0.338   2.600  0.00  0.00    +0.010 C 
ENDBRANCH  11  14
ENDBRANCH   6   8
BRANCH   1  21
ATOM     19  N   LIG    1       -2.481   2.087  -5.086  0.00  0.00    -0.730 N 
ATOM     20  H   LIG    1       -3.271   2.645  -5.169  0.00  0.00    +0.400 HD
ATOM     21  C   LIG    1       -2.008   1.766  -3.866  0.00  0.00    +0.510 C 
ATOM     22  O   LIG    1       -1.020   1.069  -3.763  0.00  0.00    -0.510 OA
BRANCH  19  23
ATOM     23  C   LIG    1       -1.803   1.595  -6.288  0.00  0.00    +0.260 C 
BRANCH  23  25
ATOM     24  C   LIG    1       -2.430   3.625  -7.602  0.00  0.00    +0.020 C 
ATOM     25  C   LIG    1       -2.538   2.100  -7.531  0.00  0.00    -0.030 C 
ATOM     26  C   LIG    1       -1.906   1.486  -8.782  0.00  0.00    +0.030 C 
ENDBRANCH  23  25
ENDBRANCH  19  23
ENDBRANCH   1  21
TORSDOF 5
