REMARK  Name = ZINCvU0000000HXS.0
REMARK                            x       y       z     vdW  Elec       q    Type
REMARK                         _______ _______ _______ _____ _____    ______ ____
ROOT
ATOM      1  C   LIG    1       -7.003  -0.337   4.596  0.00  0.00    +0.240 C 
ENDROOT
BRANCH   1   2
ATOM      2  C   LIG    1       -6.926  -1.827   4.805  0.00  0.00    -0.120 A 
ATOM      3  C   LIG    1       -6.979  -2.682   3.719  0.00  0.00    +0.040 A 
ATOM      4  C   LIG    1       -6.904  -4.048   3.911  0.00  0.00    +0.010 A 
ATOM      5  C   LIG    1       -6.785  -4.562   5.189  0.00  0.00    +0.020 A 
ATOM      6  C   LIG    1       -6.737  -3.708   6.275  0.00  0.00    +0.010 A 
ATOM      7  C   LIG    1       -6.808  -2.341   6.083  0.00  0.00    +0.030 A 
ENDBRANCH   1   2
BRANCH   1  10
ATOM      8  N   LIG    1       -9.252  -0.050   5.583  0.00  0.00    -0.660 N 
ATOM      9  H   LIG    1       -8.926  -0.490   6.383  0.00  0.00    +0.410 HD
ATOM     10  C   LIG    1       -8.447   0.085   4.510  0.00  0.00    +0.520 C 
ATOM     11  O   LIG    1       -8.884   0.544   3.477  0.00  0.00    -0.490 OA
BRANCH   8  17
ATOM     12  C   LIG    1      -12.529   3.093   3.696  0.00  0.00    +0.090 C 
ATOM     13  C   LIG    1      -12.176   1.970   4.637  0.00  0.00    -0.070 A 
ATOM     14  C   LIG    1      -13.146   1.429   5.461  0.00  0.00    -0.010 A 
ATOM     15  C   LIG    1      -12.826   0.397   6.325  0.00  0.00    +0.030 A 
ATOM     16  C   LIG    1      -11.536  -0.095   6.368  0.00  0.00    -0.120 A 
ATOM     17  C   LIG    1      -10.560   0.447   5.542  0.00  0.00    +0.150 A 
ATOM     18  C   LIG    1      -11.188  -1.218   7.311  0.00  0.00    +0.080 C 
ATOM     19  C   LIG    1      -10.883   1.486   4.679  0.00  0.00    +0.010 A 
ENDBRANCH   8  17
ENDBRANCH   1  10
BRANCH   1  20
ATOM     20  O   LIG    1       -6.322   0.014   3.362  0.00  0.00    -0.320 OA
BRANCH  20  21
ATOM     21  C   LIG    1       -5.008   0.300   3.448  0.00  0.00    +0.510 C 
ATOM     22  O   LIG    1       -4.446   0.257   4.524  0.00  0.00    -0.500 OA
BRANCH  21  23
ATOM     23  C   LIG    1       -4.252   0.665   2.235  0.00  0.00    -0.130 A 
ATOM     24  C   LIG    1       -4.899   0.715   0.996  0.00  0.00    +0.080 A 
ATOM     25  C   LIG    1       -4.191   1.055  -0.135  0.00  0.00    +0.020 A 
ATOM     26  C   LIG    1       -2.831   1.349  -0.037  0.00  0.00    -0.010 A 
ATOM     27  C   LIG    1       -2.050   1.716  -1.236  0.00  0.00    -0.010 C 
ATOM     28  C   LIG    1       -0.728   1.621  -1.208  0.00  0.00    +0.000 C 
ATOM     29  C   LIG    1       -0.011   1.137   0.022  0.00  0.00    +0.060 C 
ATOM     30  C   LIG    1       -0.720   1.623   1.285  0.00  0.00    +0.080 C 
ATOM     31  C   LIG    1       -2.188   1.300   1.204  0.00  0.00    -0.090 A 
ATOM     32  C   LIG    1       -2.888   0.962   2.325  0.00  0.00    +0.090 A 
ENDBRANCH  21  23
ENDBRANCH  20  21
ENDBRANCH   1  20
TORSDOF 6
