REMARK  Name = ZINCpe000000WyNy.0
REMARK                            x       y       z     vdW  Elec       q    Type
REMARK                         _______ _______ _______ _____ _____    ______ ____
ROOT
ATOM      1  C   LIG    1       -2.209   1.800   0.655  0.00  0.00    +0.310 C 
ATOM      2  C   LIG    1       -0.787   1.610   1.239  0.00  0.00    +0.010 C 
ATOM      3  C   LIG    1       -0.013   1.086   0.008  0.00  0.00    +0.070 C 
ATOM      4  C   LIG    1       -0.793   1.611  -1.176  0.00  0.00    +0.520 C 
ATOM      5  O   LIG    1       -0.377   1.667  -2.314  0.00  0.00    -0.520 OA
ATOM      6  N   LIG    1       -2.016   2.009  -0.784  0.00  0.00    -0.580 N 
ENDROOT
BRANCH   2   7
ATOM      7  C   LIG    1       -0.789   0.590   2.349  0.00  0.00    +0.540 C 
ATOM      8  N   LIG    1        0.374   0.191   2.900  0.00  0.00    -0.400 N 
ATOM      9  C   LIG    1        0.552  -0.784   3.989  0.00  0.00    +0.320 C 
ATOM     10  C   LIG    1        2.048  -0.849   4.202  0.00  0.00    -0.250 C 
ATOM     11  C   LIG    1        2.608  -0.008   3.342  0.00  0.00    +0.420 C 
ATOM     12  N   LIG    1        1.662   0.625   2.557  0.00  0.00    -0.560 N 
ATOM     13  H   LIG    1        1.862   1.277   1.867  0.00  0.00    +0.420 HD
ATOM     14  O   LIG    1       -1.838   0.129   2.747  0.00  0.00    -0.490 OA
BRANCH  11  15
ATOM     15  N   LIG    1        3.977   0.210   3.243  0.00  0.00    -0.870 N 
ATOM     16  H   LIG    1        4.588  -0.268   3.825  0.00  0.00    +0.420 HD
ATOM     17  H   LIG    1        4.322   0.840   2.591  0.00  0.00    +0.400 HD
ENDBRANCH  11  15
ENDBRANCH   2   7
BRANCH   1  22
ATOM     18  C   LIG    1       -4.747  -0.579   2.130  0.00  0.00    +0.130 A 
ATOM     19  C   LIG    1       -4.566  -1.701   1.335  0.00  0.00    -0.080 A 
ATOM     20  C   LIG    1       -3.624  -1.686   0.325  0.00  0.00    +0.040 A 
ATOM     21  C   LIG    1       -2.862  -0.553   0.106  0.00  0.00    -0.040 A 
ATOM     22  C   LIG    1       -3.041   0.567   0.897  0.00  0.00    -0.040 A 
ATOM     23  C   LIG    1       -3.978   0.555   1.911  0.00  0.00    +0.030 A 
BRANCH  18  25
ATOM     24  C   LIG    1       -6.424  -1.795   3.297  0.00  0.00    +0.230 C 
ATOM     25  O   LIG    1       -5.673  -0.592   3.125  0.00  0.00    -0.320 OA
ENDBRANCH  18  25
ENDBRANCH   1  22
BRANCH   6  26
ATOM     26  C   LIG    1       -3.027   2.578  -1.679  0.00  0.00    +0.210 C 
ATOM     27  C   LIG    1       -2.742   2.539  -3.182  0.00  0.00    +0.040 C 
ATOM     28  C   LIG    1       -2.667   3.866  -2.422  0.00  0.00    +0.000 C 
ENDBRANCH   6  26
TORSDOF 5
