REMARK  Name = ZINCpk00000ea7fW.0
REMARK                            x       y       z     vdW  Elec       q    Type
REMARK                         _______ _______ _______ _____ _____    ______ ____
ROOT
ATOM      1  C   LIG    1       -1.452   3.519   3.131  0.00  0.00    -0.120 A 
ATOM      2  C   LIG    1       -0.726   3.136   1.999  0.00  0.00    +0.200 A 
ATOM      3  C   LIG    1       -0.930   1.894   1.440  0.00  0.00    -0.690 A 
ATOM      4  C   LIG    1       -1.844   1.016   1.998  0.00  0.00    +0.170 A 
ATOM      5  C   LIG    1       -2.565   1.376   3.119  0.00  0.00    -0.040 A 
ATOM      6  C   LIG    1       -2.377   2.626   3.695  0.00  0.00    +0.210 A 
ENDROOT
BRANCH   6   7
ATOM      7  N   LIG    1       -3.101   2.991   4.822  0.00  0.00    -0.500 N 
ATOM      8  C   LIG    1       -2.772   2.124   5.963  0.00  0.00    +0.160 C 
ATOM      9  C   LIG    1       -3.546   2.598   7.196  0.00  0.00    +0.240 C 
ATOM     10  O   LIG    1       -4.946   2.599   6.903  0.00  0.00    -0.380 OA
ATOM     11  C   LIG    1       -5.302   3.433   5.798  0.00  0.00    +0.240 C 
ATOM     12  C   LIG    1       -4.546   2.968   4.550  0.00  0.00    +0.160 C 
ENDBRANCH   6   7
BRANCH   3  13
ATOM     13  S   LIG    1       -0.017   1.417   0.010  0.00  0.00    +2.690 S 
ATOM     14  O   LIG    1        1.162   2.210   0.003  0.00  0.00    -0.950 OA
ATOM     15  O   LIG    1        0.002  -0.004   0.002  0.00  0.00    -0.950 OA
BRANCH  13  16
ATOM     16  N   LIG    1       -0.900   1.880  -1.312  0.00  0.00    -1.000 NA
ATOM     17  C   LIG    1       -1.882   0.967  -1.914  0.00  0.00    +0.290 C 
ATOM     18  C   LIG    1       -3.234   1.691  -2.000  0.00  0.00    +0.010 C 
ATOM     19  C   LIG    1       -3.054   3.008  -2.759  0.00  0.00    +0.020 C 
ATOM     20  C   LIG    1       -2.074   3.906  -1.999  0.00  0.00    +0.010 C 
ATOM     21  C   LIG    1       -0.713   3.209  -1.910  0.00  0.00    +0.290 C 
ENDBRANCH  13  16
ENDBRANCH   3  13
BRANCH   1  22
ATOM     22  C   LIG    1       -1.242   4.847   3.732  0.00  0.00    +0.500 C 
ATOM     23  O   LIG    1       -1.871   5.174   4.719  0.00  0.00    -0.460 OA
BRANCH  22  25
ATOM     24  C   LIG    1       -0.198   6.992   3.832  0.00  0.00    +0.260 C 
ATOM     25  O   LIG    1       -0.352   5.700   3.187  0.00  0.00    -0.360 OA
ENDBRANCH  22  25
ENDBRANCH   1  22
TORSDOF 5
