REMARK  Name = ZINCrH00000apYsz.0
REMARK                            x       y       z     vdW  Elec       q    Type
REMARK                         _______ _______ _______ _____ _____    ______ ____
ROOT
ATOM      1  C   LIG    1        2.189  -0.288   0.368  0.00  0.00    +0.050 C 
ATOM      2  C   LIG    1        2.432   1.199   0.102  0.00  0.00    +0.230 C 
ATOM      3  C   LIG    1        3.253   1.795   1.244  0.00  0.00    +0.010 C 
ATOM      4  C   LIG    1        3.373   3.308   1.048  0.00  0.00    +0.240 C 
ATOM      5  C   LIG    1        1.979   3.939   1.072  0.00  0.00    +0.000 C 
ATOM      6  C   LIG    1        1.144   3.368  -0.078  0.00  0.00    +0.280 C 
ATOM      7  N   LIG    1        1.144   1.902   0.021  0.00  0.00    -0.610 N 
ATOM      8  C   LIG    1       -0.015   1.215   0.042  0.00  0.00    +0.530 C 
ATOM      9  O   LIG    1       -0.002   0.002   0.018  0.00  0.00    -0.520 OA
ENDROOT
BRANCH   8  10
ATOM     10  C   LIG    1       -1.328   1.954   0.090  0.00  0.00    -0.010 C 
ATOM     11  C   LIG    1       -1.739   2.388   1.507  0.00  0.00    +0.070 C 
ATOM     12  C   LIG    1       -3.176   1.994   1.127  0.00  0.00    +0.260 C 
ATOM     13  F   LIG    1       -3.871   1.351   2.156  0.00  0.00    -0.190 F 
ATOM     14  F   LIG    1       -3.906   3.035   0.543  0.00  0.00    -0.180 F 
ATOM     15  C   LIG    1       -2.556   1.028   0.104  0.00  0.00    +0.090 C 
ENDBRANCH   8  10
BRANCH   4  16
ATOM     16  N   LIG    1        4.185   3.877   2.126  0.00  0.00    -0.730 N 
ATOM     17  H   LIG    1        4.246   3.421   2.980  0.00  0.00    +0.400 HD
ATOM     18  C   LIG    1        4.847   5.035   1.932  0.00  0.00    +0.520 C 
ATOM     19  O   LIG    1        4.771   5.605   0.864  0.00  0.00    -0.530 OA
BRANCH  18  20
ATOM     20  C   LIG    1        5.683   5.620   3.041  0.00  0.00    +0.010 C 
BRANCH  20  21
ATOM     21  C   LIG    1        6.322   6.925   2.563  0.00  0.00    +0.010 C 
ATOM     22  C   LIG    1        6.724   7.870   3.709  0.00  0.00    +0.020 C 
ATOM     23  C   LIG    1        6.215   9.024   2.830  0.00  0.00    +0.000 C 
ATOM     24  C   LIG    1        5.300   7.995   2.145  0.00  0.00    +0.020 C 
ENDBRANCH  20  21
BRANCH  20  25
ATOM     25  C   LIG    1        6.780   4.628   3.431  0.00  0.00    -0.010 C 
ATOM     26  C   LIG    1        6.306   3.538   4.407  0.00  0.00    +0.000 C 
ATOM     27  C   LIG    1        7.657   3.700   5.122  0.00  0.00    +0.010 C 
ATOM     28  C   LIG    1        7.693   5.132   4.562  0.00  0.00    +0.030 C 
ENDBRANCH  20  25
ENDBRANCH  18  20
ENDBRANCH   4  16
TORSDOF 5
