REMARK  Name = ZINCpe00000c8BUe.0
REMARK                            x       y       z     vdW  Elec       q    Type
REMARK                         _______ _______ _______ _____ _____    ______ ____
ROOT
ATOM      1  O   LIG    1        0.009  -0.008  -0.089  0.00  0.00    -0.520 OA
ATOM      2  C   LIG    1       -0.018   1.191   0.090  0.00  0.00    +0.530 C 
ATOM      3  N   LIG    1       -1.198   1.826   0.227  0.00  0.00    -0.610 N 
ATOM      4  C   LIG    1       -1.246   3.278   0.451  0.00  0.00    +0.270 C 
ATOM      5  C   LIG    1       -2.080   3.562   1.699  0.00  0.00    +0.020 C 
ATOM      6  C   LIG    1       -3.453   2.902   1.553  0.00  0.00    +0.010 C 
ATOM      7  C   LIG    1       -3.282   1.387   1.419  0.00  0.00    +0.050 C 
ATOM      8  C   LIG    1       -2.462   1.079   0.162  0.00  0.00    +0.290 C 
ENDROOT
BRANCH   6   9
ATOM      9  C   LIG    1       -4.301   3.212   2.789  0.00  0.00    -0.320 C 
BRANCH   9  10
ATOM     10  S   LIG    1       -4.628   4.995   2.866  0.00  0.00    +2.570 S 
ATOM     11  F   LIG    1       -5.319   5.214   4.304  0.00  0.00    -0.480 F 
ATOM     12  O   LIG    1       -5.637   5.357   1.933  0.00  0.00    -0.930 OA
ATOM     13  O   LIG    1       -3.410   5.722   2.948  0.00  0.00    -0.920 OA
ENDBRANCH   9  10
ENDBRANCH   6   9
BRANCH   2  14
ATOM     14  C   LIG    1        1.270   1.972   0.153  0.00  0.00    +0.070 C 
BRANCH  14  15
ATOM     15  C   LIG    1        2.455   1.006   0.110  0.00  0.00    +0.190 C 
ATOM     16  C   LIG    1        2.451   0.266  -1.225  0.00  0.00    +0.080 C 
ATOM     17  C   LIG    1        3.767  -0.497  -1.403  0.00  0.00    +0.110 C 
ATOM     18  S   LIG    1        3.898  -1.754  -0.096  0.00  0.00    -0.250 S 
ATOM     19  C   LIG    1        3.647  -0.770   1.411  0.00  0.00    +0.110 C 
ATOM     20  C   LIG    1        2.345   0.023   1.272  0.00  0.00    +0.100 C 
BRANCH  15  21
ATOM     21  N   LIG    1        3.701   1.765   0.236  0.00  0.00    -0.310 N 
ATOM     22  C   LIG    1        4.292   2.498  -0.726  0.00  0.00    +0.390 A 
ATOM     23  N   LIG    1        5.377   3.009  -0.197  0.00  0.00    -0.300 NA
ATOM     24  N   LIG    1        5.453   2.605   1.024  0.00  0.00    -0.070 NA
ATOM     25  N   LIG    1        4.442   1.853   1.289  0.00  0.00    -0.090 NA
ENDBRANCH  15  21
ENDBRANCH  14  15
ENDBRANCH   2  14
TORSDOF 5
