REMARK  Name = ZINCrg00000J06XS.0
REMARK                            x       y       z     vdW  Elec       q    Type
REMARK                         _______ _______ _______ _____ _____    ______ ____
ROOT
ATOM      1  N   LIG    1        2.115   0.844   0.844  0.00  0.00    -1.010 NA
ATOM      2  C   LIG    1        1.239  -0.338   0.862  0.00  0.00    +0.280 C 
ATOM      3  C   LIG    1        0.002  -0.004   0.002  0.00  0.00    +0.060 C 
ATOM      4  C   LIG    1       -0.019   1.547   0.011  0.00  0.00    +0.220 C 
ATOM      5  C   LIG    1        1.494   1.879  -0.002  0.00  0.00    +0.340 C 
ENDROOT
BRANCH   4   6
ATOM      6  C   LIG    1       -0.676   2.072   1.261  0.00  0.00    +0.160 A 
ATOM      7  N   LIG    1       -1.915   1.863   1.639  0.00  0.00    -0.460 NA
ATOM      8  C   LIG    1       -2.053   2.519   2.804  0.00  0.00    +0.200 A 
ATOM      9  N   LIG    1       -0.913   3.083   3.071  0.00  0.00    -0.370 NA
ATOM     10  O   LIG    1       -0.107   2.834   2.200  0.00  0.00    +0.090 OA
BRANCH   8  11
ATOM     11  C   LIG    1       -3.301   2.588   3.647  0.00  0.00    +0.060 C 
ATOM     12  C   LIG    1       -3.301   3.554   4.833  0.00  0.00    +0.050 C 
ATOM     13  C   LIG    1       -3.220   2.046   5.075  0.00  0.00    +0.060 C 
ENDBRANCH   8  11
ENDBRANCH   4   6
BRANCH   1  15
ATOM     14  O   LIG    1        3.783   2.379   1.820  0.00  0.00    -0.940 OA
ATOM     15  S   LIG    1        3.559   0.987   1.642  0.00  0.00    +2.710 S 
ATOM     16  O   LIG    1        3.514   0.063   2.721  0.00  0.00    -0.940 OA
BRANCH  15  17
ATOM     17  C   LIG    1        4.817   0.416   0.549  0.00  0.00    -0.680 A 
ATOM     18  C   LIG    1        5.185  -0.916   0.557  0.00  0.00    +0.140 A 
ATOM     19  C   LIG    1        6.169  -1.369  -0.302  0.00  0.00    +0.020 A 
ATOM     20  C   LIG    1        6.798  -0.485  -1.166  0.00  0.00    +0.110 A 
ATOM     21  O   LIG    1        7.771  -0.944  -1.999  0.00  0.00    -0.300 OA
ATOM     22  C   LIG    1        8.114  -0.107  -3.109  0.00  0.00    +0.230 C 
ATOM     23  C   LIG    1        8.273   1.330  -2.596  0.00  0.00    +0.230 C 
ATOM     24  O   LIG    1        7.030   1.739  -2.015  0.00  0.00    -0.300 OA
ATOM     25  C   LIG    1        6.430   0.855  -1.171  0.00  0.00    +0.030 A 
ATOM     26  C   LIG    1        5.439   1.302  -0.311  0.00  0.00    +0.140 A 
ENDBRANCH  15  17
ENDBRANCH   1  15
BRANCH   4  27
ATOM     27  O   LIG    1       -0.665   2.057  -1.158  0.00  0.00    -0.520 OA
ATOM     28  H   LIG    1       -1.591   1.792  -1.243  0.00  0.00    +0.400 HD
ENDBRANCH   4  27
TORSDOF 5
