REMARK  Name = ZINCpk00000xI1Rd.0
REMARK                            x       y       z     vdW  Elec       q    Type
REMARK                         _______ _______ _______ _____ _____    ______ ____
ROOT
ATOM      1  C   LIG    1       -2.407   1.056   0.027  0.00  0.00    +0.230 C 
ENDROOT
BRANCH   1   2
ATOM      2  C   LIG    1       -3.536   1.843  -0.587  0.00  0.00    +0.530 C 
ATOM      3  N   LIG    1       -4.494   1.208  -1.292  0.00  0.00    -0.610 N 
ATOM      4  C   LIG    1       -4.509  -0.259  -1.399  0.00  0.00    +0.250 C 
ATOM      5  C   LIG    1       -5.919  -0.752  -1.033  0.00  0.00    +0.220 C 
ATOM      6  O   LIG    1       -6.881  -0.048  -1.822  0.00  0.00    -0.380 OA
ATOM      7  C   LIG    1       -6.908   1.363  -1.591  0.00  0.00    +0.220 C 
ATOM      8  C   LIG    1       -5.552   1.964  -1.981  0.00  0.00    +0.270 C 
ATOM      9  O   LIG    1       -3.583   3.046  -0.446  0.00  0.00    -0.510 OA
ENDBRANCH   1   2
BRANCH   1  10
ATOM     10  C   LIG    1       -2.864   0.454   1.331  0.00  0.00    -0.120 A 
ATOM     11  C   LIG    1       -3.038   1.260   2.440  0.00  0.00    +0.050 A 
ATOM     12  C   LIG    1       -3.461   0.709   3.635  0.00  0.00    +0.010 A 
ATOM     13  C   LIG    1       -3.702  -0.649   3.723  0.00  0.00    +0.020 A 
ATOM     14  C   LIG    1       -3.523  -1.456   2.615  0.00  0.00    +0.010 A 
ATOM     15  C   LIG    1       -3.104  -0.904   1.419  0.00  0.00    +0.030 A 
ENDBRANCH   1  10
BRANCH   1  16
ATOM     16  O   LIG    1       -1.279   1.937   0.269  0.00  0.00    -0.320 OA
BRANCH  16  17
ATOM     17  C   LIG    1       -0.050   1.388   0.211  0.00  0.00    +0.550 C 
ATOM     18  O   LIG    1        0.076   0.204  -0.036  0.00  0.00    -0.510 OA
BRANCH  17  21
ATOM     19  C   LIG    1        2.939   0.401   0.130  0.00  0.00    +0.180 C 
ATOM     20  C   LIG    1        2.457   1.802   0.407  0.00  0.00    +0.170 A 
ATOM     21  C   LIG    1        1.142   2.223   0.440  0.00  0.00    -0.290 A 
ATOM     22  C   LIG    1        1.154   3.606   0.729  0.00  0.00    +0.310 A 
ATOM     23  N   LIG    1        2.397   3.978   0.868  0.00  0.00    -0.300 NA
ATOM     24  N   LIG    1        3.227   2.870   0.668  0.00  0.00    -0.360 N 
ATOM     25  C   LIG    1        4.691   2.875   0.733  0.00  0.00    +0.360 C 
ENDBRANCH  17  21
ENDBRANCH  16  17
ENDBRANCH   1  16
TORSDOF 5
