REMARK  Name = ZINCqH0000007Cmh.0
REMARK                            x       y       z     vdW  Elec       q    Type
REMARK                         _______ _______ _______ _____ _____    ______ ____
ROOT
ATOM      1  C   LIG    1        0.000   1.080   2.488  0.00  0.00    +0.470 C 
ATOM      2  O   LIG    1        0.991   0.399   2.364  0.00  0.00    -0.500 OA
ENDROOT
BRANCH   1   3
ATOM      3  O   LIG    1       -0.451   1.391   3.713  0.00  0.00    -0.350 OA
BRANCH   3   4
ATOM      4  C   LIG    1        0.301   0.876   4.843  0.00  0.00    +0.390 C 
BRANCH   4   6
ATOM      5  C   LIG    1       -0.842   1.664   7.096  0.00  0.00    -0.090 C 
ATOM      6  C   LIG    1       -0.335   1.314   6.096  0.00  0.00    -0.160 C 
BRANCH   5  11
ATOM      7  C   LIG    1       -1.520   2.134  10.718  0.00  0.00    +0.130 A 
ATOM      8  C   LIG    1       -2.663   2.919  10.672  0.00  0.00    -0.070 A 
ATOM      9  C   LIG    1       -3.204   3.289   9.454  0.00  0.00    +0.050 A 
ATOM     10  C   LIG    1       -2.607   2.885   8.278  0.00  0.00    +0.000 A 
ATOM     11  C   LIG    1       -1.461   2.090   8.315  0.00  0.00    +0.050 A 
ATOM     12  C   LIG    1       -0.916   1.718   9.543  0.00  0.00    +0.010 A 
BRANCH   7  14
ATOM     13  C   LIG    1       -1.666   2.237  13.089  0.00  0.00    +0.250 C 
ATOM     14  O   LIG    1       -0.992   1.773  11.918  0.00  0.00    -0.320 OA
ENDBRANCH   7  14
ENDBRANCH   5  11
ENDBRANCH   4   6
ENDBRANCH   3   4
ENDBRANCH   1   3
BRANCH   1  15
ATOM     15  C   LIG    1       -0.729   1.579   1.267  0.00  0.00    +0.110 C 
BRANCH  15  16
ATOM     16  C   LIG    1       -0.013   1.086   0.008  0.00  0.00    +0.120 C 
BRANCH  16  17
ATOM     17  C   LIG    1       -0.742   1.585  -1.213  0.00  0.00    -0.120 A 
ATOM     18  C   LIG    1       -1.666   0.804  -1.838  0.00  0.00    +0.230 A 
ATOM     19  N   LIG    1       -2.325   1.221  -2.910  0.00  0.00    -0.490 NA
ATOM     20  C   LIG    1       -2.129   2.401  -3.450  0.00  0.00    +0.310 A 
ATOM     21  C   LIG    1       -1.193   3.282  -2.886  0.00  0.00    -0.110 A 
ATOM     22  C   LIG    1       -0.947   4.554  -3.425  0.00  0.00    +0.050 A 
ATOM     23  C   LIG    1       -0.026   5.367  -2.836  0.00  0.00    +0.010 A 
ATOM     24  C   LIG    1        0.676   4.956  -1.705  0.00  0.00    +0.040 A 
ATOM     25  C   LIG    1        0.464   3.728  -1.154  0.00  0.00    +0.010 A 
ATOM     26  C   LIG    1       -0.476   2.865  -1.734  0.00  0.00    -0.020 A 
ENDBRANCH  16  17
ENDBRANCH  15  16
ENDBRANCH   1  15
TORSDOF 8
