REMARK  Name = ZINCpk00000FgQ0K.0
REMARK                            x       y       z     vdW  Elec       q    Type
REMARK                         _______ _______ _______ _____ _____    ______ ____
ROOT
ATOM      1  O   LIG    1       -0.097   3.950   0.024  0.00  0.00    -0.480 OA
ATOM      2  C   LIG    1        1.030   3.502   0.011  0.00  0.00    +0.520 C 
ATOM      3  N   LIG    1        2.088   4.338   0.005  0.00  0.00    -0.500 N 
ATOM      4  H   LIG    1        2.989   3.979  -0.005  0.00  0.00    +0.430 HD
ENDROOT
BRANCH   3   5
ATOM      5  N   LIG    1        1.886   5.724   0.015  0.00  0.00    -0.380 N 
ATOM      6  C   LIG    1        1.489   6.433  -1.049  0.00  0.00    +0.710 C 
ATOM      7  N   LIG    1        1.366   7.746  -0.774  0.00  0.00    -0.710 N 
ATOM      8  H   LIG    1        1.092   8.445  -1.388  0.00  0.00    +0.440 HD
ATOM      9  C   LIG    1        1.737   7.911   0.637  0.00  0.00    +0.140 C 
ATOM     10  C   LIG    1        2.956   8.818   0.768  0.00  0.00    +0.050 C 
ATOM     11  C   LIG    1        2.605  10.224   0.273  0.00  0.00    +0.030 C 
ATOM     12  C   LIG    1        1.444  10.779   1.101  0.00  0.00    +0.010 C 
ATOM     13  C   LIG    1        0.222   9.872   0.941  0.00  0.00    +0.030 C 
ATOM     14  C   LIG    1        0.564   8.465   1.438  0.00  0.00    +0.050 C 
ATOM     15  O   LIG    1        1.261   5.947  -2.139  0.00  0.00    -0.520 OA
ATOM     16  C   LIG    1        2.072   6.510   1.095  0.00  0.00    +0.530 C 
ATOM     17  O   LIG    1        2.432   6.165   2.200  0.00  0.00    -0.440 OA
ENDBRANCH   3   5
BRANCH   2  18
ATOM     18  C   LIG    1        1.248   2.011   0.001  0.00  0.00    +0.300 C 
BRANCH  18  19
ATOM     19  O   LIG    1       -0.016   1.345   0.009  0.00  0.00    -0.320 OA
BRANCH  19  20
ATOM     20  C   LIG    1        0.002  -0.004   0.002  0.00  0.00    +0.560 C 
ATOM     21  O   LIG    1        1.064  -0.598  -0.011  0.00  0.00    -0.470 OA
BRANCH  20  22
ATOM     22  C   LIG    1       -1.255  -0.753   0.010  0.00  0.00    -0.050 A 
ATOM     23  C   LIG    1       -1.379  -2.114   0.004  0.00  0.00    +0.090 A 
ATOM     24  C   LIG    1       -2.753  -2.394   0.016  0.00  0.00    +0.010 A 
ATOM     25  C   LIG    1       -3.402  -1.207   0.029  0.00  0.00    +0.010 A 
ATOM     26 BR   LIG    1       -5.279  -0.977   0.050  0.00  0.00    +0.080 Br
ATOM     27  O   LIG    1       -2.496  -0.221   0.031  0.00  0.00    -0.130 OA
ENDBRANCH  20  22
ENDBRANCH  19  20
ENDBRANCH  18  19
ENDBRANCH   2  18
TORSDOF 5
