REMARK  Name = ZINCnE000001T6cN.0
REMARK                            x       y       z     vdW  Elec       q    Type
REMARK                         _______ _______ _______ _____ _____    ______ ____
ROOT
ATOM      1  O   LIG    1       -2.235   5.676   0.052  0.00  0.00    -0.670 OA
ATOM      2  C   LIG    1       -1.186   6.293   0.045  0.00  0.00    +0.450 C 
ATOM      3  N   LIG    1       -0.013   5.629   0.031  0.00  0.00    -0.470 NA
ENDROOT
BRANCH   2   4
ATOM      4  C   LIG    1       -1.198   7.760   0.053  0.00  0.00    +0.060 A 
ATOM      5  C   LIG    1       -2.310   8.552   0.067  0.00  0.00    -0.050 A 
ATOM      6  C   LIG    1       -1.858   9.881   0.070  0.00  0.00    -0.020 A 
ATOM      7  C   LIG    1       -0.507   9.842   0.057  0.00  0.00    -0.040 A 
ATOM      8  O   LIG    1       -0.114   8.562   0.053  0.00  0.00    -0.140 OA
BRANCH   7   9
ATOM      9  C   LIG    1        0.406  11.041   0.054  0.00  0.00    +0.240 C 
BRANCH   9  10
ATOM     10  S   LIG    1        0.788  11.513   1.764  0.00  0.00    -0.220 S 
BRANCH  10  11
ATOM     11  C   LIG    1        1.879  12.948   1.556  0.00  0.00    +0.430 C 
ATOM     12  F   LIG    1        1.199  13.953   0.860  0.00  0.00    -0.190 F 
ATOM     13  F   LIG    1        3.016  12.569   0.836  0.00  0.00    -0.190 F 
ENDBRANCH  10  11
ENDBRANCH   9  10
ENDBRANCH   7   9
ENDBRANCH   2   4
BRANCH   3  14
ATOM     14  N   LIG    1       -0.001   4.228   0.024  0.00  0.00    -0.530 N 
ATOM     15  H   LIG    1       -0.837   3.736   0.029  0.00  0.00    +0.360 HD
ATOM     16  C   LIG    1        1.172   3.564   0.009  0.00  0.00    +0.540 C 
ATOM     17  O   LIG    1        2.219   4.181   0.003  0.00  0.00    -0.520 OA
BRANCH  16  18
ATOM     18  C   LIG    1        1.184   2.087   0.002  0.00  0.00    -0.100 A 
ATOM     19  C   LIG    1       -0.017   1.375   0.010  0.00  0.00    +0.050 A 
ATOM     20  C   LIG    1        0.002  -0.004   0.002  0.00  0.00    +0.000 A 
ATOM     21  C   LIG    1        1.208  -0.683  -0.013  0.00  0.00    +0.030 A 
ATOM     22  C   LIG    1        2.402   0.014  -0.020  0.00  0.00    +0.010 A 
ATOM     23  C   LIG    1        2.398   1.395  -0.013  0.00  0.00    +0.010 A 
ATOM     24 CL   LIG    1        3.898   2.269  -0.024  0.00  0.00    -0.030 Cl
ENDBRANCH  16  18
ENDBRANCH   3  14
TORSDOF 6
