REMARK  Name = ZINCpe000000WLO8.0
REMARK                            x       y       z     vdW  Elec       q    Type
REMARK                         _______ _______ _______ _____ _____    ______ ____
ROOT
ATOM      1  C   LIG    1        0.003   5.680  -0.081  0.00  0.00    +0.220 C 
ENDROOT
BRANCH   1   4
ATOM      2  N   LIG    1        1.217   3.547   0.229  0.00  0.00    -0.670 N 
ATOM      3  H   LIG    1        2.043   4.056   0.255  0.00  0.00    +0.410 HD
ATOM      4  C   LIG    1        0.036   4.186   0.113  0.00  0.00    +0.520 C 
ATOM      5  O   LIG    1       -1.000   3.557   0.165  0.00  0.00    -0.500 OA
BRANCH   2  11
ATOM      6  C   LIG    1        2.313   1.441  -0.259  0.00  0.00    -0.110 A 
ATOM      7  C   LIG    1        2.342   0.057  -0.174  0.00  0.00    +0.010 A 
ATOM      8  C   LIG    1        1.323  -0.618   0.471  0.00  0.00    +0.020 A 
ATOM      9  C   LIG    1        0.272   0.083   1.033  0.00  0.00    +0.030 A 
ATOM     10  C   LIG    1        0.235   1.464   0.955  0.00  0.00    +0.050 A 
ATOM     11  C   LIG    1        1.253   2.149   0.310  0.00  0.00    +0.160 A 
BRANCH   6  13
ATOM     12  C   LIG    1        4.710   0.967  -1.625  0.00  0.00    +0.150 C 
ATOM     13  S   LIG    1        3.611   2.304  -1.081  0.00  0.00    -0.120 S 
ENDBRANCH   6  13
ENDBRANCH   2  11
ENDBRANCH   1   4
BRANCH   1  14
ATOM     14  N   LIG    1       -1.392   6.130  -0.178  0.00  0.00    -0.520 NA
ATOM     15  C   LIG    1       -2.031   5.606  -1.392  0.00  0.00    +0.200 C 
BRANCH  14  16
ATOM     16  C   LIG    1       -1.477   7.596  -0.129  0.00  0.00    +0.270 C 
BRANCH  16  17
ATOM     17  C   LIG    1       -2.900   8.007   0.150  0.00  0.00    +0.220 A 
ATOM     18  C   LIG    1       -3.611   8.667  -0.789  0.00  0.00    -0.120 A 
ATOM     19  C   LIG    1       -4.948   9.039  -0.506  0.00  0.00    +0.550 A 
ATOM     20  N   LIG    1       -5.478   8.737   0.696  0.00  0.00    -0.560 N 
ATOM     21  C   LIG    1       -4.744   8.083   1.616  0.00  0.00    +0.690 A 
ATOM     22  O   LIG    1       -5.235   7.817   2.696  0.00  0.00    -0.540 OA
ATOM     23  C   LIG    1       -6.857   9.121   1.003  0.00  0.00    +0.330 C 
ATOM     24  O   LIG    1       -5.611   9.630  -1.339  0.00  0.00    -0.520 OA
ATOM     25  N   LIG    1       -3.475   7.720   1.357  0.00  0.00    -0.520 N 
ATOM     26  C   LIG    1       -2.701   7.008   2.378  0.00  0.00    +0.340 C 
ENDBRANCH  16  17
ENDBRANCH  14  16
ENDBRANCH   1  14
TORSDOF 6
