REMARK  Name = ZINCrg000000rwk7.0
REMARK                            x       y       z     vdW  Elec       q    Type
REMARK                         _______ _______ _______ _____ _____    ______ ____
ROOT
ATOM      1  C   LIG    1        6.380   0.380  -6.886  0.00  0.00    -0.090 A 
ATOM      2  C   LIG    1        5.374   1.323  -6.983  0.00  0.00    +0.040 A 
ATOM      3  C   LIG    1        4.889   1.937  -5.843  0.00  0.00    +0.040 A 
ATOM      4  C   LIG    1        5.410   1.608  -4.606  0.00  0.00    -0.100 A 
ATOM      5  C   LIG    1        6.420   0.669  -4.509  0.00  0.00    +0.030 A 
ATOM      6  C   LIG    1        6.901   0.051  -5.648  0.00  0.00    +0.030 A 
ENDROOT
BRANCH   1   8
ATOM      7  C   LIG    1        5.775  -0.984  -8.887  0.00  0.00    +0.090 C 
ATOM      8  C   LIG    1        6.908  -0.289  -8.128  0.00  0.00    +0.170 C 
ATOM      9  N   LIG    1        7.969  -1.252  -7.787  0.00  0.00    -0.720 N 
ATOM     10  H   LIG    1        7.880  -2.039  -7.226  0.00  0.00    +0.440 HD
ATOM     11  C   LIG    1        9.087  -0.827  -8.403  0.00  0.00    +0.710 C 
ATOM     12  N   LIG    1        8.889   0.294  -9.106  0.00  0.00    -0.680 N 
ATOM     13  H   LIG    1        9.578   0.747  -9.616  0.00  0.00    +0.440 HD
ATOM     14  O   LIG    1       10.158  -1.398  -8.331  0.00  0.00    -0.540 OA
ATOM     15  C   LIG    1        7.612   0.716  -9.017  0.00  0.00    +0.540 C 
ATOM     16  O   LIG    1        7.127   1.696  -9.541  0.00  0.00    -0.450 OA
ENDBRANCH   1   8
BRANCH   4  17
ATOM     17  C   LIG    1        4.882   2.277  -3.364  0.00  0.00    +0.340 C 
BRANCH  17  18
ATOM     18  N   LIG    1        3.764   1.498  -2.827  0.00  0.00    -0.740 N 
ATOM     19  H   LIG    1        3.479   0.686  -3.275  0.00  0.00    +0.400 HD
ATOM     20  C   LIG    1        3.131   1.909  -1.710  0.00  0.00    +0.700 C 
ATOM     21  N   LIG    1        2.102   1.192  -1.216  0.00  0.00    -0.730 N 
ATOM     22  H   LIG    1        1.817   0.381  -1.664  0.00  0.00    +0.400 HD
ATOM     23  O   LIG    1        3.488   2.927  -1.149  0.00  0.00    -0.590 OA
BRANCH  21  24
ATOM     24  CA  LIG    1        1.414   1.639  -0.003  0.00  0.00    +0.280 C 
BRANCH  24  25
ATOM     25  C   LIG    1       -0.013   1.086   0.008  0.00  0.00    -0.010 C 
ATOM     26  C   LIG    1       -0.789   1.611   1.242  0.00  0.00    +0.020 C 
ATOM     27  C   LIG    1       -2.268   1.485   0.789  0.00  0.00    +0.020 C 
ATOM     28  C   LIG    1       -2.243   1.875  -0.703  0.00  0.00    -0.010 C 
ATOM     29  C   LIG    1       -0.809   1.622  -1.200  0.00  0.00    +0.000 C 
ENDBRANCH  24  25
BRANCH  24  30
ATOM     30  C   LIG    1        2.167   1.131   1.228  0.00  0.00    +0.170 C 
BRANCH  30  31
ATOM     31  O   LIG    1        2.110  -0.297   1.265  0.00  0.00    -0.570 OA
ATOM     32  H   LIG    1        2.569  -0.689   2.021  0.00  0.00    +0.380 HD
ENDBRANCH  30  31
ENDBRANCH  24  30
ENDBRANCH  21  24
ENDBRANCH  17  18
ENDBRANCH   4  17
TORSDOF 7
