REMARK  Name = ZINCpk00000KfLM7.0
REMARK                            x       y       z     vdW  Elec       q    Type
REMARK                         _______ _______ _______ _____ _____    ______ ____
ROOT
ATOM      1  C   LIG    1       -0.165   2.444  -2.036  0.00  0.00    +0.520 C 
ATOM      2  N   LIG    1       -0.737   1.580  -1.175  0.00  0.00    -0.620 N 
ATOM      3  C   LIG    1       -0.013   1.086   0.008  0.00  0.00    +0.300 C 
ATOM      4  C   LIG    1       -0.741   1.585   1.255  0.00  0.00    +0.120 C 
ATOM      5  C   LIG    1       -2.223   1.337   1.141  0.00  0.00    +0.030 A 
ATOM      6  N   LIG    1       -2.943   1.337   2.254  0.00  0.00    -0.200 NA
ATOM      7  N   LIG    1       -4.211   1.158   2.259  0.00  0.00    -0.300 NA
ATOM      8  C   LIG    1       -4.898   0.959   1.143  0.00  0.00    +0.340 A 
ATOM      9  C   LIG    1       -4.226   0.935  -0.078  0.00  0.00    -0.030 A 
ATOM     10  C   LIG    1       -2.851   1.127  -0.070  0.00  0.00    -0.060 A 
ATOM     11  C   LIG    1       -2.108   1.094  -1.378  0.00  0.00    +0.360 C 
ATOM     12  O   LIG    1        0.968   2.830  -1.845  0.00  0.00    -0.510 OA
ENDROOT
BRANCH   8  13
ATOM     13  N   LIG    1       -6.275   0.773   1.190  0.00  0.00    -0.610 N 
ATOM     14  C   LIG    1       -6.989   0.907   2.463  0.00  0.00    +0.290 C 
ATOM     15  C   LIG    1       -7.012   0.445  -0.032  0.00  0.00    +0.300 C 
ENDBRANCH   8  13
BRANCH   1  17
ATOM     16  C   LIG    1       -1.321   1.737  -4.113  0.00  0.00    +0.050 C 
ATOM     17  C   LIG    1       -0.934   2.930  -3.237  0.00  0.00    +0.160 C 
BRANCH  17  18
ATOM     18  O   LIG    1       -0.120   3.831  -3.991  0.00  0.00    -0.350 OA
BRANCH  18  19
ATOM     19  C   LIG    1       -0.859   4.833  -4.693  0.00  0.00    +0.200 C 
BRANCH  19  20
ATOM     20  C   LIG    1        0.109   5.735  -5.462  0.00  0.00    +0.160 C 
ATOM     21  C   LIG    1       -0.669   6.882  -6.112  0.00  0.00    +0.000 C 
ATOM     22  C   LIG    1        0.297   7.746  -6.928  0.00  0.00    +0.020 C 
ATOM     23  C   LIG    1        1.004   6.864  -7.962  0.00  0.00    -0.020 C 
ATOM     24  C   LIG    1        1.718   5.718  -7.240  0.00  0.00    +0.210 C 
ATOM     25  O   LIG    1        0.768   4.973  -6.476  0.00  0.00    -0.370 OA
ENDBRANCH  19  20
ENDBRANCH  18  19
ENDBRANCH  17  18
ENDBRANCH   1  17
TORSDOF 5
