REMARK  Name = ZINCqH0000006T1W.0
REMARK                            x       y       z     vdW  Elec       q    Type
REMARK                         _______ _______ _______ _____ _____    ______ ____
ROOT
ATOM      1  N   LIG    1       -0.011   0.966   0.007  0.00  0.00    -0.660 N 
ATOM      2  H   LIG    1       -0.101   0.000   0.020  0.00  0.00    +0.420 HD
ATOM      3  C   LIG    1        1.213   1.529  -0.022  0.00  0.00    +0.520 C 
ATOM      4  O   LIG    1        1.325   2.733  -0.120  0.00  0.00    -0.500 OA
ENDROOT
BRANCH   1   8
ATOM      5  C   LIG    1       -3.419   3.378   0.026  0.00  0.00    +0.170 A 
ATOM      6  C   LIG    1       -3.416   2.183   0.729  0.00  0.00    -0.120 A 
ATOM      7  C   LIG    1       -2.288   1.378   0.719  0.00  0.00    +0.150 A 
ATOM      8  C   LIG    1       -1.156   1.776   0.014  0.00  0.00    +0.090 A 
ATOM      9  C   LIG    1       -1.163   2.973  -0.688  0.00  0.00    +0.130 A 
ATOM     10  C   LIG    1       -2.292   3.772  -0.682  0.00  0.00    -0.090 A 
ATOM     11 CL   LIG    1       -2.299   5.269  -1.560  0.00  0.00    -0.050 Cl
BRANCH   5  13
ATOM     12  C   LIG    1       -5.652   3.700   0.780  0.00  0.00    +0.250 C 
ATOM     13  O   LIG    1       -4.528   4.166   0.031  0.00  0.00    -0.300 OA
ENDBRANCH   5  13
BRANCH   7  14
ATOM     14  O   LIG    1       -2.286   0.202   1.403  0.00  0.00    -0.310 OA
ATOM     15  C   LIG    1       -3.482  -0.143   2.105  0.00  0.00    +0.260 C 
ENDBRANCH   7  14
ENDBRANCH   1   8
BRANCH   3  16
ATOM     16  C   LIG    1        2.443   0.663   0.066  0.00  0.00    +0.100 C 
BRANCH  16  17
ATOM     17  C   LIG    1        3.692   1.544   0.010  0.00  0.00    +0.070 C 
ATOM     18  S   LIG    1        3.765   2.594   1.493  0.00  0.00    -0.040 S 
ATOM     19  C   LIG    1        4.254   1.435   2.731  0.00  0.00    -0.150 A 
ATOM     20  C   LIG    1        3.856   1.616   4.045  0.00  0.00    +0.080 A 
ATOM     21  C   LIG    1        4.257   0.718   5.018  0.00  0.00    +0.000 A 
ATOM     22  C   LIG    1        5.054  -0.358   4.675  0.00  0.00    +0.050 A 
ATOM     23  C   LIG    1        5.450  -0.546   3.365  0.00  0.00    -0.010 A 
ATOM     24  C   LIG    1        5.050   0.347   2.376  0.00  0.00    +0.160 A 
ATOM     25  N   LIG    1        5.455   0.127   1.062  0.00  0.00    -0.650 N 
ATOM     26  H   LIG    1        6.195  -0.485   0.928  0.00  0.00    +0.420 HD
ATOM     27  C   LIG    1        4.923   0.676  -0.026  0.00  0.00    +0.530 C 
ATOM     28  O   LIG    1        5.452   0.468  -1.097  0.00  0.00    -0.500 OA
ENDBRANCH  16  17
ENDBRANCH   3  16
TORSDOF 5
