REMARK  Name = ZINCtV00000L6l9X.0
REMARK                            x       y       z     vdW  Elec       q    Type
REMARK                         _______ _______ _______ _____ _____    ______ ____
ROOT
ATOM      1  O   LIG    1       -7.777   2.026   2.706  0.00  0.00    -0.330 OA
ENDROOT
BRANCH   1   2
ATOM      2  C   LIG    1       -7.484   3.073   1.920  0.00  0.00    +0.470 C 
ATOM      3  O   LIG    1       -7.049   2.890   0.807  0.00  0.00    -0.500 OA
BRANCH   2   4
ATOM      4  C   LIG    1       -7.698   4.485   2.427  0.00  0.00    +0.050 C 
ATOM      5  C   LIG    1       -7.285   5.463   1.334  0.00  0.00    +0.070 C 
ATOM      6  C   LIG    1       -7.287   6.905   1.829  0.00  0.00    +0.040 C 
ATOM      7  C   LIG    1       -5.858   7.461   1.753  0.00  0.00    +0.040 C 
ATOM      8  C   LIG    1       -4.938   6.644   2.660  0.00  0.00    +0.010 C 
ATOM      9  C   LIG    1       -5.443   6.677   4.103  0.00  0.00    +0.030 C 
ATOM     10  C   LIG    1       -6.876   6.129   4.162  0.00  0.00    +0.040 C 
ATOM     11  C   LIG    1       -7.763   6.989   3.273  0.00  0.00    +0.030 C 
ATOM     12  S   LIG    1       -9.510   6.494   3.414  0.00  0.00    -0.240 S 
ATOM     13  C   LIG    1      -10.068   7.687   4.683  0.00  0.00    +0.130 C 
ATOM     14  C   LIG    1       -9.455   9.039   4.253  0.00  0.00    +0.120 C 
ATOM     15  S   LIG    1       -7.710   8.722   3.839  0.00  0.00    -0.230 S 
ATOM     16  C   LIG    1       -6.871   4.677   3.693  0.00  0.00    +0.070 C 
ENDBRANCH   2   4
ENDBRANCH   1   2
BRANCH   1  17
ATOM     17  C   LIG    1       -7.547   0.702   2.154  0.00  0.00    +0.270 C 
BRANCH  17  19
ATOM     18  O   LIG    1       -8.356  -0.001   4.257  0.00  0.00    -0.490 OA
ATOM     19  C   LIG    1       -7.930  -0.340   3.173  0.00  0.00    +0.530 C 
ATOM     20  N   LIG    1       -7.800  -1.649   2.879  0.00  0.00    -0.680 N 
ATOM     21  H   LIG    1       -7.530  -1.922   1.988  0.00  0.00    +0.420 HD
BRANCH  20  22
ATOM     22  C   LIG    1       -8.056  -2.616   3.860  0.00  0.00    +0.160 A 
ATOM     23  C   LIG    1       -7.034  -3.044   4.698  0.00  0.00    -0.010 A 
ATOM     24  C   LIG    1       -7.291  -3.994   5.668  0.00  0.00    +0.070 A 
ATOM     25  C   LIG    1       -8.562  -4.527   5.798  0.00  0.00    -0.010 A 
ATOM     26  C   LIG    1       -9.580  -4.107   4.961  0.00  0.00    +0.070 A 
ATOM     27 CL   LIG    1       -8.879  -5.726   7.013  0.00  0.00    -0.030 Cl
ATOM     28 CL   LIG    1       -5.439  -2.382   4.531  0.00  0.00    -0.030 Cl
ATOM     29  C   LIG    1       -9.331  -3.152   3.992  0.00  0.00    -0.010 A 
ATOM     30 CL   LIG    1      -10.609  -2.625   2.943  0.00  0.00    -0.030 Cl
ENDBRANCH  20  22
ENDBRANCH  17  19
ENDBRANCH   1  17
TORSDOF 5
