REMARK  Name = ZINCrD000000BXN8.0
REMARK                            x       y       z     vdW  Elec       q    Type
REMARK                         _______ _______ _______ _____ _____    ______ ____
ROOT
ATOM      1  C   LIG    1       -0.813   1.637  -1.216  0.00  0.00    +0.010 C 
ATOM      2  C   LIG    1       -0.018   1.110   0.000  0.00  0.00    +0.090 C 
ATOM      3  C   LIG    1       -0.778   1.632   1.199  0.00  0.00    +0.520 C 
ATOM      4  N   LIG    1       -2.009   2.031   0.825  0.00  0.00    -0.560 N 
ATOM      5  O   LIG    1       -0.342   1.683   2.330  0.00  0.00    -0.500 OA
ATOM      6  C   LIG    1       -2.223   1.826  -0.613  0.00  0.00    +0.310 C 
ENDROOT
BRANCH   4   7
ATOM      7  C   LIG    1       -2.962   2.573   1.696  0.00  0.00    +0.170 A 
ATOM      8  C   LIG    1       -4.204   2.962   1.213  0.00  0.00    -0.010 A 
ATOM      9  C   LIG    1       -5.146   3.492   2.073  0.00  0.00    +0.060 A 
ATOM     10  C   LIG    1       -4.851   3.649   3.418  0.00  0.00    +0.030 A 
ATOM     11  O   LIG    1       -5.789   4.183   4.249  0.00  0.00    -0.310 OA
ATOM     12  C   LIG    1       -5.596   3.979   5.653  0.00  0.00    +0.220 C 
ATOM     13  C   LIG    1       -4.131   4.289   5.987  0.00  0.00    +0.220 C 
ATOM     14  O   LIG    1       -3.301   3.407   5.224  0.00  0.00    -0.300 OA
ATOM     15  C   LIG    1       -3.607   3.265   3.905  0.00  0.00    +0.080 A 
ATOM     16  C   LIG    1       -2.664   2.728   3.043  0.00  0.00    +0.020 A 
ENDBRANCH   4   7
BRANCH   1  18
ATOM     17  O   LIG    1       -1.891   0.160  -2.709  0.00  0.00    -0.500 OA
ATOM     18  C   LIG    1       -0.835   0.621  -2.328  0.00  0.00    +0.530 C 
ATOM     19  N   LIG    1        0.319   0.223  -2.900  0.00  0.00    -0.670 N 
ATOM     20  H   LIG    1        1.157   0.637  -2.641  0.00  0.00    +0.420 HD
BRANCH  19  21
ATOM     21  C   LIG    1        0.308  -0.790  -3.869  0.00  0.00    +0.130 A 
ATOM     22  C   LIG    1       -0.759  -0.898  -4.749  0.00  0.00    +0.070 A 
ATOM     23  C   LIG    1       -0.767  -1.898  -5.703  0.00  0.00    +0.070 A 
ATOM     24  C   LIG    1        0.286  -2.790  -5.782  0.00  0.00    -0.080 A 
ATOM     25  C   LIG    1        1.353  -2.686  -4.906  0.00  0.00    +0.040 A 
ATOM     26 BR   LIG    1        0.270  -4.156  -7.090  0.00  0.00    -0.030 Br
ATOM     27  C   LIG    1        1.370  -1.684  -3.953  0.00  0.00    +0.080 A 
ATOM     28  F   LIG    1        2.414  -1.578  -3.102  0.00  0.00    -0.130 F 
ENDBRANCH  19  21
ENDBRANCH   1  18
TORSDOF 3
