REMARK  Name = ZINCrH000004rRb0.0
REMARK                            x       y       z     vdW  Elec       q    Type
REMARK                         _______ _______ _______ _____ _____    ______ ____
ROOT
ATOM      1  N   LIG    1       -1.609   3.520   0.598  0.00  0.00    -0.490 N 
ATOM      2  C   LIG    1       -1.284   2.119   0.899  0.00  0.00    +0.210 C 
ATOM      3  C   LIG    1       -0.390   1.556  -0.208  0.00  0.00    +0.190 C 
ATOM      4  N   LIG    1       -1.084   1.667  -1.499  0.00  0.00    -0.520 NA
ATOM      5  C   LIG    1       -1.408   3.068  -1.800  0.00  0.00    +0.190 C 
ATOM      6  C   LIG    1       -2.302   3.631  -0.693  0.00  0.00    +0.190 C 
ENDROOT
BRANCH   1  12
ATOM      7  C   LIG    1       -3.628   7.500   2.655  0.00  0.00    +0.090 C 
ATOM      8  C   LIG    1       -3.361   6.017   2.647  0.00  0.00    -0.070 A 
ATOM      9  C   LIG    1       -3.866   5.219   3.657  0.00  0.00    -0.020 A 
ATOM     10  C   LIG    1       -3.623   3.857   3.653  0.00  0.00    +0.020 A 
ATOM     11  C   LIG    1       -2.879   3.290   2.637  0.00  0.00    -0.040 A 
ATOM     12  C   LIG    1       -2.365   4.090   1.624  0.00  0.00    +0.110 A 
ATOM     13  C   LIG    1       -2.611   5.457   1.631  0.00  0.00    -0.100 A 
ATOM     14  C   LIG    1       -2.062   6.327   0.531  0.00  0.00    +0.100 C 
ENDBRANCH   1  12
BRANCH   4  15
ATOM     15  C   LIG    1       -0.287   1.068  -2.578  0.00  0.00    +0.140 C 
ATOM     16  C   LIG    1       -0.928   1.397  -3.928  0.00  0.00    +0.070 C 
BRANCH  15  17
ATOM     17  C   LIG    1       -0.240  -0.427  -2.396  0.00  0.00    +0.520 C 
ATOM     18  N   LIG    1        0.752  -1.144  -2.962  0.00  0.00    -0.680 N 
ATOM     19  H   LIG    1        1.476  -0.691  -3.422  0.00  0.00    +0.410 HD
ATOM     20  O   LIG    1       -1.093  -0.986  -1.740  0.00  0.00    -0.480 OA
BRANCH  18  21
ATOM     21  C   LIG    1        0.736  -2.543  -2.887  0.00  0.00    +0.070 A 
ATOM     22  C   LIG    1        0.488  -3.173  -1.673  0.00  0.00    +0.140 A 
ATOM     23  C   LIG    1        0.468  -4.554  -1.603  0.00  0.00    +0.000 A 
ATOM     24  C   LIG    1        0.706  -5.309  -2.737  0.00  0.00    +0.080 A 
ATOM     25  C   LIG    1        0.959  -4.687  -3.945  0.00  0.00    +0.000 A 
ATOM     26  F   LIG    1        0.261  -2.436  -0.563  0.00  0.00    -0.110 F 
ATOM     27  C   LIG    1        0.975  -3.306  -4.024  0.00  0.00    +0.110 A 
ATOM     28  F   LIG    1        1.222  -2.698  -5.205  0.00  0.00    -0.130 F 
ENDBRANCH  18  21
ENDBRANCH  15  17
ENDBRANCH   4  15
TORSDOF 4
