REMARK  Name = ZINCrD0000075EbF.0
REMARK                            x       y       z     vdW  Elec       q    Type
REMARK                         _______ _______ _______ _____ _____    ______ ____
ROOT
ATOM      1  O   LIG    1        1.026   1.964   0.003  0.00  0.00    -0.530 OA
ATOM      2  C   LIG    1       -0.016   1.344   0.009  0.00  0.00    +0.520 C 
ATOM      3  N   LIG    1        0.002  -0.004   0.002  0.00  0.00    -0.730 N 
ATOM      4  H   LIG    1       -0.831  -0.500   0.007  0.00  0.00    +0.400 HD
ENDROOT
BRANCH   2   5
ATOM      5  C   LIG    1       -1.331   2.079   0.020  0.00  0.00    -0.040 C 
ATOM      6  C   LIG    1       -2.129   1.730  -1.244  0.00  0.00    +0.250 C 
ATOM      7  O   LIG    1       -3.409   2.358  -1.156  0.00  0.00    -0.310 OA
ATOM      8  C   LIG    1       -3.447   3.678  -0.835  0.00  0.00    +0.120 A 
ATOM      9  C   LIG    1       -4.616   4.389  -1.089  0.00  0.00    -0.020 A 
ATOM     10  C   LIG    1       -4.697   5.729  -0.768  0.00  0.00    +0.040 A 
ATOM     11  C   LIG    1       -3.615   6.368  -0.193  0.00  0.00    -0.020 A 
ATOM     12  C   LIG    1       -2.452   5.665   0.059  0.00  0.00    +0.050 A 
ATOM     13  C   LIG    1       -2.364   4.321  -0.261  0.00  0.00    -0.160 A 
ATOM     14  C   LIG    1       -1.078   3.589   0.027  0.00  0.00    +0.120 C 
ENDBRANCH   2   5
BRANCH   3  15
ATOM     15  C   LIG    1        1.281  -0.719  -0.014  0.00  0.00    +0.330 C 
BRANCH  15  16
ATOM     16  C   LIG    1        1.025  -2.204  -0.020  0.00  0.00    -0.200 A 
ATOM     17  C   LIG    1        0.895  -2.889  -1.220  0.00  0.00    +0.110 A 
ATOM     18  C   LIG    1        0.661  -4.252  -1.181  0.00  0.00    -0.050 A 
ATOM     19  C   LIG    1        0.565  -4.887   0.053  0.00  0.00    +0.330 A 
ATOM     20  N   LIG    1        0.695  -4.198   1.177  0.00  0.00    -0.520 NA
ATOM     21  C   LIG    1        0.924  -2.899   1.169  0.00  0.00    +0.310 A 
BRANCH  19  22
ATOM     22  N   LIG    1        0.331  -6.256   0.107  0.00  0.00    -0.490 N 
ATOM     23  C   LIG    1       -0.835  -6.628  -0.725  0.00  0.00    +0.200 C 
ATOM     24  C   LIG    1       -1.294  -8.041  -0.489  0.00  0.00    +0.040 C 
ATOM     25  C   LIG    1       -2.412  -8.021   0.575  0.00  0.00    +0.000 C 
ATOM     26  C   LIG    1       -1.883  -7.882   1.927  0.00  0.00    +0.000 C 
ATOM     27  C   LIG    1       -1.103  -6.564   2.115  0.00  0.00    +0.000 C 
ATOM     28  C   LIG    1        0.264  -6.728   1.508  0.00  0.00    +0.230 C 
ENDBRANCH  19  22
ENDBRANCH  15  16
ENDBRANCH   3  15
TORSDOF 4
