REMARK  Name = ZINCrD000000fuDk.0
REMARK                            x       y       z     vdW  Elec       q    Type
REMARK                         _______ _______ _______ _____ _____    ______ ____
ROOT
ATOM      1  N   LIG    1       -1.365   2.965   1.156  0.00  0.00    -0.510 N 
ATOM      2  C   LIG    1       -1.852   2.542   2.341  0.00  0.00    +0.570 A 
ATOM      3  C   LIG    1       -1.874   3.482   3.477  0.00  0.00    -0.160 A 
ATOM      4  C   LIG    1       -2.361   3.097   4.724  0.00  0.00    +0.130 A 
ATOM      5  C   LIG    1       -2.372   4.006   5.761  0.00  0.00    +0.020 A 
ATOM      6  C   LIG    1       -1.902   5.295   5.567  0.00  0.00    +0.100 A 
ATOM      7  C   LIG    1       -1.417   5.688   4.336  0.00  0.00    +0.010 A 
ATOM      8  C   LIG    1       -1.398   4.788   3.282  0.00  0.00    +0.170 A 
ATOM      9  N   LIG    1       -0.915   5.159   2.029  0.00  0.00    -0.440 N 
ATOM     10  C   LIG    1       -0.401   6.342   1.571  0.00  0.00    +0.210 A 
ATOM     11  N   LIG    1       -0.085   6.184   0.308  0.00  0.00    -0.280 NA
ATOM     12  N   LIG    1       -0.400   4.870  -0.057  0.00  0.00    -0.310 NA
ATOM     13  O   LIG    1       -2.260   1.404   2.471  0.00  0.00    -0.480 OA
ATOM     14  C   LIG    1       -0.901   4.262   0.996  0.00  0.00    +0.460 A 
ENDROOT
BRANCH   1  15
ATOM     15  C   LIG    1       -1.331   2.042   0.019  0.00  0.00    +0.360 C 
BRANCH  15  17
ATOM     16  C   LIG    1        0.002  -0.004   0.002  0.00  0.00    +0.060 C 
ATOM     17  C   LIG    1       -0.016   1.306   0.009  0.00  0.00    -0.080 C 
ENDBRANCH  15  17
ENDBRANCH   1  15
BRANCH  10  18
ATOM     18  S   LIG    1       -0.202   7.818   2.511  0.00  0.00    +0.030 S 
BRANCH  18  19
ATOM     19  C   LIG    1        0.518   8.973   1.312  0.00  0.00    +0.140 C 
BRANCH  19  20
ATOM     20  C   LIG    1        0.752  10.305   1.975  0.00  0.00    -0.060 A 
ATOM     21  C   LIG    1       -0.240  11.270   1.952  0.00  0.00    +0.040 A 
ATOM     22  C   LIG    1       -0.034  12.490   2.562  0.00  0.00    +0.070 A 
ATOM     23  C   LIG    1        1.183  12.755   3.193  0.00  0.00    -0.020 A 
ATOM     24  C   LIG    1        2.181  11.779   3.207  0.00  0.00    +0.070 A 
ATOM     25  C   LIG    1        1.960  10.561   2.599  0.00  0.00    +0.040 A 
BRANCH  23  26
ATOM     26  C   LIG    1        1.406  14.022   3.822  0.00  0.00    +0.250 C 
ATOM     27  N   LIG    1        1.583  15.027   4.321  0.00  0.00    -0.410 NA
ENDBRANCH  23  26
ENDBRANCH  19  20
ENDBRANCH  18  19
ENDBRANCH  10  18
TORSDOF 6
