REMARK  Name = ZINCpe000000VclM.0
REMARK                            x       y       z     vdW  Elec       q    Type
REMARK                         _______ _______ _______ _____ _____    ______ ____
ROOT
ATOM      1  N   LIG    1       -0.408   3.957   1.277  0.00  0.00    -0.710 N 
ATOM      2  H   LIG    1       -0.520   3.408   2.069  0.00  0.00    +0.410 HD
ATOM      3  C   LIG    1        0.357   5.065   1.327  0.00  0.00    +0.510 C 
ATOM      4  O   LIG    1        0.497   5.752   0.337  0.00  0.00    -0.510 OA
ENDROOT
BRANCH   1   5
ATOM      5  C   LIG    1       -1.072   3.582   0.027  0.00  0.00    +0.310 C 
BRANCH   5   6
ATOM      6  C   LIG    1       -2.383   4.317  -0.087  0.00  0.00    +0.450 C 
ATOM      7  O   LIG    1       -2.727   5.077   0.787  0.00  0.00    -0.490 OA
BRANCH   6   8
ATOM      8  O   LIG    1       -3.168   4.128  -1.159  0.00  0.00    -0.360 OA
ATOM      9  C   LIG    1       -4.415   4.869  -1.202  0.00  0.00    +0.290 C 
ENDBRANCH   6   8
ENDBRANCH   5   6
BRANCH   5  10
ATOM     10  C   LIG    1       -1.331   2.074   0.020  0.00  0.00    +0.140 C 
BRANCH  10  11
ATOM     11  C   LIG    1       -0.016   1.338   0.009  0.00  0.00    +0.460 C 
ATOM     12  O   LIG    1        1.022   1.956   0.003  0.00  0.00    -0.490 OA
BRANCH  11  14
ATOM     13  C   LIG    1        1.305  -0.646  -0.014  0.00  0.00    +0.290 C 
ATOM     14  O   LIG    1        0.002  -0.004   0.002  0.00  0.00    -0.360 OA
ENDBRANCH  11  14
ENDBRANCH  10  11
ENDBRANCH   5  10
ENDBRANCH   1   5
BRANCH   3  15
ATOM     15  C   LIG    1        1.040   5.452   2.614  0.00  0.00    +0.340 C 
BRANCH  15  16
ATOM     16  N   LIG    1        1.806   6.684   2.409  0.00  0.00    -0.470 N 
ATOM     17  C   LIG    1        3.139   6.740   2.107  0.00  0.00    +0.240 A 
ATOM     18  C   LIG    1        3.527   8.019   1.983  0.00  0.00    -0.050 A 
ATOM     19  C   LIG    1        2.349   8.851   2.236  0.00  0.00    -0.070 A 
ATOM     20  C   LIG    1        2.122  10.229   2.258  0.00  0.00    +0.020 A 
ATOM     21  C   LIG    1        0.857  10.707   2.539  0.00  0.00    +0.100 A 
ATOM     22  C   LIG    1       -0.186   9.823   2.799  0.00  0.00    -0.050 A 
ATOM     23  C   LIG    1        0.026   8.463   2.780  0.00  0.00    +0.030 A 
ATOM     24  C   LIG    1        1.292   7.960   2.500  0.00  0.00    +0.080 A 
BRANCH  21  25
ATOM     25  O   LIG    1        0.630  12.048   2.561  0.00  0.00    -0.320 OA
ATOM     26  C   LIG    1       -0.700  12.476   2.859  0.00  0.00    +0.230 C 
ENDBRANCH  21  25
ENDBRANCH  15  16
ENDBRANCH   3  15
TORSDOF 9
