REMARK  Name = ZINCpe000000Xndq.0
REMARK                            x       y       z     vdW  Elec       q    Type
REMARK                         _______ _______ _______ _____ _____    ______ ____
ROOT
ATOM      1  N   LIG    1       -4.443   5.330  -0.755  0.00  0.00    -0.520 NA
ATOM      2  C   LIG    1       -5.444   4.484  -0.091  0.00  0.00    +0.200 C 
ATOM      3  C   LIG    1       -6.646   5.342   0.313  0.00  0.00    +0.210 C 
ATOM      4  N   LIG    1       -7.211   5.982  -0.883  0.00  0.00    -0.480 N 
ATOM      5  C   LIG    1       -6.209   6.829  -1.547  0.00  0.00    +0.240 C 
ATOM      6  C   LIG    1       -5.008   5.971  -1.950  0.00  0.00    +0.190 C 
ENDROOT
BRANCH   4   7
ATOM      7  C   LIG    1       -8.346   6.712  -0.567  0.00  0.00    +0.400 A 
ATOM      8  C   LIG    1       -9.429   6.105   0.071  0.00  0.00    -0.080 A 
ATOM      9  N   LIG    1       -9.713   4.834   0.525  0.00  0.00    -0.570 N 
ATOM     10  H   LIG    1       -9.132   4.059   0.467  0.00  0.00    +0.430 HD
ATOM     11  C   LIG    1      -10.951   4.871   1.067  0.00  0.00    +0.530 A 
ATOM     12  N   LIG    1      -11.445   6.074   0.976  0.00  0.00    -0.490 NA
ATOM     13  C   LIG    1      -10.557   6.886   0.371  0.00  0.00    +0.310 A 
ATOM     14  N   LIG    1      -10.549   8.180   0.034  0.00  0.00    -0.500 NA
ATOM     15  C   LIG    1       -9.506   8.708  -0.567  0.00  0.00    +0.540 A 
ATOM     16  N   LIG    1       -8.425   8.007  -0.859  0.00  0.00    -0.550 NA
ENDBRANCH   4   7
BRANCH   1  17
ATOM     17  C   LIG    1       -3.240   4.557  -1.090  0.00  0.00    +0.210 C 
BRANCH  17  25
ATOM     18  C   LIG    1       -1.479   3.501   2.563  0.00  0.00    +0.040 C 
ATOM     19  C   LIG    1       -0.678   3.055   1.338  0.00  0.00    +0.210 C 
ATOM     20  C   LIG    1       -0.471   1.538   1.384  0.00  0.00    +0.020 C 
ATOM     21  C   LIG    1        0.208   1.081   0.091  0.00  0.00    +0.020 C 
ATOM     22  C   LIG    1       -0.691   1.409  -1.103  0.00  0.00    +0.010 C 
ATOM     23  C   LIG    1       -0.902   2.925  -1.177  0.00  0.00    +0.260 C 
ATOM     24  N   LIG    1       -1.419   3.394   0.115  0.00  0.00    -0.610 N 
ATOM     25  C   LIG    1       -2.553   4.121   0.178  0.00  0.00    +0.520 C 
ATOM     26  O   LIG    1       -3.019   4.425   1.256  0.00  0.00    -0.510 OA
ENDBRANCH  17  25
ENDBRANCH   1  17
TORSDOF 3
