REMARK  Name = ZINCpe000000Xndq.1
REMARK                            x       y       z     vdW  Elec       q    Type
REMARK                         _______ _______ _______ _____ _____    ______ ____
ROOT
ATOM      1  N   LIG    1       -3.741   3.552   1.407  0.00  0.00    -0.520 NA
ATOM      2  C   LIG    1       -3.396   4.672   0.521  0.00  0.00    +0.210 C 
ATOM      3  C   LIG    1       -4.678   5.278  -0.053  0.00  0.00    +0.240 C 
ATOM      4  N   LIG    1       -5.540   5.729   1.048  0.00  0.00    -0.470 N 
ATOM      5  C   LIG    1       -5.885   4.609   1.935  0.00  0.00    +0.240 C 
ATOM      6  C   LIG    1       -4.603   4.003   2.509  0.00  0.00    +0.190 C 
ENDROOT
BRANCH   4   7
ATOM      7  C   LIG    1       -6.679   6.349   0.566  0.00  0.00    +0.430 A 
ATOM      8  C   LIG    1       -6.586   7.449  -0.304  0.00  0.00    -0.070 A 
ATOM      9  N   LIG    1       -5.561   8.142  -0.857  0.00  0.00    -0.460 NA
ATOM     10  C   LIG    1       -6.037   9.093  -1.606  0.00  0.00    +0.490 A 
ATOM     11  N   LIG    1       -7.400   9.070  -1.580  0.00  0.00    -0.580 N 
ATOM     12  H   LIG    1       -7.994   9.673  -2.054  0.00  0.00    +0.430 HD
ATOM     13  C   LIG    1       -7.778   8.036  -0.761  0.00  0.00    +0.290 A 
ATOM     14  N   LIG    1       -8.941   7.534  -0.359  0.00  0.00    -0.540 NA
ATOM     15  C   LIG    1       -8.980   6.502   0.457  0.00  0.00    +0.560 A 
ATOM     16  N   LIG    1       -7.887   5.914   0.909  0.00  0.00    -0.570 NA
ENDBRANCH   4   7
BRANCH   1  17
ATOM     17  C   LIG    1       -2.532   2.894   1.920  0.00  0.00    +0.200 C 
BRANCH  17  25
ATOM     18  C   LIG    1       -0.457   1.484  -1.428  0.00  0.00    +0.040 C 
ATOM     19  C   LIG    1        0.139   1.021  -0.097  0.00  0.00    +0.210 C 
ATOM     20  C   LIG    1        1.578   1.532   0.027  0.00  0.00    +0.020 C 
ATOM     21  C   LIG    1        2.122   1.182   1.414  0.00  0.00    +0.020 C 
ATOM     22  C   LIG    1        1.272   1.869   2.485  0.00  0.00    +0.010 C 
ATOM     23  C   LIG    1       -0.171   1.363   2.389  0.00  0.00    +0.260 C 
ATOM     24  N   LIG    1       -0.652   1.564   1.016  0.00  0.00    -0.610 N 
ATOM     25  C   LIG    1       -1.799   2.233   0.781  0.00  0.00    +0.520 C 
ATOM     26  O   LIG    1       -2.240   2.302  -0.346  0.00  0.00    -0.510 OA
ENDBRANCH  17  25
ENDBRANCH   1  17
TORSDOF 3
