REMARK  Name = ZINCrH000004kcq7.0
REMARK                            x       y       z     vdW  Elec       q    Type
REMARK                         _______ _______ _______ _____ _____    ______ ____
ROOT
ATOM      1  O   LIG    1        2.366   1.122  -0.015  0.00  0.00    -0.310 OA
ENDROOT
BRANCH   1   5
ATOM      2  C   LIG    1       -1.237   3.137   0.030  0.00  0.00    +0.090 A 
ATOM      3  C   LIG    1       -1.218   1.750   0.017  0.00  0.00    -0.030 A 
ATOM      4  C   LIG    1       -0.013   1.076   0.008  0.00  0.00    +0.030 A 
ATOM      5  C   LIG    1        1.179   1.786   0.000  0.00  0.00    +0.100 A 
ATOM      6  C   LIG    1        1.160   3.172   0.008  0.00  0.00    -0.030 A 
ATOM      7  C   LIG    1       -0.045   3.847   0.022  0.00  0.00    +0.040 A 
BRANCH   2   8
ATOM      8  O   LIG    1       -2.424   3.801   0.044  0.00  0.00    -0.290 OA
BRANCH   8   9
ATOM      9  C   LIG    1       -3.611   3.006   0.051  0.00  0.00    +0.220 C 
BRANCH   9  13
ATOM     10  C   LIG    1       -7.231   4.252   0.090  0.00  0.00    +0.290 C 
ATOM     11  N   LIG    1       -6.057   3.376   0.075  0.00  0.00    -0.730 N 
ATOM     12  H   LIG    1       -6.171   2.413   0.072  0.00  0.00    +0.400 HD
ATOM     13  C   LIG    1       -4.819   3.908   0.067  0.00  0.00    +0.510 C 
ATOM     14  O   LIG    1       -4.676   5.112   0.071  0.00  0.00    -0.510 OA
ENDBRANCH   9  13
ENDBRANCH   8   9
ENDBRANCH   2   8
ENDBRANCH   1   5
BRANCH   1  15
ATOM     15  C   LIG    1        3.554   1.916  -0.022  0.00  0.00    +0.330 C 
BRANCH  15  16
ATOM     16  C   LIG    1        4.761   1.015  -0.038  0.00  0.00    +0.040 A 
ATOM     17  N   LIG    1        5.336   0.577  -1.104  0.00  0.00    -0.430 NA
ATOM     18  C   LIG    1        6.393  -0.205  -0.943  0.00  0.00    +0.100 A 
ATOM     19  C   LIG    1        6.711  -0.441   0.346  0.00  0.00    -0.040 A 
ATOM     20  S   LIG    1        5.555   0.424   1.355  0.00  0.00    +0.180 S 
BRANCH  18  21
ATOM     21  C   LIG    1        7.156  -0.776  -2.079  0.00  0.00    -0.090 A 
ATOM     22  C   LIG    1        8.261  -1.594  -1.841  0.00  0.00    +0.140 A 
ATOM     23  C   LIG    1        8.965  -2.127  -2.905  0.00  0.00    -0.010 A 
ATOM     24  C   LIG    1        8.582  -1.843  -4.203  0.00  0.00    +0.100 A 
ATOM     25  C   LIG    1        7.491  -1.029  -4.446  0.00  0.00    -0.020 A 
ATOM     26  F   LIG    1        8.640  -1.868  -0.574  0.00  0.00    -0.120 F 
ATOM     27  C   LIG    1        6.775  -0.494  -3.392  0.00  0.00    +0.160 A 
ATOM     28  F   LIG    1        5.710   0.302  -3.631  0.00  0.00    -0.110 F 
ENDBRANCH  18  21
ENDBRANCH  15  16
ENDBRANCH   1  15
TORSDOF 7
