REMARK  Name = ZINCkj000005hUKW.0
REMARK                            x       y       z     vdW  Elec       q    Type
REMARK                         _______ _______ _______ _____ _____    ______ ____
ROOT
ATOM      1  O   LIG    1        2.990  -0.733  -2.870  0.00  0.00    -0.320 OA
ENDROOT
BRANCH   1   6
ATOM      2  C   LIG    1        5.550  -2.694  -4.576  0.00  0.00    -0.080 A 
ATOM      3  C   LIG    1        5.279  -2.362  -5.905  0.00  0.00    +0.070 A 
ATOM      4  C   LIG    1        4.250  -1.493  -6.202  0.00  0.00    +0.050 A 
ATOM      5  C   LIG    1        3.484  -0.948  -5.188  0.00  0.00    -0.030 A 
ATOM      6  C   LIG    1        3.746  -1.272  -3.863  0.00  0.00    +0.100 A 
ATOM      7  C   LIG    1        4.780  -2.139  -3.553  0.00  0.00    +0.070 A 
BRANCH   2   8
ATOM      8  C   LIG    1        6.652  -3.624  -4.254  0.00  0.00    +0.510 C 
ATOM      9  O   LIG    1        6.886  -3.910  -3.097  0.00  0.00    -0.500 OA
BRANCH   8  11
ATOM     10  C   LIG    1        8.462  -5.060  -4.852  0.00  0.00    +0.290 C 
ATOM     11  O   LIG    1        7.397  -4.154  -5.243  0.00  0.00    -0.350 OA
ENDBRANCH   8  11
ENDBRANCH   2   8
ENDBRANCH   1   6
BRANCH   1  12
ATOM     12  C   LIG    1        1.944   0.158  -3.262  0.00  0.00    +0.230 C 
BRANCH  12  13
ATOM     13  C   LIG    1        1.208   0.659  -2.018  0.00  0.00    +0.280 C 
BRANCH  13  14
ATOM     14  N   LIG    1        2.123   1.469  -1.202  0.00  0.00    -0.380 N 
ATOM     15  C   LIG    1        3.190   0.608  -0.648  0.00  0.00    +0.280 C 
ATOM     16  C   LIG    1        3.466   1.180   0.765  0.00  0.00    +0.070 C 
ATOM     17  C   LIG    1        2.041   1.584   1.224  0.00  0.00    +0.090 C 
ATOM     18  C   LIG    1        1.381   2.077  -0.082  0.00  0.00    +0.170 C 
ATOM     19  H   LIG    1        2.533   2.194  -1.771  0.00  0.00    +0.430 HD
BRANCH  18  20
ATOM     20  C   LIG    1       -0.082   1.634  -0.125  0.00  0.00    +0.200 C 
BRANCH  20  21
ATOM     21  O   LIG    1       -0.762   2.123   1.033  0.00  0.00    -0.560 OA
ATOM     22  H   LIG    1       -1.697   1.879   1.072  0.00  0.00    +0.410 HD
ENDBRANCH  20  21
ENDBRANCH  18  20
ENDBRANCH  13  14
ENDBRANCH  12  13
ENDBRANCH   1  12
TORSDOF 8
