REMARK  Name = ZINCkj000005hUKW.1
REMARK                            x       y       z     vdW  Elec       q    Type
REMARK                         _______ _______ _______ _____ _____    ______ ____
ROOT
ATOM      1  O   LIG    1       -1.959  -0.568   1.464  0.00  0.00    -0.320 OA
ENDROOT
BRANCH   1   6
ATOM      2  C   LIG    1       -4.224  -3.406   1.814  0.00  0.00    -0.080 A 
ATOM      3  C   LIG    1       -5.457  -2.758   1.726  0.00  0.00    +0.070 A 
ATOM      4  C   LIG    1       -5.506  -1.390   1.551  0.00  0.00    +0.050 A 
ATOM      5  C   LIG    1       -4.337  -0.657   1.469  0.00  0.00    -0.030 A 
ATOM      6  C   LIG    1       -3.105  -1.294   1.550  0.00  0.00    +0.100 A 
ATOM      7  C   LIG    1       -3.044  -2.666   1.725  0.00  0.00    +0.070 A 
BRANCH   2   8
ATOM      8  C   LIG    1       -4.167  -4.871   2.001  0.00  0.00    +0.510 C 
ATOM      9  O   LIG    1       -3.093  -5.432   2.077  0.00  0.00    -0.500 OA
BRANCH   8  11
ATOM     10  C   LIG    1       -5.176  -7.018   2.269  0.00  0.00    +0.290 C 
ATOM     11  O   LIG    1       -5.307  -5.583   2.086  0.00  0.00    -0.350 OA
ENDBRANCH   8  11
ENDBRANCH   2   8
ENDBRANCH   1   6
BRANCH   1  12
ATOM     12  C   LIG    1       -2.096   0.843   1.283  0.00  0.00    +0.230 C 
BRANCH  12  13
ATOM     13  C   LIG    1       -0.709   1.484   1.208  0.00  0.00    +0.290 C 
BRANCH  13  14
ATOM     14  N   LIG    1       -0.012   1.005   0.008  0.00  0.00    -0.390 N 
ATOM     15  C   LIG    1       -0.708   1.500  -1.199  0.00  0.00    +0.260 C 
ATOM     16  C   LIG    1        0.059   2.785  -1.599  0.00  0.00    +0.080 C 
ATOM     17  C   LIG    1        1.523   2.393  -1.266  0.00  0.00    +0.090 C 
ATOM     18  C   LIG    1        1.370   1.520  -0.003  0.00  0.00    +0.180 C 
ATOM     19  H   LIG    1        0.002  -0.004   0.002  0.00  0.00    +0.430 HD
BRANCH  18  20
ATOM     20  C   LIG    1        2.360   0.354  -0.053  0.00  0.00    +0.220 C 
BRANCH  20  21
ATOM     21  O   LIG    1        2.212  -0.343  -1.292  0.00  0.00    -0.580 OA
ATOM     22  H   LIG    1        2.809  -1.096  -1.393  0.00  0.00    +0.410 HD
ENDBRANCH  20  21
ENDBRANCH  18  20
ENDBRANCH  13  14
ENDBRANCH  12  13
ENDBRANCH   1  12
TORSDOF 8
