REMARK  Name = ZINCvU0000000CeM.0
REMARK                            x       y       z     vdW  Elec       q    Type
REMARK                         _______ _______ _______ _____ _____    ______ ____
ROOT
ATOM      1  C   LIG    1        6.983  -0.286   0.274  0.00  0.00    +0.520 C 
ATOM      2  O   LIG    1        7.386   0.799   0.641  0.00  0.00    -0.490 OA
ENDROOT
BRANCH   1   5
ATOM      3  C   LIG    1        3.936   0.686  -1.691  0.00  0.00    -0.690 A 
ATOM      4  C   LIG    1        5.076   0.780  -0.922  0.00  0.00    +0.230 A 
ATOM      5  C   LIG    1        5.764  -0.379  -0.555  0.00  0.00    -0.140 A 
ATOM      6  C   LIG    1        5.298  -1.625  -0.979  0.00  0.00    +0.170 A 
ATOM      7  C   LIG    1        4.159  -1.705  -1.752  0.00  0.00    +0.020 A 
ATOM      8  C   LIG    1        3.478  -0.553  -2.108  0.00  0.00    +0.080 A 
ATOM      9 CL   LIG    1        2.045  -0.662  -3.082  0.00  0.00    -0.020 Cl
BRANCH   3  10
ATOM     10  S   LIG    1        3.063   2.146  -2.151  0.00  0.00    +2.690 S 
ATOM     11  O   LIG    1        1.684   1.871  -1.946  0.00  0.00    -0.930 OA
ATOM     12  O   LIG    1        3.740   3.230  -1.530  0.00  0.00    -0.940 OA
BRANCH  10  13
ATOM     13  N   LIG    1        3.263   2.343  -3.783  0.00  0.00    -0.990 NA
BRANCH  13  15
ATOM     14  C   LIG    1        3.096   0.530  -5.416  0.00  0.00    +0.010 C 
ATOM     15  C   LIG    1        2.356   1.673  -4.718  0.00  0.00    +0.290 C 
ENDBRANCH  13  15
BRANCH  13  16
ATOM     16  C   LIG    1        4.347   3.188  -4.291  0.00  0.00    +0.280 C 
ATOM     17  C   LIG    1        3.814   4.598  -4.556  0.00  0.00    +0.020 C 
ENDBRANCH  13  16
ENDBRANCH  10  13
ENDBRANCH   3  10
ENDBRANCH   1   5
BRANCH   1  18
ATOM     18  O   LIG    1        7.647  -1.405   0.622  0.00  0.00    -0.330 OA
BRANCH  18  19
ATOM     19  C   LIG    1        8.837  -1.239   1.437  0.00  0.00    +0.280 C 
BRANCH  19  20
ATOM     20  C   LIG    1        9.442  -2.588   1.725  0.00  0.00    +0.510 C 
ATOM     21  N   LIG    1       10.562  -2.680   2.470  0.00  0.00    -0.670 N 
ATOM     22  H   LIG    1       10.949  -1.883   2.864  0.00  0.00    +0.420 HD
ATOM     23  O   LIG    1        8.922  -3.592   1.286  0.00  0.00    -0.470 OA
BRANCH  21  24
ATOM     24  C   LIG    1       11.165  -3.927   2.676  0.00  0.00    +0.160 A 
ATOM     25  C   LIG    1       10.400  -5.012   3.085  0.00  0.00    -0.010 A 
ATOM     26  C   LIG    1       10.998  -6.243   3.282  0.00  0.00    +0.080 A 
ATOM     27  C   LIG    1       12.359  -6.392   3.084  0.00  0.00    -0.020 A 
ATOM     28  C   LIG    1       13.125  -5.312   2.683  0.00  0.00    +0.080 A 
ATOM     29 CL   LIG    1       13.107  -7.938   3.340  0.00  0.00    -0.040 Cl
ATOM     30 CL   LIG    1        8.693  -4.825   3.339  0.00  0.00    -0.010 Cl
ATOM     31  C   LIG    1       12.532  -4.080   2.479  0.00  0.00    -0.030 A 
ATOM     32 CL   LIG    1       13.494  -2.726   1.974  0.00  0.00    -0.030 Cl
ENDBRANCH  21  24
ENDBRANCH  19  20
ENDBRANCH  18  19
ENDBRANCH   1  18
TORSDOF 9
