REMARK  Name = ZINCkj000005lsdJ.0
REMARK                            x       y       z     vdW  Elec       q    Type
REMARK                         _______ _______ _______ _____ _____    ______ ____
ROOT
ATOM      1  N   LIG    1        2.088   3.300   3.121  0.00  0.00    -0.720 N 
ATOM      2  H   LIG    1        2.439   3.598   2.267  0.00  0.00    +0.400 HD
ATOM      3  C   LIG    1        2.793   3.511   4.250  0.00  0.00    +0.570 C 
ATOM      4  O   LIG    1        2.354   3.136   5.320  0.00  0.00    -0.520 OA
ENDROOT
BRANCH   3   5
ATOM      5  C   LIG    1        4.101   4.197   4.187  0.00  0.00    -0.150 A 
ATOM      6  C   LIG    1        4.605   4.627   2.961  0.00  0.00    +0.040 A 
ATOM      7  C   LIG    1        5.827   5.266   2.909  0.00  0.00    +0.000 A 
ATOM      8  C   LIG    1        6.546   5.478   4.070  0.00  0.00    +0.050 A 
ATOM      9  C   LIG    1        6.052   5.052   5.295  0.00  0.00    -0.130 A 
ATOM     10  C   LIG    1        6.877   5.300   6.532  0.00  0.00    +0.280 C 
ATOM     11  O   LIG    1        6.074   5.144   7.701  0.00  0.00    -0.370 OA
ATOM     12  C   LIG    1        5.360   3.902   7.732  0.00  0.00    +0.210 C 
ATOM     13  C   LIG    1        4.258   3.951   6.672  0.00  0.00    +0.080 C 
ATOM     14  C   LIG    1        4.831   4.422   5.360  0.00  0.00    -0.010 A 
ENDBRANCH   3   5
BRANCH   1  19
ATOM     15  C   LIG    1       -0.013   1.086   0.008  0.00  0.00    +0.120 C 
ATOM     16  C   LIG    1        1.336   1.812  -0.001  0.00  0.00    +0.140 C 
ATOM     17  C   LIG    1        0.486   1.790   1.265  0.00  0.00    -0.140 C 
ATOM     18  C   LIG    1        0.822   1.183   2.631  0.00  0.00    +0.090 C 
ATOM     19  C   LIG    1        0.792   2.619   3.183  0.00  0.00    +0.250 C 
ATOM     20  C   LIG    1       -0.144   2.970   2.013  0.00  0.00    +0.080 C 
BRANCH  15  21
ATOM     21  N   LIG    1       -1.123   1.709  -0.724  0.00  0.00    -0.610 N 
ATOM     22  H   LIG    1       -0.853   2.633  -1.024  0.00  0.00    +0.430 HD
ATOM     23  H   LIG    1       -1.930   1.773  -0.121  0.00  0.00    +0.440 HD
ATOM     24  H   LIG    1       -1.351   1.147  -1.531  0.00  0.00    +0.440 HD
ENDBRANCH  15  21
ENDBRANCH   1  19
TORSDOF 3
