REMARK  Name = ZINCpe000000WiAF.0
REMARK                            x       y       z     vdW  Elec       q    Type
REMARK                         _______ _______ _______ _____ _____    ______ ____
ROOT
ATOM      1  C   LIG    1        0.008  -2.345  -2.845  0.00  0.00    +0.000 C 
ATOM      2  N   LIG    1       -0.017  -1.648  -3.937  0.00  0.00    -0.110 NA
ATOM      3  N   LIG    1       -0.011  -2.416  -5.099  0.00  0.00    -0.430 N 
ATOM      4  C   LIG    1        0.011  -3.840  -4.730  0.00  0.00    +0.210 C 
ATOM      5  C   LIG    1        0.025  -3.817  -3.189  0.00  0.00    +0.140 C 
ENDROOT
BRANCH   3   6
ATOM      6  C   LIG    1       -0.029  -1.916  -6.402  0.00  0.00    +0.220 A 
ATOM      7  C   LIG    1       -0.021  -2.789  -7.484  0.00  0.00    -0.040 A 
ATOM      8  C   LIG    1       -0.043  -2.291  -8.771  0.00  0.00    +0.050 A 
ATOM      9  C   LIG    1       -0.064  -0.925  -8.986  0.00  0.00    -0.020 A 
ATOM     10  C   LIG    1       -0.068  -0.053  -7.912  0.00  0.00    +0.050 A 
ATOM     11  C   LIG    1       -0.050  -0.544  -6.622  0.00  0.00    -0.020 A 
ENDBRANCH   3   6
BRANCH   4  12
ATOM     12  C   LIG    1       -1.223  -4.539  -5.238  0.00  0.00    +0.510 C 
ATOM     13  O   LIG    1       -2.172  -3.890  -5.624  0.00  0.00    -0.510 OA
ATOM     14  N   LIG    1       -1.272  -5.886  -5.265  0.00  0.00    -0.850 N 
ATOM     15  H   LIG    1       -2.067  -6.336  -5.592  0.00  0.00    +0.410 HD
ATOM     16  H   LIG    1       -0.513  -6.405  -4.957  0.00  0.00    +0.400 HD
ENDBRANCH   4  12
BRANCH   1  17
ATOM     17  C   LIG    1        0.013  -1.810  -1.532  0.00  0.00    +0.560 C 
ATOM     18  O   LIG    1        0.032  -2.556  -0.571  0.00  0.00    -0.490 OA
BRANCH  17  19
ATOM     19  O   LIG    1       -0.004  -0.473  -1.348  0.00  0.00    -0.330 OA
BRANCH  19  20
ATOM     20  C   LIG    1        0.002  -0.004   0.002  0.00  0.00    +0.360 C 
BRANCH  20  24
ATOM     21  C   LIG    1       -0.583   3.613   0.027  0.00  0.00    +0.210 A 
ATOM     22  N   LIG    1        0.717   3.482   0.014  0.00  0.00    -0.400 NA
ATOM     23  O   LIG    1        1.046   2.319   0.004  0.00  0.00    +0.110 OA
ATOM     24  C   LIG    1       -0.018   1.503   0.010  0.00  0.00    -0.020 A 
ATOM     25  C   LIG    1       -1.114   2.296   0.019  0.00  0.00    -0.010 A 
BRANCH  21  27
ATOM     26  C   LIG    1       -0.530   5.988   0.039  0.00  0.00    +0.260 C 
ATOM     27  O   LIG    1       -1.285   4.774   0.040  0.00  0.00    -0.280 OA
ENDBRANCH  21  27
ENDBRANCH  20  24
ENDBRANCH  19  20
ENDBRANCH  17  19
ENDBRANCH   1  17
TORSDOF 7
