REMARK  Name = ZINCqH0000004X06.0
REMARK                            x       y       z     vdW  Elec       q    Type
REMARK                         _______ _______ _______ _____ _____    ______ ____
ROOT
ATOM      1  C   LIG    1        3.614   2.177   0.990  0.00  0.00    +0.120 C 
ENDROOT
BRANCH   1   4
ATOM      2  C   LIG    1        1.814   2.829  -1.099  0.00  0.00    +0.300 C 
ATOM      3  N   LIG    1        1.357   1.975  -0.000  0.00  0.00    -0.610 N 
ATOM      4  C   LIG    1        2.200   1.655   1.001  0.00  0.00    +0.530 C 
ATOM      5  O   LIG    1        1.822   0.948   1.910  0.00  0.00    -0.510 OA
BRANCH   3   6
ATOM      6  C   LIG    1       -0.018   1.468   0.010  0.00  0.00    +0.280 C 
ATOM      7  C   LIG    1       -0.734   1.961   1.269  0.00  0.00    +0.050 C 
ATOM      8  C   LIG    1       -2.169   1.432   1.280  0.00  0.00    +0.020 C 
ATOM      9  C   LIG    1       -2.909   1.938   0.040  0.00  0.00    +0.020 C 
ATOM     10  C   LIG    1       -2.193   1.445  -1.219  0.00  0.00    +0.020 C 
ATOM     11  C   LIG    1       -0.758   1.975  -1.229  0.00  0.00    +0.060 C 
BRANCH   6  12
ATOM     12  C   LIG    1        0.002  -0.004   0.002  0.00  0.00    +0.200 C 
ATOM     13  N   LIG    1        0.018  -1.140  -0.004  0.00  0.00    -0.410 NA
ENDBRANCH   6  12
ENDBRANCH   3   6
ENDBRANCH   1   4
BRANCH   1  14
ATOM     14  S   LIG    1        4.490   1.577   2.457  0.00  0.00    +0.070 S 
BRANCH  14  15
ATOM     15  C   LIG    1        6.067   2.316   2.194  0.00  0.00    +0.180 A 
ATOM     16  N   LIG    1        6.401   3.075   1.177  0.00  0.00    -0.480 NA
ATOM     17  C   LIG    1        7.681   3.460   1.308  0.00  0.00    +0.170 A 
ATOM     18  C   LIG    1        8.170   2.928   2.442  0.00  0.00    +0.140 A 
ATOM     19  N   LIG    1        7.149   2.201   3.017  0.00  0.00    -0.400 N 
BRANCH  19  20
ATOM     20  C   LIG    1        7.212   1.480   4.217  0.00  0.00    +0.140 A 
ATOM     21  C   LIG    1        6.236   1.659   5.188  0.00  0.00    +0.020 A 
ATOM     22  C   LIG    1        6.296   0.943   6.368  0.00  0.00    +0.080 A 
ATOM     23  C   LIG    1        7.333   0.056   6.588  0.00  0.00    +0.010 A 
ATOM     24  C   LIG    1        8.312  -0.121   5.625  0.00  0.00    +0.120 A 
ATOM     25  F   LIG    1        9.325  -0.989   5.842  0.00  0.00    -0.130 F 
ATOM     26  C   LIG    1        8.253   0.589   4.439  0.00  0.00    -0.010 A 
ENDBRANCH  19  20
ENDBRANCH  14  15
ENDBRANCH   1  14
TORSDOF 6
