REMARK  Name = ZINCzw0000000e2o.0
REMARK                            x       y       z     vdW  Elec       q    Type
REMARK                         _______ _______ _______ _____ _____    ______ ____
ROOT
ATOM      1  C   LIG    1       -4.512   1.044  -1.371  0.00  0.00    +0.540 C 
ATOM      2  N   LIG    1       -5.607   1.829  -1.352  0.00  0.00    -0.600 N 
ATOM      3  C   LIG    1       -5.478   3.293  -1.390  0.00  0.00    +0.280 C 
ATOM      4  C   LIG    1       -6.300   3.827  -2.570  0.00  0.00    +0.270 C 
ATOM      5  N   LIG    1       -7.644   3.235  -2.512  0.00  0.00    -0.610 N 
ATOM      6  C   LIG    1       -7.772   1.772  -2.474  0.00  0.00    +0.240 C 
ATOM      7  C   LIG    1       -7.247   1.176  -3.782  0.00  0.00    +0.040 C 
ATOM      8  C   LIG    1       -8.739   4.021  -2.494  0.00  0.00    +0.500 C 
ATOM      9  O   LIG    1       -9.843   3.522  -2.446  0.00  0.00    -0.500 OA
ATOM     10  C   LIG    1       -6.951   1.238  -1.300  0.00  0.00    +0.290 C 
ATOM     11  O   LIG    1       -4.632  -0.165  -1.435  0.00  0.00    -0.520 OA
ENDROOT
BRANCH   1  13
ATOM     12  C   LIG    1       -2.095   0.872  -1.232  0.00  0.00    +0.000 C 
ATOM     13  C   LIG    1       -3.172   1.648  -1.313  0.00  0.00    +0.000 C 
BRANCH  12  14
ATOM     14  C   LIG    1       -0.723   1.491  -1.173  0.00  0.00    +0.320 C 
BRANCH  14  15
ATOM     15  N   LIG    1       -0.015   1.000   0.017  0.00  0.00    -0.390 N 
ATOM     16  C   LIG    1       -0.705   1.470   1.226  0.00  0.00    +0.310 C 
ATOM     17  H   LIG    1       -0.001  -0.009   0.008  0.00  0.00    +0.430 HD
BRANCH  15  18
ATOM     18  C   LIG    1        1.364   1.508   0.011  0.00  0.00    +0.430 C 
BRANCH  18  20
ATOM     19  C   LIG    1        2.701   0.454   2.036  0.00  0.00    +0.190 C 
ATOM     20  C   LIG    1        2.108   0.922   1.138  0.00  0.00    -0.300 C 
ENDBRANCH  18  20
ENDBRANCH  15  18
ENDBRANCH  14  15
ENDBRANCH  12  14
ENDBRANCH   1  13
BRANCH   8  21
ATOM     21  C   LIG    1       -8.591   5.520  -2.533  0.00  0.00    +0.340 C 
BRANCH  21  22
ATOM     22  N   LIG    1       -9.917   6.143  -2.503  0.00  0.00    -0.480 N 
ATOM     23  C   LIG    1      -10.623   6.516  -1.374  0.00  0.00    +0.070 A 
ATOM     24  C   LIG    1      -10.365   6.447  -0.013  0.00  0.00    +0.000 A 
ATOM     25  C   LIG    1      -11.298   6.919   0.887  0.00  0.00    +0.040 A 
ATOM     26  C   LIG    1      -12.493   7.463   0.442  0.00  0.00    +0.010 A 
ATOM     27  C   LIG    1      -12.767   7.541  -0.905  0.00  0.00    +0.080 A 
ATOM     28  C   LIG    1      -11.833   7.067  -1.832  0.00  0.00    +0.050 A 
ATOM     29  N   LIG    1      -11.815   7.007  -3.186  0.00  0.00    -0.460 NA
ATOM     30  C   LIG    1      -10.687   6.469  -3.589  0.00  0.00    +0.370 A 
BRANCH  30  31
ATOM     31  C   LIG    1      -10.309   6.245  -4.993  0.00  0.00    -0.190 A 
ATOM     32  C   LIG    1      -11.056   6.554  -6.079  0.00  0.00    +0.140 A 
ATOM     33  N   LIG    1      -10.489   6.256  -7.224  0.00  0.00    -0.460 NA
ATOM     34  C   LIG    1       -9.319   5.708  -7.182  0.00  0.00    +0.260 A 
ATOM     35  C   LIG    1      -12.419   7.190  -5.982  0.00  0.00    +0.170 C 
ATOM     36  S   LIG    1       -8.807   5.521  -5.562  0.00  0.00    +0.120 S 
ENDBRANCH  30  31
ENDBRANCH  21  22
ENDBRANCH   8  21
TORSDOF 8
