REMARK  Name = ZINCzw0000000e2o.1
REMARK                            x       y       z     vdW  Elec       q    Type
REMARK                         _______ _______ _______ _____ _____    ______ ____
ROOT
ATOM      1  C   LIG    1        2.414   1.038  -0.015  0.00  0.00    +0.540 C 
ATOM      2  N   LIG    1        3.568   1.725  -0.124  0.00  0.00    -0.600 N 
ATOM      3  C   LIG    1        3.569   3.194  -0.118  0.00  0.00    +0.280 C 
ATOM      4  C   LIG    1        4.508   3.679   0.993  0.00  0.00    +0.270 C 
ATOM      5  N   LIG    1        5.790   2.972   0.866  0.00  0.00    -0.610 N 
ATOM      6  C   LIG    1        5.790   1.502   0.859  0.00  0.00    +0.240 C 
ATOM      7  C   LIG    1        5.302   0.983   2.213  0.00  0.00    +0.040 C 
ATOM      8  C   LIG    1        6.945   3.658   0.756  0.00  0.00    +0.500 C 
ATOM      9  O   LIG    1        7.997   3.063   0.652  0.00  0.00    -0.500 OA
ATOM     10  C   LIG    1        4.851   1.017  -0.246  0.00  0.00    +0.290 C 
ATOM     11  O   LIG    1        2.433  -0.174   0.074  0.00  0.00    -0.520 OA
ENDROOT
BRANCH   1  13
ATOM     12  C   LIG    1       -0.013   1.075   0.003  0.00  0.00    +0.000 C 
ATOM     13  C   LIG    1        1.130   1.756  -0.004  0.00  0.00    +0.010 C 
BRANCH  12  14
ATOM     14  C   LIG    1       -1.328   1.810   0.009  0.00  0.00    +0.320 C 
BRANCH  14  15
ATOM     15  N   LIG    1       -2.146   1.358  -1.125  0.00  0.00    -0.390 N 
ATOM     16  C   LIG    1       -2.492  -0.058  -0.944  0.00  0.00    +0.330 C 
ATOM     17  H   LIG    1       -1.626   1.471  -1.982  0.00  0.00    +0.430 HD
BRANCH  15  18
ATOM     18  C   LIG    1       -3.377   2.158  -1.190  0.00  0.00    +0.430 C 
BRANCH  18  20
ATOM     19  C   LIG    1       -4.748   1.492  -3.353  0.00  0.00    +0.190 C 
ATOM     20  C   LIG    1       -4.139   1.787  -2.393  0.00  0.00    -0.300 C 
ENDBRANCH  18  20
ENDBRANCH  15  18
ENDBRANCH  14  15
ENDBRANCH  12  14
ENDBRANCH   1  13
BRANCH   8  21
ATOM     21  C   LIG    1        6.929   5.165   0.764  0.00  0.00    +0.340 C 
BRANCH  21  22
ATOM     22  N   LIG    1        8.299   5.668   0.633  0.00  0.00    -0.480 N 
ATOM     23  C   LIG    1        8.959   5.954  -0.547  0.00  0.00    +0.070 A 
ATOM     24  C   LIG    1        8.608   5.878  -1.887  0.00  0.00    +0.000 A 
ATOM     25  C   LIG    1        9.517   6.247  -2.857  0.00  0.00    +0.040 A 
ATOM     26  C   LIG    1       10.781   6.694  -2.503  0.00  0.00    +0.010 A 
ATOM     27  C   LIG    1       11.148   6.777  -1.179  0.00  0.00    +0.080 A 
ATOM     28  C   LIG    1       10.240   6.407  -0.182  0.00  0.00    +0.050 A 
ATOM     29  N   LIG    1       10.305   6.378   1.171  0.00  0.00    -0.460 NA
ATOM     30  C   LIG    1        9.164   5.949   1.659  0.00  0.00    +0.370 A 
BRANCH  30  31
ATOM     31  C   LIG    1        8.861   5.790   3.090  0.00  0.00    -0.190 A 
ATOM     32  C   LIG    1        9.701   6.056   4.118  0.00  0.00    +0.140 A 
ATOM     33  N   LIG    1        9.187   5.832   5.304  0.00  0.00    -0.460 NA
ATOM     34  C   LIG    1        7.974   5.388   5.351  0.00  0.00    +0.260 A 
ATOM     35  C   LIG    1       11.105   6.567   3.917  0.00  0.00    +0.170 C 
ATOM     36  S   LIG    1        7.343   5.212   3.772  0.00  0.00    +0.120 S 
ENDBRANCH  30  31
ENDBRANCH  21  22
ENDBRANCH   8  21
TORSDOF 8
