REMARK  Name = ZINCpe00000MFokU.0
REMARK                            x       y       z     vdW  Elec       q    Type
REMARK                         _______ _______ _______ _____ _____    ______ ____
ROOT
ATOM      1  N   LIG    1       -2.063   4.786  -0.256  0.00  0.00    -1.100 NA
ATOM      2  H   LIG    1       -1.251   5.315  -0.209  0.00  0.00    +0.420 HD
ENDROOT
BRANCH   1   9
ATOM      3  C   LIG    1       -1.453   1.852  -3.199  0.00  0.00    +0.220 A 
ATOM      4  N   LIG    1       -0.631   1.119  -2.491  0.00  0.00    -0.310 NA
ATOM      5  N   LIG    1       -0.726   1.573  -1.173  0.00  0.00    -0.370 N 
ATOM      6  C   LIG    1       -0.013   1.086   0.008  0.00  0.00    +0.310 C 
ATOM      7  C   LIG    1       -0.736   1.583   1.265  0.00  0.00    +0.050 C 
ATOM      8  C   LIG    1       -0.982   3.091   1.150  0.00  0.00    +0.060 C 
ATOM      9  C   LIG    1       -2.024   3.355   0.055  0.00  0.00    +0.360 C 
ATOM     10  C   LIG    1       -1.623   2.577  -1.175  0.00  0.00    +0.250 A 
ATOM     11  N   LIG    1       -2.052   2.733  -2.396  0.00  0.00    -0.490 NA
BRANCH   3  13
ATOM     12  C   LIG    1       -0.707   2.623  -5.435  0.00  0.00    +0.030 C 
ATOM     13  C   LIG    1       -1.687   1.720  -4.682  0.00  0.00    +0.150 C 
ENDBRANCH   3  13
ENDBRANCH   1   9
BRANCH   1  14
ATOM     14  S   LIG    1       -3.493   5.501  -0.687  0.00  0.00    +2.720 S 
ATOM     15  O   LIG    1       -4.070   4.673  -1.687  0.00  0.00    -0.930 OA
ATOM     16  O   LIG    1       -3.209   6.879  -0.887  0.00  0.00    -0.950 OA
BRANCH  14  17
ATOM     17  C   LIG    1       -4.563   5.411   0.711  0.00  0.00    -0.820 A 
ATOM     18  C   LIG    1       -5.427   4.408   0.989  0.00  0.00    +0.360 A 
ATOM     19  N   LIG    1       -6.056   4.714   2.143  0.00  0.00    -0.350 N 
ATOM     20  N   LIG    1       -5.568   5.951   2.584  0.00  0.00    -0.280 NA
ATOM     21  C   LIG    1       -4.673   6.368   1.725  0.00  0.00    +0.340 A 
BRANCH  19  22
ATOM     22  C   LIG    1       -7.073   3.900   2.813  0.00  0.00    +0.250 C 
ATOM     23  C   LIG    1       -8.471   4.186   2.221  0.00  0.00    +0.020 C 
ATOM     24  C   LIG    1       -8.920   2.825   1.645  0.00  0.00    +0.220 C 
ATOM     25  O   LIG    1       -8.168   1.843   2.389  0.00  0.00    -0.360 OA
ATOM     26  C   LIG    1       -6.843   2.400   2.524  0.00  0.00    +0.220 C 
ENDBRANCH  19  22
ENDBRANCH  14  17
ENDBRANCH   1  14
TORSDOF 5
