REMARK  Name = ZINCrH000004k82M.1
REMARK                            x       y       z     vdW  Elec       q    Type
REMARK                         _______ _______ _______ _____ _____    ______ ____
ROOT
ATOM      1  N   LIG    1       -1.689   3.468   4.949  0.00  0.00    -0.610 N 
ATOM      2  C   LIG    1       -2.650   2.809   5.627  0.00  0.00    +0.520 C 
ATOM      3  O   LIG    1       -3.111   1.781   5.178  0.00  0.00    -0.520 OA
ENDROOT
BRANCH   1   4
ATOM      4  C   LIG    1       -1.133   2.894   3.722  0.00  0.00    +0.280 C 
BRANCH   4   5
ATOM      5  C   LIG    1       -1.950   3.372   2.520  0.00  0.00    +0.170 C 
BRANCH   5  10
ATOM      6  C   LIG    1       -0.806   0.481  -2.196  0.00  0.00    +0.190 C 
ATOM      7  N   LIG    1       -1.364   1.057  -0.965  0.00  0.00    -0.550 NA
ATOM      8  C   LIG    1       -0.473   0.817   0.179  0.00  0.00    +0.180 C 
ATOM      9  C   LIG    1       -1.125   1.361   1.453  0.00  0.00    +0.180 C 
ATOM     10  N   LIG    1       -1.393   2.796   1.289  0.00  0.00    -0.540 NA
ATOM     11  C   LIG    1       -2.284   3.036   0.145  0.00  0.00    +0.180 C 
ATOM     12  C   LIG    1       -1.631   2.492  -1.129  0.00  0.00    +0.180 C 
ENDBRANCH   5  10
ENDBRANCH   4   5
ENDBRANCH   1   4
BRANCH   2  13
ATOM     13  C   LIG    1       -3.151   3.348   6.942  0.00  0.00    +0.050 C 
BRANCH  13  14
ATOM     14  C   LIG    1       -4.337   2.508   7.419  0.00  0.00    +0.000 C 
ATOM     15  C   LIG    1       -5.539   2.705   6.473  0.00  0.00    +0.020 C 
ATOM     16  C   LIG    1       -6.769   2.692   7.415  0.00  0.00    +0.000 C 
ATOM     17  C   LIG    1       -6.252   3.448   8.664  0.00  0.00    -0.010 C 
ATOM     18  C   LIG    1       -4.790   2.980   8.812  0.00  0.00    +0.010 C 
ENDBRANCH  13  14
ENDBRANCH   2  13
BRANCH   1  19
ATOM     19  C   LIG    1       -1.201   4.759   5.441  0.00  0.00    +0.350 C 
BRANCH  19  20
ATOM     20  C   LIG    1        0.003   4.539   6.321  0.00  0.00    -0.130 A 
ATOM     21  C   LIG    1       -0.137   4.536   7.695  0.00  0.00    +0.060 A 
ATOM     22  C   LIG    1        0.966   4.329   8.503  0.00  0.00    +0.040 A 
ATOM     23  C   LIG    1        2.212   4.136   7.936  0.00  0.00    -0.060 A 
ATOM     24  C   LIG    1        2.355   4.144   6.560  0.00  0.00    +0.020 A 
ATOM     25 BR   LIG    1        3.721   3.861   9.042  0.00  0.00    -0.030 Br
ATOM     26  C   LIG    1        1.250   4.346   5.751  0.00  0.00    +0.120 A 
ATOM     27  F   LIG    1        1.389   4.354   4.408  0.00  0.00    -0.120 F 
ENDBRANCH  19  20
ENDBRANCH   1  19
TORSDOF 7
