REMARK  Name = ZINCqH0000000gN1.0
REMARK                            x       y       z     vdW  Elec       q    Type
REMARK                         _______ _______ _______ _____ _____    ______ ____
ROOT
ATOM      1  C   LIG    1        2.227   0.985   0.144  0.00  0.00    +0.240 A 
ATOM      2  N   LIG    1        1.289   1.875   0.210  0.00  0.00    -0.490 NA
ATOM      3  C   LIG    1        0.045   1.458   0.035  0.00  0.00    +0.180 A 
ATOM      4  C   LIG    1       -0.053   0.106  -0.195  0.00  0.00    -0.220 A 
ATOM      5  S   LIG    1        1.575  -0.564  -0.166  0.00  0.00    +0.280 S 
ENDROOT
BRANCH   4   6
ATOM      6  C   LIG    1       -1.294  -0.644  -0.424  0.00  0.00    +0.280 A 
ATOM      7  N   LIG    1       -2.499  -0.125  -0.552  0.00  0.00    -0.450 NA
ATOM      8  C   LIG    1       -3.385  -1.108  -0.752  0.00  0.00    +0.160 A 
ATOM      9  C   LIG    1       -2.727  -2.285  -0.743  0.00  0.00    +0.140 A 
ATOM     10  N   LIG    1       -1.401  -2.003  -0.535  0.00  0.00    -0.460 N 
ATOM     11  C   LIG    1       -0.306  -2.973  -0.450  0.00  0.00    +0.340 C 
ENDBRANCH   4   6
BRANCH   3  12
ATOM     12  C   LIG    1       -1.127   2.362   0.078  0.00  0.00    -0.030 A 
ATOM     13  C   LIG    1       -1.091   3.588  -0.587  0.00  0.00    +0.040 A 
ATOM     14  C   LIG    1       -2.188   4.423  -0.548  0.00  0.00    -0.020 A 
ATOM     15  C   LIG    1       -3.319   4.052   0.158  0.00  0.00    +0.010 A 
ATOM     16  C   LIG    1       -3.359   2.840   0.824  0.00  0.00    -0.010 A 
ATOM     17  C   LIG    1       -2.270   1.993   0.788  0.00  0.00    +0.090 A 
ENDBRANCH   3  12
BRANCH   1  19
ATOM     18  C   LIG    1        4.478   0.253   0.217  0.00  0.00    +0.510 C 
ATOM     19  N   LIG    1        3.578   1.253   0.304  0.00  0.00    -0.620 N 
ATOM     20  H   LIG    1        3.876   2.159   0.478  0.00  0.00    +0.430 HD
ATOM     21  O   LIG    1        4.106  -0.880  -0.002  0.00  0.00    -0.480 OA
BRANCH  18  22
ATOM     22  C   LIG    1        5.947   0.544   0.391  0.00  0.00    +0.180 C 
ATOM     23  C   LIG    1        6.206   1.021   1.821  0.00  0.00    +0.060 C 
BRANCH  22  24
ATOM     24  O   LIG    1        6.700  -0.644   0.141  0.00  0.00    -0.350 OA
BRANCH  24  25
ATOM     25  C   LIG    1        8.008  -0.404  -0.384  0.00  0.00    +0.220 C 
BRANCH  25  27
ATOM     26  C   LIG    1        9.366  -1.929  -1.722  0.00  0.00    +0.040 C 
ATOM     27  C   LIG    1        8.709  -1.719  -0.609  0.00  0.00    -0.040 C 
ENDBRANCH  25  27
ENDBRANCH  24  25
ENDBRANCH  22  24
ENDBRANCH  18  22
ENDBRANCH   1  19
TORSDOF 7
