REMARK  Name = ZINCqH0000004OHo.0
REMARK                            x       y       z     vdW  Elec       q    Type
REMARK                         _______ _______ _______ _____ _____    ______ ____
ROOT
ATOM      1  N   LIG    1       -5.418   1.934  -1.461  0.00  0.00    -0.620 N 
ATOM      2  H   LIG    1       -4.591   1.613  -1.855  0.00  0.00    +0.420 HD
ATOM      3  C   LIG    1       -5.427   2.388  -0.192  0.00  0.00    +0.590 C 
ATOM      4  O   LIG    1       -6.463   2.791   0.302  0.00  0.00    -0.450 OA
ENDROOT
BRANCH   3   5
ATOM      5  C   LIG    1       -4.186   2.398   0.594  0.00  0.00    -0.040 A 
ATOM      6  C   LIG    1       -4.076   2.831   1.877  0.00  0.00    -0.060 A 
ATOM      7  C   LIG    1       -2.672   2.656   2.245  0.00  0.00    -0.140 A 
ATOM      8  C   LIG    1       -1.930   2.906   3.401  0.00  0.00    -0.030 A 
ATOM      9  C   LIG    1       -0.593   2.623   3.423  0.00  0.00    -0.010 A 
ATOM     10  C   LIG    1        0.031   2.088   2.305  0.00  0.00    +0.060 A 
ATOM     11  C   LIG    1       -0.683   1.834   1.153  0.00  0.00    -0.090 A 
ATOM     12  C   LIG    1        0.010   1.254  -0.053  0.00  0.00    +0.100 C 
ATOM     13  C   LIG    1       -2.600   3.487   4.619  0.00  0.00    +0.110 C 
ATOM     14  C   LIG    1       -2.043   2.119   1.105  0.00  0.00    +0.080 A 
ATOM     15  C   LIG    1       -5.178   3.381   2.744  0.00  0.00    +0.150 C 
ATOM     16  O   LIG    1       -2.982   1.977   0.150  0.00  0.00    -0.180 OA
ENDBRANCH   3   5
BRANCH   1  19
ATOM     17  C   LIG    1       -6.235   0.942  -4.742  0.00  0.00    +0.270 A 
ATOM     18  C   LIG    1       -6.766   1.470  -3.588  0.00  0.00    -0.330 A 
ATOM     19  C   LIG    1       -6.597   1.925  -2.208  0.00  0.00    +0.280 A 
ATOM     20  N   LIG    1       -7.791   2.319  -1.816  0.00  0.00    -0.240 NA
ATOM     21  N   LIG    1       -8.680   2.194  -2.730  0.00  0.00    -0.310 NA
ATOM     22  C   LIG    1       -8.202   1.694  -3.840  0.00  0.00    +0.260 A 
ATOM     23  N   LIG    1       -8.422   1.275  -5.148  0.00  0.00    -0.380 N 
ATOM     24  C   LIG    1       -9.703   1.302  -5.858  0.00  0.00    +0.370 C 
ATOM     25  N   LIG    1       -7.201   0.824  -5.666  0.00  0.00    -0.430 N 
ATOM     26  H   LIG    1       -7.073   0.476  -6.562  0.00  0.00    +0.450 HD
BRANCH  17  28
ATOM     27  C   LIG    1       -4.618  -0.936  -4.648  0.00  0.00    +0.060 C 
ATOM     28  C   LIG    1       -4.791   0.557  -4.938  0.00  0.00    +0.120 C 
ENDBRANCH  17  28
ENDBRANCH   1  19
TORSDOF 3
