REMARK  Name = ZINCvU00000009qj.0
REMARK                            x       y       z     vdW  Elec       q    Type
REMARK                         _______ _______ _______ _____ _____    ______ ____
ROOT
ATOM      1  C   LIG    1       -0.747   2.299   1.258  0.00  0.00    +0.080 C 
ATOM      2  C   LIG    1       -0.022   1.804   0.005  0.00  0.00    +0.020 C 
ENDROOT
BRANCH   2   3
ATOM      3  C   LIG    1        1.391   2.328   0.003  0.00  0.00    +0.540 C 
ATOM      4  N   LIG    1        1.640   3.592  -0.394  0.00  0.00    -0.660 N 
ATOM      5  H   LIG    1        0.921   4.142  -0.741  0.00  0.00    +0.410 HD
ATOM      6  O   LIG    1        2.304   1.613   0.357  0.00  0.00    -0.500 OA
BRANCH   4   7
ATOM      7  C   LIG    1        2.937   4.110  -0.305  0.00  0.00    +0.130 A 
ATOM      8  C   LIG    1        3.131   5.450   0.002  0.00  0.00    -0.010 A 
ATOM      9  C   LIG    1        4.412   5.958   0.093  0.00  0.00    +0.030 A 
ATOM     10  C   LIG    1        5.501   5.135  -0.130  0.00  0.00    -0.080 A 
ATOM     11  C   LIG    1        5.311   3.801  -0.441  0.00  0.00    +0.020 A 
ATOM     12  C   LIG    1        4.032   3.287  -0.529  0.00  0.00    +0.020 A 
BRANCH  10  13
ATOM     13  C   LIG    1        6.897   5.694  -0.036  0.00  0.00    -0.030 C 
ATOM     14  C   LIG    1        7.673   4.946   1.050  0.00  0.00    +0.040 C 
ATOM     15  C   LIG    1        6.829   7.181   0.318  0.00  0.00    +0.030 C 
ATOM     16  C   LIG    1        7.607   5.522  -1.380  0.00  0.00    +0.040 C 
ENDBRANCH  10  13
ENDBRANCH   4   7
ENDBRANCH   2   3
BRANCH   2  17
ATOM     17  S   LIG    1        0.006  -0.006   0.000  0.00  0.00    +0.080 S 
BRANCH  17  18
ATOM     18  C   LIG    1       -1.718  -0.338  -0.147  0.00  0.00    +0.150 A 
ATOM     19  N   LIG    1       -2.681   0.551  -0.219  0.00  0.00    -0.290 NA
ATOM     20  N   LIG    1       -3.817  -0.042  -0.322  0.00  0.00    -0.250 NA
ATOM     21  C   LIG    1       -3.648  -1.334  -0.313  0.00  0.00    +0.180 A 
ATOM     22  N   LIG    1       -2.306  -1.569  -0.202  0.00  0.00    -0.450 N 
ATOM     23  C   LIG    1       -1.637  -2.872  -0.151  0.00  0.00    +0.360 C 
BRANCH  21  24
ATOM     24  C   LIG    1       -4.733  -2.376  -0.409  0.00  0.00    +0.350 C 
BRANCH  24  25
ATOM     25  O   LIG    1       -5.188  -2.712   0.903  0.00  0.00    -0.300 OA
BRANCH  25  26
ATOM     26  C   LIG    1       -6.173  -3.644   0.995  0.00  0.00    +0.140 A 
ATOM     27  C   LIG    1       -6.689  -4.224  -0.153  0.00  0.00    -0.060 A 
ATOM     28  C   LIG    1       -7.690  -5.173  -0.058  0.00  0.00    +0.060 A 
ATOM     29  C   LIG    1       -8.177  -5.543   1.182  0.00  0.00    +0.000 A 
ATOM     30  C   LIG    1       -7.665  -4.966   2.330  0.00  0.00    +0.070 A 
ATOM     31  C   LIG    1       -6.659  -4.022   2.240  0.00  0.00    -0.070 A 
ATOM     32 CL   LIG    1       -6.010  -3.304   3.681  0.00  0.00    -0.050 Cl
ENDBRANCH  25  26
ENDBRANCH  24  25
ENDBRANCH  21  24
ENDBRANCH  17  18
ENDBRANCH   2  17
TORSDOF 8
