REMARK  Name = ZINCvU0000000ARX.0
REMARK                            x       y       z     vdW  Elec       q    Type
REMARK                         _______ _______ _______ _____ _____    ______ ____
ROOT
ATOM      1  C   LIG    1        8.773   8.002  -0.035  0.00  0.00    -0.180 A 
ATOM      2  C   LIG    1        7.421   7.787  -0.029  0.00  0.00    +0.040 A 
ATOM      3  S   LIG    1        6.568   9.261  -0.014  0.00  0.00    +0.330 S 
ATOM      4  C   LIG    1        8.043  10.211  -0.024  0.00  0.00    -0.080 A 
ATOM      5  C   LIG    1        9.118   9.415  -0.038  0.00  0.00    -0.010 A 
ENDROOT
BRANCH   5   6
ATOM      6  C   LIG    1       10.513   9.918  -0.049  0.00  0.00    -0.030 A 
ATOM      7  C   LIG    1       11.441   9.428   0.868  0.00  0.00    +0.050 A 
ATOM      8  C   LIG    1       12.739   9.896   0.850  0.00  0.00    +0.030 A 
ATOM      9  C   LIG    1       13.117  10.860  -0.070  0.00  0.00    -0.030 A 
ATOM     10  C   LIG    1       12.197  11.355  -0.978  0.00  0.00    +0.030 A 
ATOM     11 CL   LIG    1       14.749  11.450  -0.083  0.00  0.00    -0.070 Cl
ATOM     12  C   LIG    1       10.898  10.889  -0.972  0.00  0.00    +0.050 A 
ENDBRANCH   5   6
BRANCH   2  13
ATOM     13  N   LIG    1        6.825   6.535  -0.029  0.00  0.00    -0.620 N 
ATOM     14  H   LIG    1        7.375   5.737  -0.038  0.00  0.00    +0.420 HD
ATOM     15  C   LIG    1        5.482   6.429  -0.018  0.00  0.00    +0.530 C 
ATOM     16  O   LIG    1        4.794   7.427  -0.007  0.00  0.00    -0.480 OA
BRANCH  15  17
ATOM     17  C   LIG    1        4.834   5.068  -0.018  0.00  0.00    +0.130 C 
BRANCH  17  18
ATOM     18  S   LIG    1        3.030   5.257  -0.000  0.00  0.00    +0.090 S 
BRANCH  18  19
ATOM     19  C   LIG    1        2.457   3.590  -0.003  0.00  0.00    +0.100 A 
ATOM     20  N   LIG    1        3.205   2.510  -0.015  0.00  0.00    -0.250 NA
ATOM     21  N   LIG    1        2.467   1.456  -0.013  0.00  0.00    -0.280 NA
ATOM     22  C   LIG    1        1.194   1.805   0.000  0.00  0.00    +0.200 A 
ATOM     23  C   LIG    1       -0.013   1.076   0.008  0.00  0.00    +0.080 A 
ATOM     24  C   LIG    1       -1.194   1.747   0.017  0.00  0.00    +0.070 A 
ATOM     25  C   LIG    1       -1.201   3.155   0.031  0.00  0.00    +0.030 A 
ATOM     26  C   LIG    1       -0.042   3.843   0.022  0.00  0.00    +0.230 A 
ATOM     27  N   LIG    1        1.156   3.183   0.008  0.00  0.00    -0.370 N 
ENDBRANCH  18  19
ENDBRANCH  17  18
ENDBRANCH  15  17
ENDBRANCH   2  13
BRANCH   1  28
ATOM     28  C   LIG    1        9.765   6.927  -0.042  0.00  0.00    +0.530 C 
ATOM     29  O   LIG    1       10.172   6.481  -1.098  0.00  0.00    -0.490 OA
BRANCH  28  30
ATOM     30  O   LIG    1       10.227   6.428   1.123  0.00  0.00    -0.350 OA
BRANCH  30  32
ATOM     31  C   LIG    1       11.612   4.929   2.452  0.00  0.00    +0.070 C 
ATOM     32  C   LIG    1       11.209   5.362   1.041  0.00  0.00    +0.200 C 
ENDBRANCH  30  32
ENDBRANCH  28  30
ENDBRANCH   1  28
TORSDOF 8
