REMARK  Name = ZINCpe00000gNaq4.0
REMARK                            x       y       z     vdW  Elec       q    Type
REMARK                         _______ _______ _______ _____ _____    ______ ____
ROOT
ATOM      1  N   LIG    1        8.559   0.310   3.973  0.00  0.00    -0.510 NA
ATOM      2  C   LIG    1        8.754   1.372   2.976  0.00  0.00    +0.170 C 
ATOM      3  C   LIG    1        7.495   2.244   2.912  0.00  0.00    +0.290 C 
ATOM      4  N   LIG    1        6.335   1.373   2.674  0.00  0.00    -0.610 N 
ATOM      5  C   LIG    1        6.146   0.210   3.554  0.00  0.00    +0.290 C 
ATOM      6  C   LIG    1        5.464   1.637   1.680  0.00  0.00    +0.550 C 
ATOM      7  O   LIG    1        5.632   2.604   0.967  0.00  0.00    -0.540 OA
ATOM      8  C   LIG    1        7.460  -0.586   3.590  0.00  0.00    +0.170 C 
ENDROOT
BRANCH   6   9
ATOM      9  C   LIG    1        4.281   0.731   1.454  0.00  0.00    -0.050 C 
ATOM     10  C   LIG    1        4.271  -0.114   0.179  0.00  0.00    +0.080 C 
ATOM     11  C   LIG    1        3.329   1.085   0.310  0.00  0.00    +0.070 C 
BRANCH  11  12
ATOM     12  C   LIG    1        1.863   0.799   0.511  0.00  0.00    -0.070 A 
ATOM     13  C   LIG    1        1.397  -0.429   0.744  0.00  0.00    -0.060 A 
ATOM     14  S   LIG    1       -0.352  -0.372   0.925  0.00  0.00    +0.100 S 
ATOM     15  C   LIG    1       -0.352   1.368   0.666  0.00  0.00    -0.040 A 
ATOM     16  C   LIG    1        0.898   1.790   0.468  0.00  0.00    +0.010 A 
ENDBRANCH  11  12
ENDBRANCH   6   9
BRANCH   1  17
ATOM     17  C   LIG    1        9.801  -0.443   4.190  0.00  0.00    +0.260 C 
BRANCH  17  19
ATOM     18  O   LIG    1        9.536  -0.988   1.909  0.00  0.00    -0.530 OA
ATOM     19  C   LIG    1       10.178  -1.166   2.923  0.00  0.00    +0.480 C 
ATOM     20  N   LIG    1       11.227  -2.012   2.916  0.00  0.00    -0.620 N 
ATOM     21  C   LIG    1       12.024  -2.240   4.132  0.00  0.00    +0.250 C 
ATOM     22  C   LIG    1       12.141  -3.757   4.350  0.00  0.00    +0.220 C 
ATOM     23  O   LIG    1       12.624  -4.367   3.151  0.00  0.00    -0.380 OA
ATOM     24  C   LIG    1       11.754  -4.219   2.027  0.00  0.00    +0.220 C 
ATOM     25  C   LIG    1       11.613  -2.730   1.691  0.00  0.00    +0.250 C 
ENDBRANCH  17  19
ENDBRANCH   1  17
TORSDOF 4
