REMARK  Name = ZINCrD000000gRUO.0
REMARK                            x       y       z     vdW  Elec       q    Type
REMARK                         _______ _______ _______ _____ _____    ______ ____
ROOT
ATOM      1  S   LIG    1       -1.543  -0.802   0.440  0.00  0.00    +0.130 S 
ENDROOT
BRANCH   1   2
ATOM      2  C   LIG    1       -0.053   0.100   0.171  0.00  0.00    +0.180 A 
ATOM      3  N   LIG    1        0.075   1.408   0.162  0.00  0.00    -0.290 NA
ATOM      4  N   LIG    1        1.298   1.730  -0.064  0.00  0.00    -0.250 NA
ATOM      5  C   LIG    1        2.026   0.648  -0.215  0.00  0.00    +0.190 A 
ATOM      6  N   LIG    1        1.183  -0.429  -0.069  0.00  0.00    -0.300 N 
BRANCH   5   7
ATOM      7  C   LIG    1        3.477   0.597  -0.490  0.00  0.00    -0.010 A 
ATOM      8  C   LIG    1        4.272   1.723  -0.271  0.00  0.00    +0.090 A 
ATOM      9  C   LIG    1        5.627   1.667  -0.524  0.00  0.00    +0.050 A 
ATOM     10  C   LIG    1        6.197   0.500  -1.006  0.00  0.00    -0.020 A 
ATOM     11  C   LIG    1        5.412  -0.619  -1.230  0.00  0.00    +0.040 A 
ATOM     12 CL   LIG    1        7.901   0.440  -1.330  0.00  0.00    -0.050 Cl
ATOM     13  C   LIG    1        4.058  -0.577  -0.976  0.00  0.00    +0.010 A 
ENDBRANCH   5   7
BRANCH   6  14
ATOM     14  N   LIG    1        1.512  -1.752  -0.148  0.00  0.00    -0.580 N 
ATOM     15  H   LIG    1        2.403  -1.930   0.292  0.00  0.00    +0.380 HD
ATOM     16  H   LIG    1        1.514  -2.068  -1.107  0.00  0.00    +0.370 HD
ENDBRANCH   6  14
ENDBRANCH   1   2
BRANCH   1  17
ATOM     17  C   LIG    1       -2.702   0.567   0.675  0.00  0.00    +0.120 C 
BRANCH  17  20
ATOM     18  N   LIG    1       -5.115   0.861   1.133  0.00  0.00    -0.620 N 
ATOM     19  H   LIG    1       -4.969   1.820   1.118  0.00  0.00    +0.440 HD
ATOM     20  C   LIG    1       -4.083   0.019   0.928  0.00  0.00    +0.530 C 
ATOM     21  O   LIG    1       -4.265  -1.180   0.948  0.00  0.00    -0.480 OA
BRANCH  18  25
ATOM     22  C   LIG    1       -8.519   0.091   1.764  0.00  0.00    +0.050 A 
ATOM     23  N   LIG    1       -7.925  -1.062   1.637  0.00  0.00    -0.360 NA
ATOM     24  O   LIG    1       -6.744  -0.937   1.411  0.00  0.00    +0.110 OA
ATOM     25  C   LIG    1       -6.386   0.356   1.366  0.00  0.00    +0.210 A 
ATOM     26  C   LIG    1       -7.525   1.075   1.590  0.00  0.00    -0.080 A 
BRANCH  22  28
ATOM     27  C   LIG    1      -10.675   0.791   0.760  0.00  0.00    +0.050 C 
ATOM     28  C   LIG    1       -9.981   0.326   2.042  0.00  0.00    +0.010 C 
ATOM     29  C   LIG    1      -10.129   1.400   3.121  0.00  0.00    +0.050 C 
ATOM     30  C   LIG    1      -10.624  -0.976   2.526  0.00  0.00    +0.040 C 
ENDBRANCH  22  28
ENDBRANCH  18  25
ENDBRANCH  17  20
ENDBRANCH   1  17
TORSDOF 7
