REMARK  Name = ZINCrH000004ssVq.0
REMARK                            x       y       z     vdW  Elec       q    Type
REMARK                         _______ _______ _______ _____ _____    ______ ____
ROOT
ATOM      1  C   LIG    1        1.682   2.863   4.655  0.00  0.00    +0.170 C 
ATOM      2  C   LIG    1        2.207   2.138   3.443  0.00  0.00    +0.150 A 
ATOM      3  C   LIG    1        1.409   1.733   2.423  0.00  0.00    -0.300 A 
ATOM      4  S   LIG    1        2.427   0.929   1.231  0.00  0.00    +0.220 S 
ATOM      5  C   LIG    1        3.806   1.219   2.199  0.00  0.00    +0.020 A 
ATOM      6  N   LIG    1        3.473   1.844   3.282  0.00  0.00    -0.460 NA
ENDROOT
BRANCH   3   7
ATOM      7  C   LIG    1       -0.042   1.925   2.332  0.00  0.00    +0.600 C 
ATOM      8  N   LIG    1       -0.700   1.572   1.210  0.00  0.00    -0.600 N 
ATOM      9  C   LIG    1        0.014   0.892   0.126  0.00  0.00    +0.290 C 
ATOM     10  O   LIG    1       -0.653   2.404   3.270  0.00  0.00    -0.520 OA
BRANCH   8  11
ATOM     11  C   LIG    1       -2.128   1.868   1.074  0.00  0.00    +0.330 C 
ATOM     12  C   LIG    1       -2.885   0.584   0.730  0.00  0.00    +0.030 C 
BRANCH  11  13
ATOM     13  C   LIG    1       -2.329   2.879  -0.025  0.00  0.00    -0.250 A 
ATOM     14  C   LIG    1       -3.113   3.980   0.040  0.00  0.00    +0.250 A 
ATOM     15  N   LIG    1       -3.022   4.621  -1.145  0.00  0.00    -0.370 N 
ATOM     16  N   LIG    1       -2.153   3.889  -1.964  0.00  0.00    -0.290 NA
ATOM     17  C   LIG    1       -3.710   5.862  -1.509  0.00  0.00    +0.360 C 
ATOM     18  C   LIG    1       -1.734   2.849  -1.290  0.00  0.00    +0.230 A 
ENDBRANCH  11  13
ENDBRANCH   8  11
ENDBRANCH   3   7
BRANCH   5  19
ATOM     19  C   LIG    1        5.210   0.800   1.844  0.00  0.00    +0.330 C 
BRANCH  19  20
ATOM     20  O   LIG    1        5.458  -0.512   2.353  0.00  0.00    -0.300 OA
BRANCH  20  21
ATOM     21  C   LIG    1        6.688  -1.042   2.118  0.00  0.00    +0.120 A 
ATOM     22  C   LIG    1        7.633  -0.316   1.407  0.00  0.00    -0.040 A 
ATOM     23  C   LIG    1        8.883  -0.855   1.173  0.00  0.00    +0.030 A 
ATOM     24  C   LIG    1        9.190  -2.122   1.639  0.00  0.00    +0.060 A 
ATOM     25  C   LIG    1        8.246  -2.849   2.344  0.00  0.00    +0.030 A 
ATOM     26  F   LIG    1       10.412  -2.649   1.405  0.00  0.00    -0.140 F 
ATOM     27  C   LIG    1        6.997  -2.311   2.584  0.00  0.00    +0.020 A 
ENDBRANCH  20  21
ENDBRANCH  19  20
ENDBRANCH   5  19
TORSDOF 6
