REMARK  Name = ZINCrH000004mAlx.0
REMARK                            x       y       z     vdW  Elec       q    Type
REMARK                         _______ _______ _______ _____ _____    ______ ____
ROOT
ATOM      1  C   LIG    1        9.101  -0.929   1.541  0.00  0.00    +0.520 C 
ATOM      2  N   LIG    1        7.776  -1.012   1.306  0.00  0.00    -0.730 N 
ATOM      3  H   LIG    1        7.154  -1.055   2.049  0.00  0.00    +0.410 HD
ATOM      4  O   LIG    1        9.879  -0.875   0.612  0.00  0.00    -0.530 OA
ENDROOT
BRANCH   1   5
ATOM      5  C   LIG    1        9.615  -0.904   2.957  0.00  0.00    +0.060 C 
BRANCH   5   6
ATOM      6  C   LIG    1       11.142  -0.808   2.944  0.00  0.00    +0.030 C 
BRANCH   6   7
ATOM      7  C   LIG    1       11.664  -0.782   4.381  0.00  0.00    +0.010 C 
BRANCH   7   8
ATOM      8  C   LIG    1       13.191  -0.686   4.368  0.00  0.00    +0.060 C 
BRANCH   8  12
ATOM      9  C   LIG    1       14.649  -0.616   8.384  0.00  0.00    +0.120 A 
ATOM     10  C   LIG    1       14.488  -1.825   7.725  0.00  0.00    -0.020 A 
ATOM     11  C   LIG    1       14.016  -1.845   6.426  0.00  0.00    +0.050 A 
ATOM     12  C   LIG    1       13.705  -0.661   5.785  0.00  0.00    -0.120 A 
ATOM     13  C   LIG    1       13.870   0.546   6.438  0.00  0.00    +0.040 A 
ATOM     14  C   LIG    1       14.336   0.571   7.738  0.00  0.00    -0.080 A 
BRANCH   9  16
ATOM     15  C   LIG    1       15.255   0.688  10.278  0.00  0.00    +0.250 C 
ATOM     16  O   LIG    1       15.114  -0.593   9.661  0.00  0.00    -0.320 OA
ENDBRANCH   9  16
ENDBRANCH   8  12
ENDBRANCH   7   8
ENDBRANCH   6   7
ENDBRANCH   5   6
ENDBRANCH   1   5
BRANCH   2  17
ATOM     17  C   LIG    1        7.276  -1.036  -0.071  0.00  0.00    +0.450 C 
BRANCH  17  18
ATOM     18  C   LIG    1        5.772  -1.131  -0.058  0.00  0.00    +0.160 A 
ATOM     19  N   LIG    1        4.929  -0.129  -0.051  0.00  0.00    -0.450 NA
ATOM     20  C   LIG    1        3.699  -0.689  -0.036  0.00  0.00    +0.220 A 
ATOM     21  N   LIG    1        3.865  -1.986  -0.045  0.00  0.00    -0.370 NA
ATOM     22  O   LIG    1        5.048  -2.255  -0.057  0.00  0.00    +0.100 OA
BRANCH  20  23
ATOM     23  C   LIG    1        2.402   0.033  -0.021  0.00  0.00    -0.030 A 
ATOM     24  C   LIG    1        1.205  -0.680  -0.013  0.00  0.00    +0.050 A 
ATOM     25  C   LIG    1        0.002  -0.004   0.002  0.00  0.00    +0.010 A 
ATOM     26  C   LIG    1       -0.017   1.379   0.010  0.00  0.00    +0.030 A 
ATOM     27  C   LIG    1        1.169   2.092   0.002  0.00  0.00    +0.010 A 
ATOM     28  C   LIG    1        2.377   1.426  -0.013  0.00  0.00    +0.070 A 
ENDBRANCH  20  23
ENDBRANCH  17  18
ENDBRANCH   2  17
TORSDOF 9
