REMARK  Name = ZINCrD000000Bjtr.0
REMARK                            x       y       z     vdW  Elec       q    Type
REMARK                         _______ _______ _______ _____ _____    ______ ____
ROOT
ATOM      1  O   LIG    1       -5.923   7.075   0.204  0.00  0.00    -0.530 OA
ATOM      2  C   LIG    1       -5.737   6.359  -0.758  0.00  0.00    +0.520 C 
ATOM      3  N   LIG    1       -6.721   6.173  -1.659  0.00  0.00    -0.730 N 
ATOM      4  H   LIG    1       -6.573   5.601  -2.428  0.00  0.00    +0.400 HD
ENDROOT
BRANCH   2   5
ATOM      5  C   LIG    1       -4.406   5.679  -0.944  0.00  0.00    -0.010 C 
ATOM      6  C   LIG    1       -3.473   6.054   0.210  0.00  0.00    +0.060 C 
ATOM      7  C   LIG    1       -2.144   5.313   0.048  0.00  0.00    +0.210 C 
ATOM      8  N   LIG    1       -2.388   3.865   0.043  0.00  0.00    -0.470 N 
ATOM      9  C   LIG    1       -3.243   3.474  -1.085  0.00  0.00    +0.200 C 
ATOM     10  C   LIG    1       -4.604   4.160  -0.956  0.00  0.00    +0.050 C 
BRANCH   8  11
ATOM     11  C   LIG    1       -1.190   3.158   0.029  0.00  0.00    +0.320 A 
ATOM     12  C   LIG    1       -1.211   1.767   0.017  0.00  0.00    -0.030 A 
ATOM     13  C   LIG    1       -0.013   1.076   0.008  0.00  0.00    +0.110 A 
ATOM     14  C   LIG    1        1.171   1.802   0.001  0.00  0.00    -0.120 A 
ATOM     15  C   LIG    1        1.118   3.183   0.008  0.00  0.00    +0.310 A 
ATOM     16 CL   LIG    1        2.703   0.984  -0.018  0.00  0.00    -0.050 Cl
ATOM     17  N   LIG    1       -0.041   3.815   0.022  0.00  0.00    -0.510 NA
ENDBRANCH   8  11
ENDBRANCH   2   5
BRANCH   3  18
ATOM     18  C   LIG    1       -8.016   6.835  -1.478  0.00  0.00    +0.280 C 
BRANCH  18  19
ATOM     19  C   LIG    1       -8.947   6.459  -2.632  0.00  0.00    -0.050 C 
ATOM     20  C   LIG    1       -9.252   4.956  -2.581  0.00  0.00    +0.250 C 
ATOM     21  O   LIG    1      -10.036   4.617  -3.726  0.00  0.00    -0.310 OA
ATOM     22  C   LIG    1      -11.123   5.384  -4.001  0.00  0.00    +0.130 A 
ATOM     23  C   LIG    1      -12.090   4.881  -4.865  0.00  0.00    -0.020 A 
ATOM     24  C   LIG    1      -13.206   5.632  -5.172  0.00  0.00    +0.040 A 
ATOM     25  C   LIG    1      -13.365   6.890  -4.620  0.00  0.00    -0.020 A 
ATOM     26  C   LIG    1      -12.407   7.393  -3.761  0.00  0.00    +0.050 A 
ATOM     27  C   LIG    1      -11.286   6.643  -3.448  0.00  0.00    -0.160 A 
ATOM     28  C   LIG    1      -10.268   7.222  -2.499  0.00  0.00    +0.100 C 
ENDBRANCH  18  19
ENDBRANCH   3  18
TORSDOF 4
