REMARK  Name = ZINCpe00000z0DAJ.0
REMARK                            x       y       z     vdW  Elec       q    Type
REMARK                         _______ _______ _______ _____ _____    ______ ____
ROOT
ATOM      1  C   LIG    1        1.266  -4.224  -0.032  0.00  0.00    +0.250 C 
ENDROOT
BRANCH   1   2
ATOM      2  C   LIG    1        1.527  -4.664  -1.474  0.00  0.00    -0.030 C 
ATOM      3  C   LIG    1        2.453  -5.886  -1.586  0.00  0.00    +0.020 C 
ATOM      4  C   LIG    1        3.100  -5.184  -2.794  0.00  0.00    +0.010 C 
ATOM      5  C   LIG    1        2.633  -3.857  -2.173  0.00  0.00    +0.030 C 
ENDBRANCH   1   2
BRANCH   1   6
ATOM      6  N   LIG    1        0.821  -2.828  -0.021  0.00  0.00    -0.710 N 
ATOM      7  H   LIG    1       -0.127  -2.621  -0.011  0.00  0.00    +0.410 HD
ATOM      8  C   LIG    1        1.728  -1.831  -0.024  0.00  0.00    +0.610 C 
ATOM      9  O   LIG    1        2.916  -2.091  -0.036  0.00  0.00    -0.520 OA
BRANCH   8  10
ATOM     10  C   LIG    1        1.280  -0.425  -0.012  0.00  0.00    -0.000 A 
ATOM     11  C   LIG    1        2.090   0.674  -0.014  0.00  0.00    +0.200 A 
ATOM     12  N   LIG    1        1.280   1.769  -0.001  0.00  0.00    -0.350 N 
ATOM     13  C   LIG    1        1.546   3.110   0.004  0.00  0.00    +0.220 A 
ATOM     14  C   LIG    1        0.542   4.010   0.019  0.00  0.00    +0.060 A 
ATOM     15  C   LIG    1       -0.796   3.582   0.030  0.00  0.00    +0.020 A 
ATOM     16  C   LIG    1       -1.078   2.251   0.030  0.00  0.00    +0.150 A 
ATOM     17  F   LIG    1       -2.360   1.825   0.045  0.00  0.00    -0.110 F 
ATOM     18  C   LIG    1       -0.016   1.318   0.009  0.00  0.00    +0.200 A 
ATOM     19  N   LIG    1        0.002  -0.004   0.002  0.00  0.00    -0.450 NA
ENDBRANCH   8  10
ENDBRANCH   1   6
BRANCH   1  20
ATOM     20  C   LIG    1        0.180  -5.110   0.583  0.00  0.00    +0.280 C 
BRANCH  20  22
ATOM     21  C   LIG    1       -1.092  -5.243   2.657  0.00  0.00    +0.490 C 
ATOM     22  N   LIG    1       -0.154  -4.614   1.921  0.00  0.00    -0.730 N 
ATOM     23  H   LIG    1        0.298  -3.834   2.276  0.00  0.00    +0.400 HD
ATOM     24  O   LIG    1       -1.659  -6.219   2.212  0.00  0.00    -0.530 OA
BRANCH  21  26
ATOM     25  C   LIG    1       -0.223  -4.884   4.951  0.00  0.00    +0.040 C 
ATOM     26  C   LIG    1       -1.437  -4.733   4.032  0.00  0.00    +0.210 C 
BRANCH  26  27
ATOM     27  O   LIG    1       -2.530  -5.488   4.560  0.00  0.00    -0.540 OA
ATOM     28  H   LIG    1       -2.350  -6.435   4.643  0.00  0.00    +0.390 HD
ENDBRANCH  26  27
ENDBRANCH  21  26
ENDBRANCH  20  22
ENDBRANCH   1  20
TORSDOF 7
