REMARK  Name = ZINCpe00000gM6YH.0
REMARK                            x       y       z     vdW  Elec       q    Type
REMARK                         _______ _______ _______ _____ _____    ______ ____
ROOT
ATOM      1  C   LIG    1        1.496  -2.692   1.372  0.00  0.00    +0.530 C 
ATOM      2  N   LIG    1        0.496  -2.744   2.274  0.00  0.00    -0.610 N 
ATOM      3  C   LIG    1       -0.863  -2.306   1.920  0.00  0.00    +0.280 C 
ATOM      4  C   LIG    1       -1.845  -3.423   2.307  0.00  0.00    +0.170 C 
ATOM      5  N   LIG    1       -1.654  -3.768   3.722  0.00  0.00    -0.520 NA
ATOM      6  C   LIG    1       -0.309  -4.309   3.960  0.00  0.00    +0.170 C 
ATOM      7  C   LIG    1        0.735  -3.235   3.639  0.00  0.00    +0.300 C 
ATOM      8  O   LIG    1        2.612  -3.053   1.683  0.00  0.00    -0.510 OA
ENDROOT
BRANCH   1   9
ATOM      9  C   LIG    1        1.229  -2.186  -0.022  0.00  0.00    +0.180 C 
BRANCH   9  10
ATOM     10  C   LIG    1        1.208  -0.679  -0.014  0.00  0.00    -0.090 A 
ATOM     11  C   LIG    1        0.002  -0.004   0.002  0.00  0.00    +0.010 A 
ATOM     12  C   LIG    1       -0.017   1.378   0.010  0.00  0.00    +0.000 A 
ATOM     13  C   LIG    1        1.171   2.086   0.002  0.00  0.00    +0.010 A 
ATOM     14  C   LIG    1        2.377   1.411  -0.014  0.00  0.00    +0.000 A 
ATOM     15  C   LIG    1        2.396   0.029  -0.021  0.00  0.00    +0.050 A 
ENDBRANCH   9  10
BRANCH   9  17
ATOM     16  C   LIG    1        2.337  -4.124  -0.959  0.00  0.00    +0.200 C 
ATOM     17  N   LIG    1        2.287  -2.656  -0.925  0.00  0.00    -0.520 NA
ATOM     18  C   LIG    1        2.111  -2.104  -2.275  0.00  0.00    +0.200 C 
ENDBRANCH   9  17
ENDBRANCH   1   9
BRANCH   5  19
ATOM     19  C   LIG    1       -2.688  -4.705   4.179  0.00  0.00    +0.200 C 
BRANCH  19  20
ATOM     20  C   LIG    1       -4.053  -4.015   4.148  0.00  0.00    +0.130 C 
ATOM     21  C   LIG    1       -5.132  -4.991   4.625  0.00  0.00    +0.190 C 
ATOM     22  O   LIG    1       -6.385  -4.306   4.699  0.00  0.00    -0.380 OA
ATOM     23  C   LIG    1       -6.366  -3.167   5.565  0.00  0.00    +0.190 C 
ATOM     24  C   LIG    1       -5.287  -2.191   5.088  0.00  0.00    +0.190 C 
ATOM     25  O   LIG    1       -4.033  -2.877   5.014  0.00  0.00    -0.350 OA
ENDBRANCH  19  20
ENDBRANCH   5  19
TORSDOF 5
