REMARK  Name = ZINCrD00000l6K79.0
REMARK                            x       y       z     vdW  Elec       q    Type
REMARK                         _______ _______ _______ _____ _____    ______ ____
ROOT
ATOM      1  C   LIG    1        1.768   1.141  -4.983  0.00  0.00    -0.130 A 
ATOM      2  C   LIG    1        2.160   2.398  -5.445  0.00  0.00    +0.080 A 
ATOM      3  C   LIG    1        2.736   3.301  -4.575  0.00  0.00    +0.040 A 
ATOM      4  C   LIG    1        2.924   2.962  -3.247  0.00  0.00    -0.090 A 
ATOM      5  C   LIG    1        2.542   1.716  -2.783  0.00  0.00    +0.020 A 
ATOM      6  C   LIG    1        1.961   0.806  -3.642  0.00  0.00    +0.040 A 
ENDROOT
BRANCH   1   8
ATOM      7  O   LIG    1        0.984   0.463  -7.077  0.00  0.00    -0.520 OA
ATOM      8  C   LIG    1        1.151   0.169  -5.910  0.00  0.00    +0.570 C 
ATOM      9  N   LIG    1        0.773  -1.045  -5.460  0.00  0.00    -0.730 N 
ATOM     10  H   LIG    1        0.906  -1.280  -4.528  0.00  0.00    +0.410 HD
BRANCH   9  11
ATOM     11  C   LIG    1        0.161  -2.008  -6.379  0.00  0.00    +0.320 C 
BRANCH  11  12
ATOM     12  C   LIG    1       -0.171  -3.295  -5.621  0.00  0.00    +0.450 C 
ATOM     13  F   LIG    1        1.003  -3.839  -5.088  0.00  0.00    -0.180 F 
ATOM     14  F   LIG    1       -0.755  -4.215  -6.498  0.00  0.00    -0.170 F 
ATOM     15  F   LIG    1       -1.065  -3.008  -4.583  0.00  0.00    -0.180 F 
ENDBRANCH  11  12
ENDBRANCH   9  11
ENDBRANCH   1   8
BRANCH   4  16
ATOM     16  C   LIG    1        3.554   3.953  -2.302  0.00  0.00    +0.350 C 
BRANCH  16  17
ATOM     17  N   LIG    1        2.528   4.871  -1.801  0.00  0.00    -0.960 NA
BRANCH  17  18
ATOM     18  S   LIG    1        2.268   6.318  -2.563  0.00  0.00    +2.720 S 
ATOM     19  O   LIG    1        2.734   6.159  -3.896  0.00  0.00    -0.940 OA
ATOM     20  O   LIG    1        0.938   6.705  -2.245  0.00  0.00    -0.940 OA
BRANCH  18  21
ATOM     21  C   LIG    1        3.327   7.504  -1.804  0.00  0.00    -0.800 A 
ATOM     22  C   LIG    1        4.572   7.784  -2.192  0.00  0.00    +0.170 A 
ATOM     23  C   LIG    1        5.213   8.755  -1.443  0.00  0.00    -0.010 A 
ATOM     24  C   LIG    1        4.490   9.261  -0.443  0.00  0.00    +0.010 A 
ATOM     25  S   LIG    1        2.903   8.502  -0.419  0.00  0.00    +0.220 S 
ENDBRANCH  18  21
ENDBRANCH  17  18
BRANCH  17  26
ATOM     26  C   LIG    1        1.732   4.508  -0.626  0.00  0.00    +0.210 C 
ATOM     27  C   LIG    1        2.079   3.199   0.086  0.00  0.00    +0.030 C 
ATOM     28  C   LIG    1        0.801   3.300  -0.749  0.00  0.00    +0.020 C 
ENDBRANCH  17  26
ENDBRANCH  16  17
ENDBRANCH   4  16
TORSDOF 8
