REMARK  Name = ZINCnE000000ov2y.1
REMARK                            x       y       z     vdW  Elec       q    Type
REMARK                         _______ _______ _______ _____ _____    ______ ____
ROOT
ATOM      1  C   LIG    1       -1.591  -1.170  -1.409  0.00  0.00    +0.460 C 
ATOM      2  N   LIG    1       -2.657  -1.958  -1.649  0.00  0.00    -0.680 NA
ATOM      3  O   LIG    1       -0.968  -0.695  -2.335  0.00  0.00    -0.560 OA
ENDROOT
BRANCH   2   4
ATOM      4  C   LIG    1       -3.041  -2.227  -2.953  0.00  0.00    +0.400 A 
ATOM      5  N   LIG    1       -2.451  -1.768  -4.002  0.00  0.00    -0.560 NA
ATOM      6  C   LIG    1       -2.940  -2.123  -5.207  0.00  0.00    +0.150 A 
ATOM      7  C   LIG    1       -2.477  -1.762  -6.489  0.00  0.00    +0.010 A 
ATOM      8  C   LIG    1       -3.115  -2.221  -7.614  0.00  0.00    +0.020 A 
ATOM      9  C   LIG    1       -4.224  -3.047  -7.509  0.00  0.00    -0.130 A 
ATOM     10  C   LIG    1       -4.695  -3.413  -6.267  0.00  0.00    +0.060 A 
ATOM     11  C   LIG    1       -4.915  -3.544  -8.753  0.00  0.00    +0.080 C 
ATOM     12  C   LIG    1       -4.060  -2.956  -5.115  0.00  0.00    -0.210 A 
ATOM     13  S   LIG    1       -4.407  -3.236  -3.410  0.00  0.00    -0.030 S 
ENDBRANCH   2   4
BRANCH   1  14
ATOM     14  C   LIG    1       -1.174  -0.878   0.009  0.00  0.00    +0.360 C 
BRANCH  14  21
ATOM     15  C   LIG    1       -0.017   1.369   0.010  0.00  0.00    +0.290 A 
ATOM     16  N   LIG    1        1.202   1.803   0.000  0.00  0.00    -0.290 NA
ATOM     17  N   LIG    1        2.061   0.695  -0.014  0.00  0.00    -0.480 N 
ATOM     18  H   LIG    1        3.030   0.719  -0.023  0.00  0.00    +0.460 HD
ATOM     19  C   LIG    1        1.287  -0.411  -0.012  0.00  0.00    +0.490 A 
ATOM     20  S   LIG    1        1.837  -2.032  -0.026  0.00  0.00    -0.590 S 
ATOM     21  N   LIG    1        0.002  -0.004   0.002  0.00  0.00    -0.470 N 
BRANCH  15  22
ATOM     22  C   LIG    1       -1.254   2.229   0.020  0.00  0.00    +0.160 C 
BRANCH  22  24
ATOM     23  C   LIG    1       -2.106   4.578   0.037  0.00  0.00    +0.030 C 
ATOM     24  C   LIG    1       -0.849   3.705   0.026  0.00  0.00    +0.030 C 
ENDBRANCH  22  24
ENDBRANCH  15  22
ENDBRANCH  14  21
ENDBRANCH   1  14
TORSDOF 5
