REMARK  Name = ZINCrD0000074BmA.0
REMARK                            x       y       z     vdW  Elec       q    Type
REMARK                         _______ _______ _______ _____ _____    ______ ____
ROOT
ATOM      1  C   LIG    1        3.630  -2.409  -0.044  0.00  0.00    +0.430 C 
ATOM      2  O   LIG    1        2.516  -2.891  -0.036  0.00  0.00    -0.450 OA
ENDROOT
BRANCH   1   3
ATOM      3  C   LIG    1        4.806  -3.283  -0.059  0.00  0.00    -0.270 A 
ATOM      4  C   LIG    1        4.817  -4.665  -0.066  0.00  0.00    +0.110 A 
ATOM      5  N   LIG    1        6.098  -5.074  -0.081  0.00  0.00    -0.430 N 
ATOM      6  C   LIG    1        6.941  -4.000  -0.084  0.00  0.00    +0.030 A 
ATOM      7  C   LIG    1        8.446  -4.072  -0.100  0.00  0.00    +0.140 C 
ATOM      8  C   LIG    1        3.603  -5.559  -0.059  0.00  0.00    +0.150 C 
ATOM      9  C   LIG    1        6.215  -2.870  -0.077  0.00  0.00    -0.010 A 
BRANCH   5  10
ATOM     10  C   LIG    1        6.528  -6.474  -0.093  0.00  0.00    +0.310 C 
BRANCH  10  11
ATOM     11  C   LIG    1        6.663  -6.954  -1.539  0.00  0.00    +0.140 C 
ATOM     12  C   LIG    1        6.994  -8.463  -1.576  0.00  0.00    +0.010 C 
ATOM     13  C   LIG    1        7.977  -8.602  -2.760  0.00  0.00    +0.010 C 
ATOM     14  C   LIG    1        8.123  -7.162  -3.298  0.00  0.00    +0.200 C 
ATOM     15  O   LIG    1        7.789  -6.314  -2.178  0.00  0.00    -0.360 OA
ENDBRANCH  10  11
ENDBRANCH   5  10
ENDBRANCH   1   3
BRANCH   1  16
ATOM     16  C   LIG    1        3.804  -0.912  -0.038  0.00  0.00    +0.250 C 
BRANCH  16  17
ATOM     17  O   LIG    1        2.499  -0.274  -0.022  0.00  0.00    -0.330 OA
BRANCH  17  18
ATOM     18  C   LIG    1        2.478   1.073  -0.015  0.00  0.00    +0.510 C 
ATOM     19  O   LIG    1        3.520   1.697  -0.022  0.00  0.00    -0.500 OA
BRANCH  18  24
ATOM     20  C   LIG    1       -2.559   3.861   0.047  0.00  0.00    +0.110 C 
ATOM     21  C   LIG    1       -1.240   3.132   0.031  0.00  0.00    -0.070 A 
ATOM     22  C   LIG    1       -1.217   1.750   0.017  0.00  0.00    +0.020 A 
ATOM     23  C   LIG    1       -0.013   1.076   0.008  0.00  0.00    +0.090 A 
ATOM     24  C   LIG    1        1.187   1.791   0.000  0.00  0.00    -0.120 A 
ATOM     25  C   LIG    1        1.161   3.186   0.008  0.00  0.00    +0.060 A 
ATOM     26  C   LIG    1       -0.052   3.852   0.023  0.00  0.00    +0.090 A 
BRANCH  26  27
ATOM     27  O   LIG    1       -0.082   5.211   0.030  0.00  0.00    -0.490 OA
ATOM     28  H   LIG    1       -0.099   5.608  -0.851  0.00  0.00    +0.390 HD
ENDBRANCH  26  27
ENDBRANCH  18  24
ENDBRANCH  17  18
ENDBRANCH  16  17
ENDBRANCH   1  16
TORSDOF 8
