REMARK  Name = ZINCAx0000000c9i.0
REMARK                            x       y       z     vdW  Elec       q    Type
REMARK                         _______ _______ _______ _____ _____    ______ ____
ROOT
ATOM      1  C   LIG    1        2.176   1.026  -1.195  0.00  0.00    +0.270 C 
ENDROOT
BRANCH   1   5
ATOM      2  C   LIG    1        2.191   2.079  -4.687  0.00  0.00    +0.270 C 
ATOM      3  C   LIG    1        2.496   3.330  -3.822  0.00  0.00    +0.050 C 
ATOM      4  C   LIG    1        1.759   3.027  -2.501  0.00  0.00    +0.220 C 
ATOM      5  N   LIG    1        1.581   1.565  -2.425  0.00  0.00    -0.480 NA
ATOM      6  C   LIG    1        2.194   0.954  -3.623  0.00  0.00    +0.190 C 
BRANCH   2   9
ATOM      7  C   LIG    1        4.317   1.592  -7.562  0.00  0.00    -0.100 A 
ATOM      8  C   LIG    1        3.080   1.810  -7.022  0.00  0.00    +0.140 A 
ATOM      9  N   LIG    1        3.241   1.862  -5.685  0.00  0.00    -0.350 N 
ATOM     10  N   LIG    1        4.605   1.662  -5.432  0.00  0.00    -0.050 NA
ATOM     11  C   LIG    1        1.786   1.965  -7.778  0.00  0.00    +0.190 C 
ATOM     12  N   LIG    1        5.209   1.507  -6.559  0.00  0.00    -0.180 NA
BRANCH   7  13
ATOM     13  C   LIG    1        4.621   1.468  -8.998  0.00  0.00    +0.560 C 
ATOM     14  O   LIG    1        3.730   1.564  -9.819  0.00  0.00    -0.500 OA
BRANCH  13  16
ATOM     15  C   LIG    1        6.114   1.137 -10.832  0.00  0.00    +0.290 C 
ATOM     16  O   LIG    1        5.888   1.249  -9.402  0.00  0.00    -0.340 OA
ENDBRANCH  13  16
ENDBRANCH   7  13
ENDBRANCH   2   9
ENDBRANCH   1   5
BRANCH   1  17
ATOM     17  C   LIG    1        3.647   1.354  -1.163  0.00  0.00    +0.150 A 
ATOM     18  N   LIG    1        4.194   2.521  -1.400  0.00  0.00    -0.290 NA
ATOM     19  N   LIG    1        5.470   2.396  -1.274  0.00  0.00    -0.070 NA
ATOM     20  N   LIG    1        5.751   1.179  -0.963  0.00  0.00    -0.080 NA
ATOM     21  N   LIG    1        4.653   0.506  -0.880  0.00  0.00    -0.300 N 
BRANCH  21  22
ATOM     22  C   LIG    1        4.526  -0.914  -0.543  0.00  0.00    +0.360 C 
BRANCH  22  23
ATOM     23  C   LIG    1        4.589  -1.749  -1.824  0.00  0.00    -0.050 C 
ATOM     24  C   LIG    1        4.332  -3.246  -1.520  0.00  0.00    +0.030 C 
ATOM     25  C   LIG    1        5.350  -3.990  -2.406  0.00  0.00    +0.190 C 
ATOM     26  O   LIG    1        6.063  -2.998  -3.165  0.00  0.00    -0.370 OA
ATOM     27  C   LIG    1        6.028  -1.776  -2.397  0.00  0.00    +0.220 C 
ENDBRANCH  22  23
ENDBRANCH  21  22
ENDBRANCH   1  17
BRANCH   1  28
ATOM     28  C   LIG    1        1.488   1.649   0.021  0.00  0.00    +0.050 C 
BRANCH  28  29
ATOM     29  C   LIG    1        0.022   1.214   0.056  0.00  0.00    +0.040 C 
ATOM     30  C   LIG    1       -0.714   1.790  -1.157  0.00  0.00    +0.040 C 
ATOM     31  C   LIG    1       -2.197   1.426  -1.074  0.00  0.00    +0.000 C 
ATOM     32  C   LIG    1       -2.819   2.067   0.168  0.00  0.00    +0.000 C 
ATOM     33  C   LIG    1       -2.151   1.500   1.424  0.00  0.00    +0.040 C 
ATOM     34  C   LIG    1       -0.638   1.739   1.335  0.00  0.00    -0.110 C 
ATOM     35  C   LIG    1       -0.085   3.027   1.942  0.00  0.00    +0.000 C 
ATOM     36  C   LIG    1        0.172   1.684   2.629  0.00  0.00    +0.000 C 
ENDBRANCH  28  29
ENDBRANCH   1  28
TORSDOF 9
