REMARK  Name = ZINCpk00000e9GU8.0
REMARK                            x       y       z     vdW  Elec       q    Type
REMARK                         _______ _______ _______ _____ _____    ______ ____
ROOT
ATOM      1  C   LIG    1        0.858  10.085  -1.750  0.00  0.00    +0.550 C 
ATOM      2  N   LIG    1        0.374   9.255  -0.804  0.00  0.00    -0.610 N 
ATOM      3  C   LIG    1       -0.258   9.804   0.398  0.00  0.00    +0.290 C 
ATOM      4  O   LIG    1        1.381   9.630  -2.745  0.00  0.00    -0.540 OA
ENDROOT
BRANCH   2   5
ATOM      5  C   LIG    1        0.480   7.804  -0.979  0.00  0.00    +0.240 C 
ATOM      6  C   LIG    1        1.296   7.209   0.172  0.00  0.00    +0.030 C 
ATOM      7  C   LIG    1        1.351   5.688   0.018  0.00  0.00    +0.210 C 
ATOM      8  N   LIG    1       -0.013   5.143   0.028  0.00  0.00    -0.470 N 
ATOM      9  C   LIG    1       -0.801   5.664  -1.096  0.00  0.00    +0.200 C 
ATOM     10  C   LIG    1       -0.921   7.185  -0.975  0.00  0.00    +0.030 C 
BRANCH   8  11
ATOM     11  C   LIG    1        0.006   3.753   0.021  0.00  0.00    +0.270 A 
ATOM     12  C   LIG    1       -1.190   3.039   0.029  0.00  0.00    +0.210 A 
ATOM     13  N   LIG    1       -1.168   1.720   0.017  0.00  0.00    -0.420 NA
ATOM     14  C   LIG    1       -0.013   1.076   0.008  0.00  0.00    +0.180 A 
ATOM     15  C   LIG    1        1.176   1.781   0.000  0.00  0.00    +0.250 A 
ATOM     16  N   LIG    1        1.163   3.103   0.007  0.00  0.00    -0.480 NA
ENDBRANCH   8  11
ENDBRANCH   2   5
BRANCH   1  19
ATOM     17  C   LIG    1        1.315  12.465  -2.680  0.00  0.00    +0.090 C 
ATOM     18  C   LIG    1       -0.199  12.333  -2.503  0.00  0.00    +0.070 C 
ATOM     19  C   LIG    1        0.749  11.577  -1.571  0.00  0.00    -0.070 C 
BRANCH  17  23
ATOM     20  C   LIG    1        4.653  16.143  -2.006  0.00  0.00    +0.360 C 
ATOM     21  N   LIG    1        3.411  15.366  -1.981  0.00  0.00    -0.370 N 
ATOM     22  C   LIG    1        3.236  14.133  -2.501  0.00  0.00    +0.250 A 
ATOM     23  C   LIG    1        1.953  13.768  -2.272  0.00  0.00    -0.210 A 
ATOM     24  C   LIG    1        1.322  14.816  -1.594  0.00  0.00    +0.230 A 
ATOM     25  N   LIG    1        2.197  15.772  -1.414  0.00  0.00    -0.290 NA
ENDBRANCH  17  23
ENDBRANCH   1  19
TORSDOF 4
