REMARK  Name = ZINCAx0000000iOE.0
REMARK                            x       y       z     vdW  Elec       q    Type
REMARK                         _______ _______ _______ _____ _____    ______ ____
ROOT
ATOM      1  C   LIG    1        2.799   0.368  -0.483  0.00  0.00    +0.130 C 
ENDROOT
BRANCH   1   3
ATOM      2  C   LIG    1        2.674   2.900  -0.825  0.00  0.00    +0.130 A 
ATOM      3  C   LIG    1        2.091   1.688  -0.650  0.00  0.00    -0.150 A 
ATOM      4  C   LIG    1        0.645   1.906  -0.655  0.00  0.00    -0.100 A 
ATOM      5  C   LIG    1       -0.461   1.063  -0.521  0.00  0.00    +0.050 A 
ATOM      6  C   LIG    1       -1.722   1.585  -0.575  0.00  0.00    -0.030 A 
ATOM      7  C   LIG    1       -1.914   2.948  -0.752  0.00  0.00    +0.020 A 
ATOM      8  C   LIG    1       -0.838   3.798  -0.886  0.00  0.00    -0.010 A 
ATOM      9  C   LIG    1        0.456   3.289  -0.840  0.00  0.00    +0.100 A 
ATOM     10  N   LIG    1        1.702   3.867  -0.940  0.00  0.00    -0.590 N 
ATOM     11  H   LIG    1        1.870   4.813  -1.071  0.00  0.00    +0.410 HD
BRANCH   2  15
ATOM     12  C   LIG    1        6.862   3.603  -0.992  0.00  0.00    +0.140 A 
ATOM     13  C   LIG    1        6.021   4.205  -1.919  0.00  0.00    -0.020 A 
ATOM     14  C   LIG    1        4.662   3.980  -1.868  0.00  0.00    +0.060 A 
ATOM     15  C   LIG    1        4.131   3.145  -0.883  0.00  0.00    -0.080 A 
ATOM     16  C   LIG    1        4.979   2.546   0.050  0.00  0.00    +0.080 A 
ATOM     17  C   LIG    1        6.338   2.772  -0.011  0.00  0.00    -0.070 A 
BRANCH  12  19
ATOM     18  C   LIG    1        9.008   3.178  -0.062  0.00  0.00    +0.240 C 
ATOM     19  O   LIG    1        8.201   3.829  -1.046  0.00  0.00    -0.320 OA
ENDBRANCH  12  19
ENDBRANCH   2  15
ENDBRANCH   1   3
BRANCH   1  20
ATOM     20  C   LIG    1        3.013  -0.273  -1.856  0.00  0.00    +0.050 C 
BRANCH  20  21
ATOM     21  C   LIG    1        3.720  -1.593  -1.688  0.00  0.00    +0.520 C 
ATOM     22  N   LIG    1        4.016  -2.341  -2.770  0.00  0.00    -0.610 N 
ATOM     23  C   LIG    1        3.653  -1.890  -4.122  0.00  0.00    +0.280 C 
ATOM     24  C   LIG    1        4.905  -1.970  -5.010  0.00  0.00    +0.170 C 
ATOM     25  N   LIG    1        5.465  -3.326  -4.937  0.00  0.00    -0.510 NA
ATOM     26  C   LIG    1        5.912  -3.646  -3.575  0.00  0.00    +0.180 C 
ATOM     27  C   LIG    1        4.706  -3.632  -2.629  0.00  0.00    +0.290 C 
ATOM     28  O   LIG    1        4.023  -1.983  -0.581  0.00  0.00    -0.540 OA
BRANCH  25  29
ATOM     29  C   LIG    1        6.558  -3.496  -5.904  0.00  0.00    +0.260 C 
BRANCH  29  30
ATOM     30  C   LIG    1        7.648  -2.498  -5.610  0.00  0.00    +0.480 C 
ATOM     31  N   LIG    1        8.707  -2.394  -6.437  0.00  0.00    -0.620 N 
ATOM     32  C   LIG    1        8.824  -3.249  -7.629  0.00  0.00    +0.250 C 
ATOM     33  C   LIG    1        9.117  -2.346  -8.839  0.00  0.00    +0.220 C 
ATOM     34  O   LIG    1       10.242  -1.515  -8.541  0.00  0.00    -0.380 OA
ATOM     35  C   LIG    1       10.034  -0.618  -7.448  0.00  0.00    +0.220 C 
ATOM     36  C   LIG    1        9.784  -1.428  -6.171  0.00  0.00    +0.250 C 
ATOM     37  O   LIG    1        7.573  -1.789  -4.629  0.00  0.00    -0.530 OA
ENDBRANCH  29  30
ENDBRANCH  25  29
ENDBRANCH  20  21
ENDBRANCH   1  20
TORSDOF 7
