REMARK  Name = ZINCb80000002pAd.0
REMARK                            x       y       z     vdW  Elec       q    Type
REMARK                         _______ _______ _______ _____ _____    ______ ____
ROOT
ATOM      1  N   LIG    1       -1.328   3.583   2.535  0.00  0.00    -0.370 N 
ATOM      2  C   LIG    1       -0.746   4.447   3.408  0.00  0.00    +0.130 A 
ATOM      3  C   LIG    1       -1.606   4.625   4.443  0.00  0.00    +0.060 A 
ATOM      4  C   LIG    1       -2.746   3.848   4.193  0.00  0.00    +0.180 A 
ATOM      5  N   LIG    1       -2.582   3.230   3.051  0.00  0.00    -0.240 NA
ENDROOT
BRANCH   3   6
ATOM      6  N   LIG    1       -1.392   5.446   5.567  0.00  0.00    -0.880 N 
ATOM      7  H   LIG    1       -2.070   5.509   6.257  0.00  0.00    +0.400 HD
ATOM      8  H   LIG    1       -0.566   5.949   5.650  0.00  0.00    +0.390 HD
ENDBRANCH   3   6
BRANCH   1   9
ATOM      9  C   LIG    1       -0.750   3.109   1.275  0.00  0.00    +0.290 C 
BRANCH   9  11
ATOM     10  C   LIG    1       -0.013   1.086   0.008  0.00  0.00    +0.020 C 
ATOM     11  C   LIG    1       -0.729   1.579   1.267  0.00  0.00    +0.120 C 
ATOM     12  C   LIG    1        0.011   1.072   2.506  0.00  0.00    +0.060 C 
BRANCH  11  13
ATOM     13  O   LIG    1       -2.070   1.085   1.277  0.00  0.00    -0.540 OA
ATOM     14  H   LIG    1       -2.599   1.367   0.518  0.00  0.00    +0.370 HD
ENDBRANCH  11  13
ENDBRANCH   9  11
ENDBRANCH   1   9
TORSDOF 4
