REMARK  Name = ZINCrD00000eM0rd.0
REMARK                            x       y       z     vdW  Elec       q    Type
REMARK                         _______ _______ _______ _____ _____    ______ ____
ROOT
ATOM      1  C   LIG    1        6.812  -0.066  -4.460  0.00  0.00    +0.030 C 
ATOM      2  C   LIG    1        7.267   0.923  -3.386  0.00  0.00    +0.020 C 
ATOM      3  C   LIG    1        8.036   2.072  -4.044  0.00  0.00    +0.030 C 
ATOM      4  C   LIG    1        8.473   3.072  -2.972  0.00  0.00    +0.010 C 
ATOM      5  C   LIG    1        7.239   3.636  -2.265  0.00  0.00    +0.020 C 
ATOM      6  C   LIG    1        6.467   2.494  -1.600  0.00  0.00    +0.050 C 
ATOM      7  C   LIG    1        6.049   1.476  -2.655  0.00  0.00    +0.130 C 
ATOM      8  N   LIG    1        5.107   2.079  -3.607  0.00  0.00    -0.710 N 
ATOM      9  H   LIG    1        5.277   2.833  -4.194  0.00  0.00    +0.440 HD
ATOM     10  C   LIG    1        3.963   1.375  -3.509  0.00  0.00    +0.700 C 
ATOM     11  N   LIG    1        4.044   0.394  -2.602  0.00  0.00    -0.580 N 
ATOM     12  O   LIG    1        2.968   1.607  -4.167  0.00  0.00    -0.540 OA
ATOM     13  C   LIG    1        5.261   0.353  -2.021  0.00  0.00    +0.540 C 
ATOM     14  O   LIG    1        5.642  -0.421  -1.169  0.00  0.00    -0.450 OA
ENDROOT
BRANCH  11  15
ATOM     15  C   LIG    1        2.948  -0.526  -2.284  0.00  0.00    +0.470 C 
BRANCH  15  16
ATOM     16  N   LIG    1        2.141   0.034  -1.192  0.00  0.00    -0.550 NA
ATOM     17  C   LIG    1        0.770  -0.492  -1.228  0.00  0.00    +0.180 C 
ATOM     18  C   LIG    1        0.002  -0.004   0.002  0.00  0.00    +0.030 C 
ATOM     19  C   LIG    1       -0.019   1.527   0.010  0.00  0.00    -0.010 C 
ATOM     20  C   LIG    1        1.421   2.049  -0.001  0.00  0.00    +0.030 C 
ATOM     21  C   LIG    1        2.147   1.502  -1.231  0.00  0.00    +0.160 C 
BRANCH  19  22
ATOM     22  C   LIG    1       -0.733   2.022   1.270  0.00  0.00    +0.060 C 
BRANCH  22  23
ATOM     23  C   LIG    1       -0.861   3.522   1.218  0.00  0.00    -0.080 A 
ATOM     24  C   LIG    1        0.133   4.320   1.754  0.00  0.00    +0.000 A 
ATOM     25  C   LIG    1        0.017   5.697   1.702  0.00  0.00    +0.000 A 
ATOM     26  C   LIG    1       -1.097   6.275   1.123  0.00  0.00    -0.010 A 
ATOM     27  C   LIG    1       -2.093   5.477   0.592  0.00  0.00    +0.000 A 
ATOM     28  C   LIG    1       -1.975   4.101   0.639  0.00  0.00    +0.000 A 
ENDBRANCH  22  23
ENDBRANCH  19  22
ENDBRANCH  15  16
ENDBRANCH  11  15
TORSDOF 4
