REMARK  Name = ZINCvU0000000JJN.0
REMARK                            x       y       z     vdW  Elec       q    Type
REMARK                         _______ _______ _______ _____ _____    ______ ____
ROOT
ATOM      1  N   LIG    1       -0.123   1.425  -0.212  0.00  0.00    -0.430 N 
ATOM      2  C   LIG    1       -1.164   2.299  -0.052  0.00  0.00    +0.200 A 
ATOM      3  N   LIG    1       -0.662   3.485   0.196  0.00  0.00    -0.310 NA
ATOM      4  N   LIG    1        0.735   3.374   0.185  0.00  0.00    -0.330 NA
ATOM      5  C   LIG    1        1.042   2.125  -0.062  0.00  0.00    +0.410 A 
ENDROOT
BRANCH   1  10
ATOM      6  C   LIG    1       -0.565  -4.124  -1.327  0.00  0.00    +0.100 C 
ATOM      7  C   LIG    1       -0.448  -2.651  -1.031  0.00  0.00    -0.060 A 
ATOM      8  C   LIG    1       -0.878  -2.155   0.186  0.00  0.00    +0.020 A 
ATOM      9  C   LIG    1       -0.772  -0.805   0.460  0.00  0.00    +0.030 A 
ATOM     10  C   LIG    1       -0.233   0.054  -0.488  0.00  0.00    +0.090 A 
ATOM     11  C   LIG    1        0.193  -0.446  -1.711  0.00  0.00    +0.050 A 
ATOM     12  C   LIG    1        0.089  -1.798  -1.977  0.00  0.00    +0.030 A 
ENDBRANCH   1  10
BRANCH   5  13
ATOM     13  N   LIG    1        2.326   1.603  -0.156  0.00  0.00    -0.440 N 
ATOM     14  C   LIG    1        3.347   2.674  -0.022  0.00  0.00    +0.220 C 
ATOM     15  C   LIG    1        4.627   1.897   0.377  0.00  0.00    +0.040 C 
ATOM     16  C   LIG    1        4.082   0.791   1.311  0.00  0.00    +0.030 C 
ATOM     17  C   LIG    1        2.593   0.652   0.944  0.00  0.00    +0.180 C 
ENDBRANCH   5  13
BRANCH   2  18
ATOM     18  S   LIG    1       -2.878   1.901  -0.155  0.00  0.00    +0.080 S 
BRANCH  18  19
ATOM     19  C   LIG    1       -3.686   3.496   0.152  0.00  0.00    +0.140 C 
ATOM     20  C   LIG    1       -3.350   4.465  -0.983  0.00  0.00    +0.110 C 
BRANCH  19  21
ATOM     21  C   LIG    1       -5.179   3.298   0.218  0.00  0.00    +0.170 A 
ATOM     22  N   LIG    1       -5.898   2.585  -0.604  0.00  0.00    -0.250 NA
ATOM     23  N   LIG    1       -7.133   2.637  -0.250  0.00  0.00    -0.270 NA
ATOM     24  C   LIG    1       -7.246   3.391   0.819  0.00  0.00    +0.220 A 
ATOM     25  O   LIG    1       -6.008   3.820   1.138  0.00  0.00    -0.210 OA
BRANCH  24  26
ATOM     26  C   LIG    1       -8.497   3.707   1.541  0.00  0.00    -0.030 A 
ATOM     27  C   LIG    1       -8.465   4.523   2.673  0.00  0.00    +0.050 A 
ATOM     28  C   LIG    1       -9.637   4.819   3.339  0.00  0.00    +0.010 A 
ATOM     29  C   LIG    1      -10.839   4.299   2.894  0.00  0.00    +0.040 A 
ATOM     30  C   LIG    1      -10.877   3.485   1.776  0.00  0.00    +0.020 A 
ATOM     31  C   LIG    1       -9.713   3.186   1.097  0.00  0.00    +0.080 A 
ENDBRANCH  24  26
ENDBRANCH  19  21
ENDBRANCH  18  19
ENDBRANCH   2  18
TORSDOF 6
