REMARK  Name = ZINC650000002rPw.1
REMARK                            x       y       z     vdW  Elec       q    Type
REMARK                         _______ _______ _______ _____ _____    ______ ____
ROOT
ATOM      1  C   LIG    1        0.718  -0.497  -1.257  0.00  0.00    +0.050 C 
ENDROOT
BRANCH   1   3
ATOM      2  C   LIG    1        1.343  -2.522  -2.581  0.00  0.00    +0.020 C 
ATOM      3  C   LIG    1        0.739  -2.027  -1.265  0.00  0.00    +0.170 C 
BRANCH   3   4
ATOM      4  O   LIG    1        1.529  -2.499  -0.172  0.00  0.00    -0.570 OA
ATOM      5  H   LIG    1        1.586  -3.463  -0.115  0.00  0.00    +0.400 HD
ENDBRANCH   3   4
ENDBRANCH   1   3
BRANCH   1   6
ATOM      6  C   LIG    1        0.002  -0.004   0.002  0.00  0.00    +0.260 C 
BRANCH   6   7
ATOM      7  N   LIG    1       -0.018   1.465   0.010  0.00  0.00    -0.640 N 
ATOM      8  H   LIG    1       -0.490   1.790   0.840  0.00  0.00    +0.440 HD
ATOM      9  H   LIG    1       -0.506   1.799  -0.807  0.00  0.00    +0.430 HD
ATOM     10  H   LIG    1        0.929   1.814   0.003  0.00  0.00    +0.440 HD
ENDBRANCH   6   7
ENDBRANCH   1   6
TORSDOF 4
