REMARK  Name = ZINCpk00000KfKjc.0
REMARK                            x       y       z     vdW  Elec       q    Type
REMARK                         _______ _______ _______ _____ _____    ______ ____
ROOT
ATOM      1  N   LIG    1       -0.017   1.408   0.010  0.00  0.00    -0.650 N 
ATOM      2  H   LIG    1       -0.864   1.882   0.016  0.00  0.00    +0.410 HD
ATOM      3  C   LIG    1        1.141   2.098   0.002  0.00  0.00    +0.710 C 
ATOM      4  N   LIG    1        1.123   3.446   0.010  0.00  0.00    -0.740 N 
ATOM      5  H   LIG    1        0.276   3.919   0.021  0.00  0.00    +0.400 HD
ATOM      6  O   LIG    1        2.202   1.504  -0.011  0.00  0.00    -0.580 OA
ENDROOT
BRANCH   1  13
ATOM      7  C   LIG    1       -3.914  -3.946   0.104  0.00  0.00    +0.060 C 
ATOM      8  C   LIG    1       -2.910  -2.831   0.403  0.00  0.00    -0.060 C 
ATOM      9  C   LIG    1       -3.277  -1.581  -0.402  0.00  0.00    +0.240 C 
ATOM     10  N   LIG    1       -2.431  -0.454   0.021  0.00  0.00    -0.590 N 
ATOM     11  H   LIG    1       -2.706  -0.117   0.931  0.00  0.00    +0.360 HD
ATOM     12  C   LIG    1       -1.085  -0.821   0.013  0.00  0.00    +0.210 A 
ATOM     13  C   LIG    1        0.002  -0.004   0.002  0.00  0.00    +0.020 A 
ATOM     14  C   LIG    1        1.145  -0.815  -0.013  0.00  0.00    +0.270 A 
ATOM     15  N   LIG    1        0.764  -2.070  -0.015  0.00  0.00    -0.280 NA
ATOM     16  N   LIG    1       -0.630  -2.106  -0.002  0.00  0.00    -0.390 N 
ATOM     17  C   LIG    1       -1.500  -3.288   0.002  0.00  0.00    +0.330 C 
ENDBRANCH   1  13
BRANCH   4  18
ATOM     18  C   LIG    1        2.381   4.195   0.002  0.00  0.00    +0.290 C 
BRANCH  18  19
ATOM     19  C   LIG    1        2.081   5.696   0.013  0.00  0.00    +0.270 C 
BRANCH  19  20
ATOM     20  N   LIG    1        3.340   6.445   0.005  0.00  0.00    -0.710 N 
ATOM     21  H   LIG    1        4.186   5.972  -0.006  0.00  0.00    +0.410 HD
BRANCH  20  22
ATOM     22  C   LIG    1        3.321   7.831   0.012  0.00  0.00    +0.430 A 
ATOM     23  C   LIG    1        2.100   8.501   0.028  0.00  0.00    -0.100 A 
ATOM     24  C   LIG    1        2.085   9.870   0.035  0.00  0.00    +0.160 A 
ATOM     25  C   LIG    1        3.310  10.553   0.027  0.00  0.00    -0.150 A 
ATOM     26  C   LIG    1        4.496   9.817   0.012  0.00  0.00    +0.380 A 
ATOM     27  N   LIG    1        4.466   8.500   0.011  0.00  0.00    -0.540 NA
BRANCH  25  28
ATOM     28  C   LIG    1        3.344  11.985   0.035  0.00  0.00    +0.260 C 
ATOM     29  N   LIG    1        3.371  13.121   0.041  0.00  0.00    -0.420 NA
ENDBRANCH  25  28
ENDBRANCH  20  22
ENDBRANCH  19  20
ENDBRANCH  18  19
ENDBRANCH   4  18
TORSDOF 6
