REMARK  Name = ZINCkj000005ju6i.1
REMARK                            x       y       z     vdW  Elec       q    Type
REMARK                         _______ _______ _______ _____ _____    ______ ____
ROOT
ATOM      1  C   LIG    1       -2.253   3.472  -0.703  0.00  0.00    +0.040 C 
ATOM      2  C   LIG    1       -1.998   1.966  -0.626  0.00  0.00    +0.230 C 
ATOM      3  C   LIG    1       -2.477   1.420   0.736  0.00  0.00    +0.050 C 
ATOM      4  C   LIG    1       -1.170   1.382   1.576  0.00  0.00    +0.060 C 
ATOM      5  C   LIG    1       -0.125   0.993   0.500  0.00  0.00    +0.260 C 
ATOM      6  N   LIG    1       -0.556   1.697  -0.721  0.00  0.00    -0.590 N 
ATOM      7  C   LIG    1        0.241   2.040  -1.752  0.00  0.00    +0.520 C 
ATOM      8  O   LIG    1       -0.223   2.621  -2.710  0.00  0.00    -0.520 OA
ENDROOT
BRANCH   7   9
ATOM      9  C   LIG    1        1.709   1.700  -1.716  0.00  0.00    +0.140 C 
ATOM     10  C   LIG    1        1.880   0.183  -1.605  0.00  0.00    +0.280 C 
ATOM     11  O   LIG    1        3.274  -0.137  -1.628  0.00  0.00    -0.350 OA
ATOM     12  C   LIG    1        3.951   0.326  -2.799  0.00  0.00    +0.270 C 
ATOM     13  C   LIG    1        3.784   1.844  -2.911  0.00  0.00    +0.250 C 
ATOM     14  N   LIG    1        2.353   2.175  -2.948  0.00  0.00    -0.490 N 
ATOM     15  H   LIG    1        2.241   3.175  -3.022  0.00  0.00    +0.440 HD
ATOM     16  H   LIG    1        1.925   1.729  -3.745  0.00  0.00    +0.430 HD
ENDBRANCH   7   9
BRANCH   3  17
ATOM     17  C   LIG    1       -3.484   2.353   1.359  0.00  0.00    -0.080 A 
ATOM     18  C   LIG    1       -3.063   3.531   1.947  0.00  0.00    +0.010 A 
ATOM     19  C   LIG    1       -3.987   4.388   2.515  0.00  0.00    +0.000 A 
ATOM     20  C   LIG    1       -5.331   4.063   2.503  0.00  0.00    +0.020 A 
ATOM     21  C   LIG    1       -5.751   2.882   1.919  0.00  0.00    +0.020 A 
ATOM     22  C   LIG    1       -4.827   2.027   1.347  0.00  0.00    +0.010 A 
ENDBRANCH   3  17
TORSDOF 2
