REMARK  Name = ZINCvU0000000C8d.0
REMARK                            x       y       z     vdW  Elec       q    Type
REMARK                         _______ _______ _______ _____ _____    ______ ____
ROOT
ATOM      1  C   LIG    1       -0.591   4.268  -0.830  0.00  0.00    +0.130 A 
ATOM      2  N   LIG    1       -0.171   5.054  -1.792  0.00  0.00    -0.280 NA
ATOM      3  N   LIG    1       -0.335   4.485  -2.933  0.00  0.00    -0.270 NA
ATOM      4  C   LIG    1       -0.867   3.296  -2.768  0.00  0.00    +0.280 A 
ATOM      5  N   LIG    1       -1.045   3.117  -1.415  0.00  0.00    -0.440 N 
ENDROOT
BRANCH   4   6
ATOM      6  C   LIG    1       -1.208   2.332  -3.833  0.00  0.00    -0.110 A 
ATOM      7  C   LIG    1       -1.650   1.059  -3.664  0.00  0.00    +0.260 A 
ATOM      8  N   LIG    1       -1.859   0.478  -4.881  0.00  0.00    -0.580 N 
ATOM      9  H   LIG    1       -2.176  -0.429  -5.017  0.00  0.00    +0.420 HD
ATOM     10  C   LIG    1       -1.556   1.367  -5.891  0.00  0.00    +0.090 A 
ATOM     11  C   LIG    1       -1.595   1.280  -7.279  0.00  0.00    -0.010 A 
ATOM     12  C   LIG    1       -1.224   2.363  -8.045  0.00  0.00    +0.040 A 
ATOM     13  C   LIG    1       -0.809   3.545  -7.447  0.00  0.00    -0.010 A 
ATOM     14  C   LIG    1       -0.763   3.650  -6.074  0.00  0.00    +0.070 A 
ATOM     15  C   LIG    1       -1.142   2.565  -5.286  0.00  0.00    -0.070 A 
ENDBRANCH   4   6
BRANCH   5  16
ATOM     16  C   LIG    1       -1.608   1.944  -0.743  0.00  0.00    +0.190 C 
ATOM     17  C   LIG    1       -0.667   1.109   0.127  0.00  0.00    +0.060 C 
ATOM     18  C   LIG    1       -1.730   1.994   0.782  0.00  0.00    +0.080 C 
ENDBRANCH   5  16
BRANCH   1  19
ATOM     19  S   LIG    1       -0.572   4.625   0.896  0.00  0.00    +0.100 S 
BRANCH  19  20
ATOM     20  C   LIG    1        0.151   6.284   0.865  0.00  0.00    +0.080 C 
BRANCH  20  23
ATOM     21  N   LIG    1        0.782   8.032   2.497  0.00  0.00    -0.650 N 
ATOM     22  H   LIG    1        1.077   8.578   1.751  0.00  0.00    +0.420 HD
ATOM     23  C   LIG    1        0.267   6.807   2.274  0.00  0.00    +0.530 C 
ATOM     24  O   LIG    1       -0.102   6.125   3.206  0.00  0.00    -0.450 OA
BRANCH  21  28
ATOM     25  C   LIG    1        0.091   7.295   7.180  0.00  0.00    +0.160 C 
ATOM     26  C   LIG    1        0.567   8.187   6.062  0.00  0.00    +0.190 A 
ATOM     27  N   LIG    1        0.479   7.769   4.814  0.00  0.00    -0.450 NA
ATOM     28  C   LIG    1        0.889   8.516   3.801  0.00  0.00    +0.390 A 
ATOM     29  C   LIG    1        1.421   9.782   4.024  0.00  0.00    -0.130 A 
ATOM     30  C   LIG    1        1.522  10.251   5.323  0.00  0.00    +0.140 A 
ATOM     31 CL   LIG    1        1.952  10.761   2.692  0.00  0.00    -0.040 Cl
ATOM     32  C   LIG    1        1.085   9.433   6.358  0.00  0.00    -0.110 A 
ATOM     33 CL   LIG    1        1.188   9.972   8.005  0.00  0.00    -0.040 Cl
ENDBRANCH  21  28
ENDBRANCH  20  23
ENDBRANCH  19  20
ENDBRANCH   1  19
TORSDOF 6
