REMARK  Name = ZINCAx0000000huE.0
REMARK                            x       y       z     vdW  Elec       q    Type
REMARK                         _______ _______ _______ _____ _____    ______ ____
ROOT
ATOM      1  N   LIG    1        4.866   4.272   0.080  0.00  0.00    -0.510 N 
ATOM      2  H   LIG    1        5.690   3.763   0.143  0.00  0.00    +0.430 HD
ATOM      3  C   LIG    1        3.684   3.633  -0.014  0.00  0.00    +0.570 C 
ATOM      4  O   LIG    1        2.652   4.271  -0.092  0.00  0.00    -0.520 OA
ENDROOT
BRANCH   3   5
ATOM      5  C   LIG    1        3.641   2.154  -0.021  0.00  0.00    -0.070 A 
ATOM      6  C   LIG    1        4.805   1.399  -0.051  0.00  0.00    +0.020 A 
ATOM      7  C   LIG    1        4.717  -0.002  -0.057  0.00  0.00    +0.200 A 
ATOM      8  N   LIG    1        3.563  -0.634  -0.035  0.00  0.00    -0.450 NA
ATOM      9  C   LIG    1        2.396   0.012  -0.006  0.00  0.00    +0.130 A 
ATOM     10  C   LIG    1        1.178  -0.691   0.016  0.00  0.00    +0.050 A 
ATOM     11  C   LIG    1        0.003  -0.004   0.045  0.00  0.00    +0.030 A 
ATOM     12  C   LIG    1       -0.016   1.388   0.054  0.00  0.00    +0.020 A 
ATOM     13  C   LIG    1        1.145   2.103   0.033  0.00  0.00    +0.060 A 
ATOM     14  C   LIG    1        2.371   1.429   0.002  0.00  0.00    -0.060 A 
BRANCH   7  15
ATOM     15  C   LIG    1        5.968  -0.797  -0.089  0.00  0.00    -0.060 A 
ATOM     16  C   LIG    1        7.205  -0.154  -0.118  0.00  0.00    +0.030 A 
ATOM     17  C   LIG    1        8.366  -0.899  -0.143  0.00  0.00    +0.010 A 
ATOM     18  C   LIG    1        8.305  -2.281  -0.149  0.00  0.00    +0.030 A 
ATOM     19  C   LIG    1        7.080  -2.924  -0.126  0.00  0.00    +0.010 A 
ATOM     20  C   LIG    1        5.912  -2.189  -0.095  0.00  0.00    +0.070 A 
ENDBRANCH   7  15
ENDBRANCH   3   5
BRANCH   1  22
ATOM     21  C   LIG    1        6.089   6.313   0.181  0.00  0.00    +0.520 C 
ATOM     22  N   LIG    1        4.907   5.673   0.087  0.00  0.00    -0.520 N 
ATOM     23  H   LIG    1        4.083   6.182   0.025  0.00  0.00    +0.430 HD
ATOM     24  O   LIG    1        7.119   5.676   0.260  0.00  0.00    -0.510 OA
BRANCH  21  26
ATOM     25  C   LIG    1        5.525   8.353  -1.109  0.00  0.00    +0.100 C 
ATOM     26  C   LIG    1        6.133   7.819   0.189  0.00  0.00    +0.150 C 
BRANCH  26  27
ATOM     27  N   LIG    1        7.523   8.267   0.299  0.00  0.00    -0.480 NA
ATOM     28  C   LIG    1        7.893   9.000   1.309  0.00  0.00    +0.400 C 
ATOM     29  N   LIG    1        7.004   9.374   2.285  0.00  0.00    -1.050 N 
ATOM     30  H   LIG    1        6.061   9.153   2.334  0.00  0.00    +0.450 HD
ATOM     31  S   LIG    1        7.885  10.289   3.371  0.00  0.00    +2.670 S 
ATOM     32  C   LIG    1        9.478  10.240   2.599  0.00  0.00    -0.630 A 
ATOM     33  C   LIG    1       10.700  10.771   2.914  0.00  0.00    +0.150 A 
ATOM     34  C   LIG    1       11.784  10.545   2.080  0.00  0.00    +0.050 A 
ATOM     35  C   LIG    1       11.619   9.784   0.937  0.00  0.00    +0.080 A 
ATOM     36  C   LIG    1       10.392   9.248   0.617  0.00  0.00    +0.100 A 
ATOM     37  O   LIG    1        7.411  11.626   3.288  0.00  0.00    -0.930 OA
ATOM     38  O   LIG    1        7.975   9.550   4.582  0.00  0.00    -0.930 OA
ATOM     39  C   LIG    1        9.282   9.467   1.450  0.00  0.00    -0.020 A 
ENDBRANCH  26  27
ENDBRANCH  21  26
ENDBRANCH   1  22
TORSDOF 5
