REMARK  Name = ZINCb80000002zGC.0
REMARK                            x       y       z     vdW  Elec       q    Type
REMARK                         _______ _______ _______ _____ _____    ______ ____
ROOT
ATOM      1  C   LIG    1       -1.140   2.082   0.789  0.00  0.00    +0.030 C 
ATOM      2  C   LIG    1       -1.154   2.090  -0.741  0.00  0.00    -0.030 C 
ATOM      3  C   LIG    1       -0.017   1.395   0.010  0.00  0.00    +0.260 C 
ATOM      4  F   LIG    1        1.237   2.015   0.001  0.00  0.00    -0.140 F 
ATOM      5  F   LIG    1        0.002  -0.004   0.002  0.00  0.00    -0.140 F 
ENDROOT
BRANCH   1   6
ATOM      6  C   LIG    1       -2.141   1.200   1.491  0.00  0.00    +0.490 C 
ATOM      7  O   LIG    1       -2.915   0.534   0.845  0.00  0.00    -0.480 OA
BRANCH   6   9
ATOM      8  C   LIG    1       -3.162   0.283   3.439  0.00  0.00    +0.280 C 
ATOM      9  O   LIG    1       -2.172   1.154   2.832  0.00  0.00    -0.350 OA
ENDBRANCH   6   9
ENDBRANCH   1   6
BRANCH   2  10
ATOM     10  C   LIG    1       -0.839   3.391  -1.433  0.00  0.00    +0.510 C 
ATOM     11  O   LIG    1       -1.653   3.899  -2.165  0.00  0.00    -0.420 OA
ENDBRANCH   2  10
TORSDOF 3
