REMARK  Name = ZINCqH0000037gW3.0
REMARK                            x       y       z     vdW  Elec       q    Type
REMARK                         _______ _______ _______ _____ _____    ______ ____
ROOT
ATOM      1  N   LIG    1        3.429   3.263   0.875  0.00  0.00    -0.680 NA
ATOM      2  H   LIG    1        3.865   2.485   0.405  0.00  0.00    +0.350 HD
ENDROOT
BRANCH   1   4
ATOM      3  C   LIG    1        3.011   3.983  -1.428  0.00  0.00    +0.030 C 
ATOM      4  C   LIG    1        2.458   3.932  -0.002  0.00  0.00    +0.230 C 
BRANCH   4   5
ATOM      5  C   LIG    1        1.161   3.165   0.007  0.00  0.00    -0.040 A 
ATOM      6  C   LIG    1        1.176   1.783   0.000  0.00  0.00    +0.030 A 
ATOM      7  C   LIG    1       -0.013   1.076   0.008  0.00  0.00    +0.040 A 
ATOM      8  C   LIG    1       -1.218   1.749   0.017  0.00  0.00    +0.000 A 
ATOM      9  C   LIG    1       -1.236   3.138   0.031  0.00  0.00    +0.140 A 
ATOM     10  C   LIG    1       -0.042   3.844   0.023  0.00  0.00    +0.000 A 
BRANCH   9  11
ATOM     11  N   LIG    1       -2.459   3.824   0.046  0.00  0.00    -0.410 N 
ATOM     12  C   LIG    1       -3.709   3.262   0.055  0.00  0.00    +0.130 A 
ATOM     13  C   LIG    1       -4.593   4.278   0.070  0.00  0.00    +0.160 A 
ATOM     14  N   LIG    1       -3.907   5.430   0.070  0.00  0.00    -0.480 NA
ATOM     15  C   LIG    1       -2.628   5.172   0.060  0.00  0.00    +0.400 A 
ENDBRANCH   9  11
ENDBRANCH   4   5
ENDBRANCH   1   4
BRANCH   1  16
ATOM     16  C   LIG    1        4.436   4.213   1.367  0.00  0.00    +0.360 C 
BRANCH  16  17
ATOM     17  C   LIG    1        5.412   3.493   2.261  0.00  0.00    +0.170 A 
ATOM     18  N   LIG    1        6.517   2.912   1.885  0.00  0.00    -0.270 NA
ATOM     19  N   LIG    1        7.103   2.398   2.908  0.00  0.00    -0.280 NA
ATOM     20  C   LIG    1        6.385   2.634   3.981  0.00  0.00    +0.220 A 
ATOM     21  O   LIG    1        5.303   3.337   3.592  0.00  0.00    -0.210 OA
BRANCH  20  22
ATOM     22  C   LIG    1        6.707   2.212   5.362  0.00  0.00    -0.030 A 
ATOM     23  C   LIG    1        5.849   2.541   6.412  0.00  0.00    +0.050 A 
ATOM     24  C   LIG    1        6.152   2.140   7.697  0.00  0.00    +0.010 A 
ATOM     25  C   LIG    1        7.309   1.424   7.947  0.00  0.00    +0.040 A 
ATOM     26  C   LIG    1        8.166   1.099   6.910  0.00  0.00    +0.020 A 
ATOM     27  C   LIG    1        7.872   1.489   5.620  0.00  0.00    +0.070 A 
ENDBRANCH  20  22
ENDBRANCH  16  17
ENDBRANCH   1  16
TORSDOF 6
