REMARK  Name = ZINCtV000002AVqX.0
REMARK                            x       y       z     vdW  Elec       q    Type
REMARK                         _______ _______ _______ _____ _____    ______ ____
ROOT
ATOM      1  C   LIG    1        1.157  -4.832  -0.020  0.00  0.00    +0.270 A 
ATOM      2  N   LIG    1        1.112  -6.110  -0.239  0.00  0.00    -0.490 NA
ATOM      3  C   LIG    1        2.261  -6.765  -0.241  0.00  0.00    +0.140 A 
ATOM      4  C   LIG    1        3.366  -5.990  -0.007  0.00  0.00    -0.220 A 
ATOM      5  S   LIG    1        2.827  -4.327   0.215  0.00  0.00    +0.230 S 
ENDROOT
BRANCH   4   6
ATOM      6  C   LIG    1        4.763  -6.463   0.044  0.00  0.00    -0.010 A 
ATOM      7  C   LIG    1        5.098  -7.577   0.818  0.00  0.00    +0.030 A 
ATOM      8  C   LIG    1        6.404  -8.018   0.857  0.00  0.00    +0.010 A 
ATOM      9  C   LIG    1        7.384  -7.352   0.141  0.00  0.00    +0.010 A 
ATOM     10  C   LIG    1        7.060  -6.244  -0.622  0.00  0.00    +0.010 A 
ATOM     11  C   LIG    1        5.757  -5.796  -0.675  0.00  0.00    +0.010 A 
ENDBRANCH   4   6
BRANCH   3  12
ATOM     12  C   LIG    1        2.346  -8.225  -0.478  0.00  0.00    -0.020 A 
ATOM     13  C   LIG    1        3.336  -8.742  -1.314  0.00  0.00    +0.030 A 
ATOM     14  C   LIG    1        3.413 -10.103  -1.527  0.00  0.00    +0.000 A 
ATOM     15  C   LIG    1        2.505 -10.953  -0.922  0.00  0.00    +0.010 A 
ATOM     16  C   LIG    1        1.518 -10.446  -0.097  0.00  0.00    +0.000 A 
ATOM     17  C   LIG    1        1.433  -9.087   0.129  0.00  0.00    +0.030 A 
ENDBRANCH   3  12
BRANCH   1  19
ATOM     18  C   LIG    1        0.222  -2.674   0.254  0.00  0.00    +0.570 C 
ATOM     19  N   LIG    1        0.056  -3.990   0.017  0.00  0.00    -0.620 N 
ATOM     20  H   LIG    1       -0.834  -4.348  -0.127  0.00  0.00    +0.420 HD
ATOM     21  O   LIG    1        1.338  -2.225   0.435  0.00  0.00    -0.480 OA
BRANCH  18  28
ATOM     22  C   LIG    1       -0.780  -0.408   0.541  0.00  0.00    +0.200 A 
ATOM     23  C   LIG    1       -1.889   0.424   0.581  0.00  0.00    -0.060 A 
ATOM     24  C   LIG    1       -3.151  -0.093   0.368  0.00  0.00    +0.120 A 
ATOM     25  C   LIG    1       -3.323  -1.446   0.125  0.00  0.00    -0.080 A 
ATOM     26  C   LIG    1       -2.232  -2.290   0.086  0.00  0.00    +0.110 A 
ATOM     27 CL   LIG    1       -4.917  -2.083  -0.135  0.00  0.00    -0.050 Cl
ATOM     28  C   LIG    1       -0.949  -1.778   0.294  0.00  0.00    -0.170 A 
BRANCH  22  30
ATOM     29  C   LIG    1        0.555   1.504   0.989  0.00  0.00    +0.250 C 
ATOM     30  O   LIG    1        0.461   0.100   0.744  0.00  0.00    -0.280 OA
ENDBRANCH  22  30
ENDBRANCH  18  28
ENDBRANCH   1  19
TORSDOF 5
