REMARK  Name = ZINCrg00000IZ5y5.0
REMARK                            x       y       z     vdW  Elec       q    Type
REMARK                         _______ _______ _______ _____ _____    ______ ____
ROOT
ATOM      1  N   LIG    1        6.307   0.072  -2.463  0.00  0.00    -0.720 N 
ATOM      2  H   LIG    1        5.820   0.134  -3.300  0.00  0.00    +0.410 HD
ENDROOT
BRANCH   1   5
ATOM      3  C   LIG    1        3.565   0.395  -0.030  0.00  0.00    +0.180 A 
ATOM      4  C   LIG    1        4.243   0.318  -1.237  0.00  0.00    -0.020 A 
ATOM      5  C   LIG    1        5.621   0.151  -1.248  0.00  0.00    +0.210 A 
ATOM      6  C   LIG    1        6.318   0.063  -0.050  0.00  0.00    +0.000 A 
ATOM      7  C   LIG    1        5.641   0.140   1.153  0.00  0.00    +0.040 A 
ATOM      8  C   LIG    1        4.269   0.311   1.167  0.00  0.00    +0.060 A 
ATOM      9  F   LIG    1        3.610   0.392   2.344  0.00  0.00    -0.140 F 
BRANCH   3  16
ATOM     10  O   LIG    1        1.580  -1.603  -0.022  0.00  0.00    -0.570 OA
ATOM     11  C   LIG    1        1.273  -0.427  -0.012  0.00  0.00    +0.710 C 
ATOM     12  N   LIG    1        0.002  -0.004   0.002  0.00  0.00    -0.740 N 
ATOM     13  H   LIG    1       -0.781  -0.577   0.006  0.00  0.00    +0.430 HD
ATOM     14  C   LIG    1       -0.018   1.466   0.010  0.00  0.00    +0.270 C 
ATOM     15  C   LIG    1        1.473   1.856  -0.002  0.00  0.00    +0.270 C 
ATOM     16  N   LIG    1        2.175   0.564  -0.016  0.00  0.00    -0.590 N 
ENDBRANCH   3  16
ENDBRANCH   1   5
BRANCH   1  17
ATOM     17  C   LIG    1        7.761  -0.103  -2.474  0.00  0.00    +0.260 C 
ATOM     18  C   LIG    1        8.224  -0.720  -3.809  0.00  0.00    +0.110 C 
ATOM     19  C   LIG    1        9.136   0.344  -4.390  0.00  0.00    +0.530 C 
ATOM     20  N   LIG    1        9.195   1.383  -3.547  0.00  0.00    -0.570 N 
ATOM     21  O   LIG    1        9.722   0.265  -5.448  0.00  0.00    -0.470 OA
ATOM     22  C   LIG    1        8.460   1.238  -2.437  0.00  0.00    +0.510 C 
ATOM     23  O   LIG    1        8.369   2.053  -1.544  0.00  0.00    -0.460 OA
BRANCH  20  24
ATOM     24  C   LIG    1        9.997   2.579  -3.817  0.00  0.00    +0.240 C 
ATOM     25  C   LIG    1        9.525   3.228  -5.121  0.00  0.00    -0.000 C 
ATOM     26  C   LIG    1       10.419   4.431  -5.436  0.00  0.00    +0.220 C 
ATOM     27  O   LIG    1       11.779   4.001  -5.524  0.00  0.00    -0.380 OA
ATOM     28  C   LIG    1       12.289   3.429  -4.318  0.00  0.00    +0.230 C 
ATOM     29  C   LIG    1       11.470   2.186  -3.959  0.00  0.00    -0.000 C 
ENDBRANCH  20  24
ENDBRANCH   1  17
TORSDOF 4
