REMARK  Name = ZINCrg00000bmomD.0
REMARK                            x       y       z     vdW  Elec       q    Type
REMARK                         _______ _______ _______ _____ _____    ______ ____
ROOT
ATOM      1  C   LIG    1        3.370  -5.777   2.551  0.00  0.00    +0.230 C 
ATOM      2  C   LIG    1        2.295  -6.801   2.180  0.00  0.00    +0.020 C 
ATOM      3  C   LIG    1        1.066  -6.598   3.068  0.00  0.00    +0.020 C 
ATOM      4  C   LIG    1        1.457  -6.817   4.533  0.00  0.00    +0.260 C 
ATOM      5  N   LIG    1        2.588  -5.937   4.857  0.00  0.00    -0.610 N 
ATOM      6  C   LIG    1        2.527  -5.100   5.911  0.00  0.00    +0.520 C 
ATOM      7  O   LIG    1        3.428  -4.314   6.115  0.00  0.00    -0.530 OA
ATOM      8  C   LIG    1        3.788  -5.987   4.010  0.00  0.00    +0.230 C 
ATOM      9  C   LIG    1        4.758  -4.881   4.429  0.00  0.00    +0.060 C 
ENDROOT
BRANCH   1  11
ATOM     10  C   LIG    1        2.870  -3.827   1.177  0.00  0.00    +0.520 C 
ATOM     11  N   LIG    1        2.833  -4.424   2.385  0.00  0.00    -0.720 N 
ATOM     12  H   LIG    1        2.452  -3.957   3.146  0.00  0.00    +0.400 HD
ATOM     13  O   LIG    1        3.347  -4.411   0.227  0.00  0.00    -0.530 OA
BRANCH  10  14
ATOM     14  C   LIG    1        2.318  -2.435   1.008  0.00  0.00    +0.040 C 
BRANCH  14  16
ATOM     15  C   LIG    1        1.622  -2.885  -1.349  0.00  0.00    +0.060 C 
ATOM     16  C   LIG    1        2.482  -1.996  -0.449  0.00  0.00    +0.290 C 
BRANCH  16  17
ATOM     17  N   LIG    1        2.055  -0.602  -0.589  0.00  0.00    -0.370 N 
ATOM     18  C   LIG    1        0.791  -0.174  -0.786  0.00  0.00    +0.220 A 
ATOM     19  C   LIG    1        0.819   1.177  -0.863  0.00  0.00    -0.120 A 
ATOM     20  C   LIG    1        2.147   1.589  -0.707  0.00  0.00    +0.220 A 
ATOM     21  N   LIG    1        2.889   0.523  -0.543  0.00  0.00    -0.300 NA
ENDBRANCH  16  17
ENDBRANCH  14  16
ENDBRANCH  10  14
ENDBRANCH   1  11
BRANCH   6  22
ATOM     22  C   LIG    1        1.338  -5.140   6.837  0.00  0.00    +0.050 C 
BRANCH  22  23
ATOM     23  C   LIG    1        1.517  -4.097   7.942  0.00  0.00    +0.180 C 
BRANCH  23  24
ATOM     24  C   LIG    1        0.328  -4.138   8.868  0.00  0.00    +0.010 A 
ATOM     25  N   LIG    1       -0.937  -4.016   8.537  0.00  0.00    -0.280 NA
ATOM     26  N   LIG    1       -1.652  -4.104   9.602  0.00  0.00    -0.250 N 
ATOM     27  H   LIG    1       -2.620  -4.045   9.623  0.00  0.00    +0.470 HD
ATOM     28  N   LIG    1       -0.909  -4.281  10.637  0.00  0.00    -0.280 NA
ATOM     29  C   LIG    1        0.346  -4.319  10.253  0.00  0.00    +0.180 A 
ENDBRANCH  23  24
ENDBRANCH  22  23
ENDBRANCH   6  22
TORSDOF 7
