REMARK  Name = ZINCvU0000000AFc.0
REMARK                            x       y       z     vdW  Elec       q    Type
REMARK                         _______ _______ _______ _____ _____    ______ ____
ROOT
ATOM      1  S   LIG    1       -3.357  -2.840  -0.329  0.00  0.00    +0.100 S 
ENDROOT
BRANCH   1   2
ATOM      2  C   LIG    1       -4.998  -3.470  -0.441  0.00  0.00    +0.190 A 
ATOM      3  C   LIG    1       -5.228  -4.863  -0.569  0.00  0.00    -0.160 A 
ATOM      4  C   LIG    1       -4.285  -5.972  -0.630  0.00  0.00    -0.030 A 
ATOM      5  C   LIG    1       -4.852  -7.171  -0.754  0.00  0.00    +0.000 A 
ATOM      6  S   LIG    1       -6.601  -7.047  -0.792  0.00  0.00    +0.200 S 
ATOM      7  C   LIG    1       -6.552  -5.296  -0.648  0.00  0.00    +0.100 A 
ATOM      8  N   LIG    1       -7.537  -4.388  -0.612  0.00  0.00    -0.490 NA
ATOM      9  C   LIG    1       -7.274  -3.107  -0.497  0.00  0.00    +0.540 A 
ATOM     10  N   LIG    1       -6.038  -2.648  -0.414  0.00  0.00    -0.530 NA
BRANCH   4  11
ATOM     11  C   LIG    1       -2.816  -5.782  -0.562  0.00  0.00    -0.040 A 
ATOM     12  C   LIG    1       -2.192  -4.852  -1.392  0.00  0.00    +0.060 A 
ATOM     13  C   LIG    1       -0.825  -4.676  -1.321  0.00  0.00    +0.050 A 
ATOM     14  C   LIG    1       -0.073  -5.428  -0.435  0.00  0.00    -0.020 A 
ATOM     15  C   LIG    1       -0.687  -6.357   0.387  0.00  0.00    +0.030 A 
ATOM     16 CL   LIG    1        1.647  -5.206  -0.355  0.00  0.00    -0.060 Cl
ATOM     17  C   LIG    1       -2.054  -6.538   0.328  0.00  0.00    +0.050 A 
ENDBRANCH   4  11
ENDBRANCH   1   2
BRANCH   1  18
ATOM     18  C   LIG    1       -3.708  -1.069  -0.198  0.00  0.00    +0.080 C 
BRANCH  18  20
ATOM     19  O   LIG    1       -1.356  -0.903  -0.096  0.00  0.00    -0.500 OA
ATOM     20  C   LIG    1       -2.412  -0.307  -0.088  0.00  0.00    +0.530 C 
ATOM     21  N   LIG    1       -2.428   1.036   0.020  0.00  0.00    -0.660 N 
ATOM     22  H   LIG    1       -3.272   1.506   0.104  0.00  0.00    +0.420 HD
BRANCH  21  23
ATOM     23  C   LIG    1       -1.224   1.754   0.012  0.00  0.00    +0.150 A 
ATOM     24  C   LIG    1       -0.152   1.302  -0.746  0.00  0.00    +0.030 A 
ATOM     25  C   LIG    1        1.033   2.012  -0.759  0.00  0.00    +0.050 A 
ATOM     26  C   LIG    1        1.157   3.174  -0.011  0.00  0.00    +0.040 A 
ATOM     27  O   LIG    1        2.335   3.858  -0.033  0.00  0.00    -0.310 OA
ATOM     28  C   LIG    1        2.302   5.211   0.432  0.00  0.00    +0.220 C 
ATOM     29  C   LIG    1        1.512   5.249   1.747  0.00  0.00    +0.220 C 
ATOM     30  O   LIG    1        0.189   4.766   1.489  0.00  0.00    -0.310 OA
ATOM     31  C   LIG    1        0.087   3.626   0.752  0.00  0.00    +0.070 A 
ATOM     32  C   LIG    1       -1.102   2.913   0.765  0.00  0.00    +0.000 A 
ENDBRANCH  21  23
ENDBRANCH  18  20
ENDBRANCH   1  18
TORSDOF 5
