REMARK  Name = ZINCvU0000000Fxn.0
REMARK                            x       y       z     vdW  Elec       q    Type
REMARK                         _______ _______ _______ _____ _____    ______ ____
ROOT
ATOM      1  N   LIG    1        3.395   2.336  -0.017  0.00  0.00    -0.490 N 
ATOM      2  C   LIG    1        2.404   1.375  -0.013  0.00  0.00    +0.050 A 
ATOM      3  C   LIG    1        2.403  -0.013  -0.021  0.00  0.00    +0.010 A 
ATOM      4  C   LIG    1        1.205  -0.695  -0.014  0.00  0.00    +0.030 A 
ATOM      5  C   LIG    1        0.002  -0.004   0.002  0.00  0.00    +0.000 A 
ATOM      6  C   LIG    1       -0.017   1.362   0.009  0.00  0.00    +0.070 A 
ATOM      7  C   LIG    1        1.185   2.075   0.002  0.00  0.00    +0.050 A 
ATOM      8  N   LIG    1        1.489   3.398   0.007  0.00  0.00    -0.490 NA
ATOM      9  C   LIG    1        2.781   3.550  -0.004  0.00  0.00    +0.290 A 
ENDROOT
BRANCH   1  10
ATOM     10  C   LIG    1        4.840   2.093  -0.033  0.00  0.00    +0.300 C 
BRANCH  10  11
ATOM     11  C   LIG    1        5.329   2.018  -1.480  0.00  0.00    +0.010 C 
BRANCH  11  12
ATOM     12  C   LIG    1        6.838   1.765  -1.496  0.00  0.00    +0.040 C 
BRANCH  12  13
ATOM     13  C   LIG    1        7.327   1.690  -2.944  0.00  0.00    +0.180 C 
BRANCH  13  14
ATOM     14  O   LIG    1        8.736   1.453  -2.959  0.00  0.00    -0.310 OA
BRANCH  14  21
ATOM     15  C   LIG    1       11.524   0.998  -3.010  0.00  0.00    +0.100 C 
ATOM     16  C   LIG    1       10.700   1.135  -4.264  0.00  0.00    -0.120 A 
ATOM     17  C   LIG    1       11.303   1.033  -5.503  0.00  0.00    +0.050 A 
ATOM     18  C   LIG    1       10.548   1.166  -6.654  0.00  0.00    -0.030 A 
ATOM     19  C   LIG    1        9.187   1.394  -6.569  0.00  0.00    +0.030 A 
ATOM     20  C   LIG    1        8.578   1.491  -5.332  0.00  0.00    -0.080 A 
ATOM     21  C   LIG    1        9.333   1.358  -4.176  0.00  0.00    +0.130 A 
ENDBRANCH  14  21
ENDBRANCH  13  14
ENDBRANCH  12  13
ENDBRANCH  11  12
ENDBRANCH  10  11
ENDBRANCH   1  10
BRANCH   9  22
ATOM     22  C   LIG    1        3.494   4.878  -0.004  0.00  0.00    +0.160 C 
BRANCH  22  23
ATOM     23  C   LIG    1        3.721   5.335  -1.446  0.00  0.00    +0.020 C 
BRANCH  23  24
ATOM     24  C   LIG    1        4.445   6.683  -1.446  0.00  0.00    +0.260 C 
BRANCH  24  25
ATOM     25  N   LIG    1        4.662   7.121  -2.827  0.00  0.00    -0.730 N 
ATOM     26  H   LIG    1        4.356   6.570  -3.564  0.00  0.00    +0.400 HD
ATOM     27  C   LIG    1        5.287   8.290  -3.073  0.00  0.00    +0.520 C 
ATOM     28  O   LIG    1        5.669   8.979  -2.151  0.00  0.00    -0.530 OA
BRANCH  27  29
ATOM     29  C   LIG    1        5.510   8.741  -4.493  0.00  0.00    -0.090 C 
ATOM     30  C   LIG    1        4.161   8.886  -5.200  0.00  0.00    +0.050 C 
ATOM     31  C   LIG    1        6.362   7.704  -5.229  0.00  0.00    +0.050 C 
ATOM     32  C   LIG    1        6.234  10.088  -4.493  0.00  0.00    +0.050 C 
ENDBRANCH  27  29
ENDBRANCH  24  25
ENDBRANCH  23  24
ENDBRANCH  22  23
ENDBRANCH   9  22
TORSDOF 11
