REMARK  Name = ZINCrg00000SjSK9.0
REMARK                            x       y       z     vdW  Elec       q    Type
REMARK                         _______ _______ _______ _____ _____    ______ ____
ROOT
ATOM      1  N   LIG    1       -0.011   0.966   0.007  0.00  0.00    -0.650 N 
ATOM      2  H   LIG    1       -0.074  -0.002   0.016  0.00  0.00    +0.430 HD
ATOM      3  C   LIG    1        1.197   1.562  -0.015  0.00  0.00    +0.580 C 
ATOM      4  O   LIG    1        1.276   2.773  -0.109  0.00  0.00    -0.490 OA
ENDROOT
BRANCH   1  11
ATOM      5  C   LIG    1       -2.258   0.009   1.468  0.00  0.00    +0.110 C 
ATOM      6  C   LIG    1       -2.294   1.313   0.713  0.00  0.00    -0.100 A 
ATOM      7  C   LIG    1       -3.439   2.085   0.721  0.00  0.00    +0.120 A 
ATOM      8  C   LIG    1       -3.475   3.279   0.023  0.00  0.00    -0.050 A 
ATOM      9  C   LIG    1       -2.364   3.706  -0.680  0.00  0.00    +0.120 A 
ATOM     10  C   LIG    1       -1.214   2.941  -0.687  0.00  0.00    +0.040 A 
ATOM     11  C   LIG    1       -1.174   1.742   0.013  0.00  0.00    +0.190 A 
BRANCH   8  12
ATOM     12  N   LIG    1       -4.706   4.100   0.029  0.00  0.00    +0.030 N 
ATOM     13  O   LIG    1       -5.686   3.725   0.648  0.00  0.00    -0.160 OA
ATOM     14  O   LIG    1       -4.740   5.152  -0.585  0.00  0.00    -0.160 OA
ENDBRANCH   8  12
ENDBRANCH   1  11
BRANCH   3  15
ATOM     15  C   LIG    1        2.417   0.752   0.073  0.00  0.00    +0.080 C 
ATOM     16  N   LIG    1        2.322  -0.537   0.178  0.00  0.00    -0.200 NA
ATOM     17  N   LIG    1        3.463  -1.341   0.262  0.00  0.00    -0.440 N 
ATOM     18  C   LIG    1        4.646  -0.809   0.629  0.00  0.00    +0.500 C 
ATOM     19  C   LIG    1        4.740   0.663   0.939  0.00  0.00    +0.100 C 
ATOM     20  O   LIG    1        5.630  -1.512   0.709  0.00  0.00    -0.500 OA
ATOM     21  C   LIG    1        3.761   1.429   0.047  0.00  0.00    +0.120 C 
BRANCH  17  22
ATOM     22  C   LIG    1        3.372  -2.771  -0.046  0.00  0.00    +0.300 C 
ATOM     23  C   LIG    1        2.831  -2.969  -1.473  0.00  0.00    +0.070 C 
ATOM     24  C   LIG    1        2.426  -4.447  -1.647  0.00  0.00    -0.300 C 
ATOM     25  S   LIG    1        1.979  -5.019   0.032  0.00  0.00    +2.400 S 
ATOM     26  O   LIG    1        0.581  -5.262   0.093  0.00  0.00    -0.930 OA
ATOM     27  O   LIG    1        2.892  -6.027   0.444  0.00  0.00    -0.920 OA
ATOM     28  C   LIG    1        2.363  -3.457   0.910  0.00  0.00    -0.310 C 
ENDBRANCH  17  22
ENDBRANCH   3  15
TORSDOF 4
