REMARK  Name = ZINCAx0000000fTG.0
REMARK                            x       y       z     vdW  Elec       q    Type
REMARK                         _______ _______ _______ _____ _____    ______ ____
ROOT
ATOM      1  N   LIG    1        2.706   1.379  -0.021  0.00  0.00    -0.620 N 
ATOM      2  C   LIG    1        3.163   0.632  -1.205  0.00  0.00    +0.280 C 
ATOM      3  C   LIG    1        4.294  -0.252  -0.658  0.00  0.00    +0.100 C 
ATOM      4  O   LIG    1        4.362   0.078   0.755  0.00  0.00    -0.310 OA
ATOM      5  C   LIG    1        5.611   0.084  -1.352  0.00  0.00    +0.070 C 
ATOM      6  C   LIG    1        6.714  -0.834  -0.818  0.00  0.00    +0.190 C 
ATOM      7  N   LIG    1        6.340  -2.235  -1.052  0.00  0.00    -0.530 NA
ATOM      8  C   LIG    1        5.109  -2.586  -0.332  0.00  0.00    +0.180 C 
ATOM      9  C   LIG    1        3.953  -1.726  -0.850  0.00  0.00    +0.070 C 
ATOM     10  C   LIG    1        3.440   1.008   1.037  0.00  0.00    +0.650 C 
ATOM     11  O   LIG    1        3.282   1.469   2.150  0.00  0.00    -0.520 OA
ENDROOT
BRANCH   1  12
ATOM     12  C   LIG    1        1.628   2.372  -0.004  0.00  0.00    +0.370 C 
BRANCH  12  15
ATOM     13  N   LIG    1       -0.821   2.405   0.345  0.00  0.00    -0.720 N 
ATOM     14  H   LIG    1       -0.796   3.365   0.205  0.00  0.00    +0.410 HD
ATOM     15  C   LIG    1        0.318   1.686   0.286  0.00  0.00    +0.500 C 
ATOM     16  O   LIG    1        0.287   0.486   0.461  0.00  0.00    -0.510 OA
BRANCH  13  17
ATOM     17  C   LIG    1       -2.095   1.737   0.621  0.00  0.00    +0.440 C 
BRANCH  17  18
ATOM     18  C   LIG    1       -3.225   2.557   0.052  0.00  0.00    -0.110 A 
ATOM     19  C   LIG    1       -3.199   3.935   0.155  0.00  0.00    +0.020 A 
ATOM     20  C   LIG    1       -4.234   4.686  -0.370  0.00  0.00    +0.020 A 
ATOM     21  C   LIG    1       -5.298   4.059  -0.991  0.00  0.00    +0.020 A 
ATOM     22  C   LIG    1       -5.326   2.681  -1.090  0.00  0.00    +0.020 A 
ATOM     23  C   LIG    1       -4.289   1.929  -0.568  0.00  0.00    +0.040 A 
ENDBRANCH  17  18
BRANCH  17  25
ATOM     24  N   LIG    1       -2.409   1.495   3.199  0.00  0.00    -0.400 NA
ATOM     25  C   LIG    1       -2.272   1.601   2.076  0.00  0.00    +0.190 C 
ENDBRANCH  17  25
ENDBRANCH  13  17
ENDBRANCH  12  15
ENDBRANCH   1  12
BRANCH   7  26
ATOM     26  C   LIG    1        7.439  -3.140  -0.689  0.00  0.00    +0.190 C 
BRANCH  26  27
ATOM     27  C   LIG    1        7.130  -4.529  -1.187  0.00  0.00    +0.360 C 
ATOM     28  O   LIG    1        6.151  -4.723  -1.866  0.00  0.00    -0.420 OA
BRANCH  27  29
ATOM     29  C   LIG    1        8.044  -5.675  -0.837  0.00  0.00    +0.100 C 
BRANCH  29  30
ATOM     30  C   LIG    1        7.516  -6.945  -1.452  0.00  0.00    -0.120 A 
ATOM     31  C   LIG    1        6.718  -7.793  -0.708  0.00  0.00    +0.090 A 
ATOM     32  C   LIG    1        6.228  -8.955  -1.273  0.00  0.00    -0.020 A 
ATOM     33  C   LIG    1        6.545  -9.277  -2.582  0.00  0.00    +0.130 A 
ATOM     34  C   LIG    1        7.349  -8.431  -3.327  0.00  0.00    -0.040 A 
ATOM     35  F   LIG    1        6.070 -10.415  -3.133  0.00  0.00    -0.130 F 
ATOM     36  C   LIG    1        7.835  -7.264  -2.762  0.00  0.00    +0.140 A 
ATOM     37  F   LIG    1        8.620  -6.438  -3.487  0.00  0.00    -0.130 F 
ENDBRANCH  29  30
ENDBRANCH  27  29
ENDBRANCH  26  27
ENDBRANCH   7  26
TORSDOF 9
