REMARK  Name = ZINCrH000004kevJ.0
REMARK                            x       y       z     vdW  Elec       q    Type
REMARK                         _______ _______ _______ _____ _____    ______ ____
ROOT
ATOM      1  N   LIG    1        1.390   1.590   2.428  0.00  0.00    -0.680 N 
ATOM      2  H   LIG    1        1.832   1.215   1.651  0.00  0.00    +0.410 HD
ATOM      3  C   LIG    1        2.108   1.913   3.522  0.00  0.00    +0.720 C 
ATOM      4  N   LIG    1        3.451   1.799   3.504  0.00  0.00    -0.630 N 
ATOM      5  C   LIG    1        4.258   1.333   2.362  0.00  0.00    +0.230 C 
ATOM      6  C   LIG    1        5.569   0.802   2.991  0.00  0.00    +0.040 C 
ATOM      7  C   LIG    1        5.790   1.808   4.151  0.00  0.00    +0.050 C 
ATOM      8  C   LIG    1        4.353   2.115   4.621  0.00  0.00    +0.290 C 
ATOM      9  O   LIG    1        1.545   2.305   4.525  0.00  0.00    -0.550 OA
ENDROOT
BRANCH   1  14
ATOM     10  C   LIG    1       -2.112   1.831   3.555  0.00  0.00    -0.120 A 
ATOM     11  C   LIG    1       -2.740   2.209   2.367  0.00  0.00    +0.030 A 
ATOM     12  C   LIG    1       -1.995   2.383   1.218  0.00  0.00    +0.020 A 
ATOM     13  C   LIG    1       -0.629   2.173   1.236  0.00  0.00    -0.090 A 
ATOM     14  C   LIG    1        0.005   1.797   2.414  0.00  0.00    +0.160 A 
ATOM     15  C   LIG    1        0.176   2.359  -0.024  0.00  0.00    +0.100 C 
ATOM     16  C   LIG    1       -0.733   1.625   3.575  0.00  0.00    +0.100 A 
BRANCH  10  20
ATOM     17  C   LIG    1       -5.026   1.672   5.991  0.00  0.00    +0.290 C 
ATOM     18  N   LIG    1       -4.239   1.851   4.768  0.00  0.00    -0.730 N 
ATOM     19  H   LIG    1       -4.677   2.113   3.943  0.00  0.00    +0.400 HD
ATOM     20  C   LIG    1       -2.906   1.651   4.789  0.00  0.00    +0.560 C 
ATOM     21  O   LIG    1       -2.357   1.322   5.823  0.00  0.00    -0.530 OA
ENDBRANCH  10  20
ENDBRANCH   1  14
BRANCH   8  22
ATOM     22  C   LIG    1        4.232   3.574   4.981  0.00  0.00    -0.120 A 
ATOM     23  C   LIG    1        4.087   4.521   3.984  0.00  0.00    +0.060 A 
ATOM     24  C   LIG    1        3.971   5.858   4.311  0.00  0.00    -0.080 A 
ATOM     25  C   LIG    1        4.010   6.251   5.641  0.00  0.00    +0.130 A 
ATOM     26  C   LIG    1        4.161   5.299   6.639  0.00  0.00    -0.020 A 
ATOM     27  C   LIG    1        4.272   3.963   6.307  0.00  0.00    +0.070 A 
BRANCH  25  28
ATOM     28  O   LIG    1        3.901   7.566   5.965  0.00  0.00    -0.320 OA
ATOM     29  C   LIG    1        3.748   8.490   4.886  0.00  0.00    +0.230 C 
ENDBRANCH  25  28
ENDBRANCH   8  22
TORSDOF 4
