REMARK  Name = ZINCrD0000074yH7.0
REMARK                            x       y       z     vdW  Elec       q    Type
REMARK                         _______ _______ _______ _____ _____    ______ ____
ROOT
ATOM      1  O   LIG    1       -0.749   3.031   1.275  0.00  0.00    -0.330 OA
ENDROOT
BRANCH   1   2
ATOM      2  C   LIG    1       -1.798   3.630   0.690  0.00  0.00    +0.440 C 
ATOM      3  O   LIG    1       -2.671   2.962   0.188  0.00  0.00    -0.480 OA
BRANCH   2   4
ATOM      4  C   LIG    1       -1.887   5.134   0.659  0.00  0.00    +0.380 C 
BRANCH   4  14
ATOM      5  C   LIG    1       -2.095   5.653  -2.364  0.00  0.00    +0.140 C 
ATOM      6  C   LIG    1       -3.223   5.771  -1.373  0.00  0.00    +0.080 A 
ATOM      7  C   LIG    1       -4.484   6.118  -1.678  0.00  0.00    -0.040 A 
ATOM      8  C   LIG    1       -5.244   6.114  -0.425  0.00  0.00    -0.100 A 
ATOM      9  C   LIG    1       -6.572   6.388  -0.096  0.00  0.00    +0.050 A 
ATOM     10  C   LIG    1       -6.982   6.292   1.204  0.00  0.00    -0.020 A 
ATOM     11  C   LIG    1       -6.089   5.924   2.200  0.00  0.00    +0.030 A 
ATOM     12  C   LIG    1       -4.773   5.649   1.897  0.00  0.00    -0.010 A 
ATOM     13  C   LIG    1       -4.334   5.740   0.580  0.00  0.00    +0.100 A 
ATOM     14  N   LIG    1       -3.116   5.536  -0.029  0.00  0.00    -0.470 N 
ENDBRANCH   4  14
ENDBRANCH   2   4
ENDBRANCH   1   2
BRANCH   1  15
ATOM     15  C   LIG    1       -0.729   1.579   1.267  0.00  0.00    +0.180 C 
ATOM     16  C   LIG    1       -0.013   1.086   0.008  0.00  0.00    +0.070 C 
BRANCH  15  17
ATOM     17  C   LIG    1        0.000   1.080   2.488  0.00  0.00    +0.520 C 
ATOM     18  N   LIG    1        0.056  -0.242   2.745  0.00  0.00    -0.720 N 
ATOM     19  H   LIG    1       -0.372  -0.872   2.145  0.00  0.00    +0.400 HD
ATOM     20  O   LIG    1        0.536   1.868   3.238  0.00  0.00    -0.510 OA
BRANCH  18  21
ATOM     21  C   LIG    1        0.765  -0.727   3.932  0.00  0.00    +0.320 C 
BRANCH  21  22
ATOM     22  C   LIG    1        0.679  -2.231   3.989  0.00  0.00    -0.130 A 
ATOM     23  C   LIG    1       -0.368  -2.838   4.656  0.00  0.00    +0.070 A 
ATOM     24  C   LIG    1       -0.450  -4.217   4.703  0.00  0.00    -0.020 A 
ATOM     25  C   LIG    1        0.523  -4.990   4.092  0.00  0.00    +0.110 A 
ATOM     26  C   LIG    1        1.574  -4.380   3.429  0.00  0.00    -0.020 A 
ATOM     27  F   LIG    1        0.447  -6.338   4.143  0.00  0.00    -0.140 F 
ATOM     28  C   LIG    1        1.651  -3.001   3.378  0.00  0.00    +0.070 A 
ENDBRANCH  21  22
ENDBRANCH  18  21
ENDBRANCH  15  17
ENDBRANCH   1  15
TORSDOF 7
