REMARK  Name = ZINCpe00000VQa75.0
REMARK                            x       y       z     vdW  Elec       q    Type
REMARK                         _______ _______ _______ _____ _____    ______ ____
ROOT
ATOM      1  C   LIG    1       -5.451   4.290   3.210  0.00  0.00    +0.560 C 
ATOM      2  N   LIG    1       -4.233   3.923   3.655  0.00  0.00    -0.600 N 
ATOM      3  C   LIG    1       -3.980   3.761   5.093  0.00  0.00    +0.270 C 
ATOM      4  C   LIG    1       -3.390   2.368   5.336  0.00  0.00    +0.030 C 
ATOM      5  C   LIG    1       -2.153   2.181   4.454  0.00  0.00    +0.060 C 
ATOM      6  C   LIG    1       -2.554   2.286   2.981  0.00  0.00    -0.470 C 
ATOM      7  C   LIG    1       -3.134   3.678   2.712  0.00  0.00    +0.330 C 
ATOM      8  O   LIG    1       -5.629   4.496   2.026  0.00  0.00    -0.510 OA
ENDROOT
BRANCH   1  14
ATOM      9  C   LIG    1       -7.778   3.746   3.954  0.00  0.00    +0.020 A 
ATOM     10  C   LIG    1       -8.823   3.895   4.863  0.00  0.00    +0.070 A 
ATOM     11  C   LIG    1       -8.676   4.730   5.954  0.00  0.00    +0.040 A 
ATOM     12  C   LIG    1       -7.492   5.418   6.156  0.00  0.00    +0.050 A 
ATOM     13  C   LIG    1       -6.442   5.279   5.268  0.00  0.00    +0.050 A 
ATOM     14  C   LIG    1       -6.572   4.442   4.162  0.00  0.00    -0.080 A 
BRANCH   9  16
ATOM     15  N   LIG    1       -8.046   2.205   1.917  0.00  0.00    -0.390 NA
ATOM     16  C   LIG    1       -7.928   2.887   2.818  0.00  0.00    +0.240 C 
ENDBRANCH   9  16
ENDBRANCH   1  14
BRANCH   6  17
ATOM     17  S   LIG    1       -1.094   2.026   1.936  0.00  0.00    +2.610 S 
ATOM     18  O   LIG    1       -0.132   3.047   2.162  0.00  0.00    -0.940 OA
ATOM     19  O   LIG    1       -0.721   0.655   1.933  0.00  0.00    -0.940 OA
BRANCH  17  20
ATOM     20  N   LIG    1       -1.633   2.306   0.396  0.00  0.00    -1.000 NA
ATOM     21  C   LIG    1       -2.180   1.214  -0.425  0.00  0.00    +0.260 C 
ATOM     22  C   LIG    1       -1.478   1.235  -1.787  0.00  0.00    +0.220 C 
ATOM     23  O   LIG    1       -1.562   2.550  -2.341  0.00  0.00    -0.380 OA
ATOM     24  C   LIG    1       -0.905   3.555  -1.566  0.00  0.00    +0.220 C 
ATOM     25  C   LIG    1       -1.579   3.654  -0.192  0.00  0.00    +0.270 C 
ENDBRANCH  17  20
ENDBRANCH   6  17
TORSDOF 4
