REMARK  Name = ZINCrH00000altvH.0
REMARK                            x       y       z     vdW  Elec       q    Type
REMARK                         _______ _______ _______ _____ _____    ______ ____
ROOT
ATOM      1  C   LIG    1        1.757   1.247   5.804  0.00  0.00    +0.530 C 
ATOM      2  N   LIG    1        1.141   1.476   4.628  0.00  0.00    -0.610 N 
ATOM      3  C   LIG    1        1.660   0.888   3.385  0.00  0.00    +0.280 C 
ATOM      4  C   LIG    1        0.536   0.087   2.715  0.00  0.00    +0.270 C 
ATOM      5  N   LIG    1       -0.667   0.928   2.652  0.00  0.00    -0.610 N 
ATOM      6  C   LIG    1       -1.183   1.520   3.894  0.00  0.00    +0.290 C 
ATOM      7  C   LIG    1       -1.284   1.156   1.476  0.00  0.00    +0.540 C 
ATOM      8  O   LIG    1       -2.276   1.852   1.436  0.00  0.00    -0.510 OA
ATOM      9  C   LIG    1       -0.063   2.317   4.565  0.00  0.00    +0.210 C 
ATOM     10  C   LIG    1       -0.487   2.712   5.981  0.00  0.00    +0.060 C 
ATOM     11  O   LIG    1        1.386   1.823   6.805  0.00  0.00    -0.520 OA
ENDROOT
BRANCH   1  13
ATOM     12  C   LIG    1        4.150   0.910   5.247  0.00  0.00    +0.070 C 
ATOM     13  C   LIG    1        2.908   0.276   5.876  0.00  0.00    -0.040 C 
BRANCH  13  14
ATOM     14  C   LIG    1        3.195  -0.067   7.339  0.00  0.00    +0.250 C 
ATOM     15  F   LIG    1        4.263  -0.968   7.406  0.00  0.00    -0.210 F 
ENDBRANCH  13  14
ENDBRANCH   1  13
BRANCH   7  16
ATOM     16  C   LIG    1       -0.739   0.547   0.209  0.00  0.00    +0.090 C 
BRANCH  16  17
ATOM     17  S   LIG    1       -1.781   1.037  -1.193  0.00  0.00    -0.030 S 
BRANCH  17  18
ATOM     18  C   LIG    1       -1.002   0.244  -2.561  0.00  0.00    -0.110 A 
ATOM     19  C   LIG    1        0.140  -0.522  -2.364  0.00  0.00    -0.010 A 
ATOM     20  C   LIG    1        0.743  -1.148  -3.437  0.00  0.00    +0.030 A 
ATOM     21  C   LIG    1        0.220  -1.001  -4.708  0.00  0.00    -0.070 A 
ATOM     22  C   LIG    1       -0.913  -0.234  -4.909  0.00  0.00    +0.040 A 
ATOM     23  C   LIG    1       -1.526   0.389  -3.840  0.00  0.00    +0.040 A 
BRANCH  21  24
ATOM     24  C   LIG    1        0.885  -1.680  -5.878  0.00  0.00    -0.030 C 
ATOM     25  C   LIG    1       -0.103  -2.643  -6.538  0.00  0.00    +0.040 C 
ATOM     26  C   LIG    1        2.107  -2.459  -5.388  0.00  0.00    +0.030 C 
ATOM     27  C   LIG    1        1.327  -0.625  -6.895  0.00  0.00    +0.040 C 
ENDBRANCH  21  24
ENDBRANCH  17  18
ENDBRANCH  16  17
ENDBRANCH   7  16
TORSDOF 6
