REMARK  Name = ZINCvU00000006dG.0
REMARK                            x       y       z     vdW  Elec       q    Type
REMARK                         _______ _______ _______ _____ _____    ______ ____
ROOT
ATOM      1  C   LIG    1        1.025  11.724  -0.108  0.00  0.00    +0.320 C 
ENDROOT
BRANCH   1   4
ATOM      2  N   LIG    1        2.652  13.581   0.049  0.00  0.00    -0.670 N 
ATOM      3  H   LIG    1        1.903  14.194   0.106  0.00  0.00    +0.420 HD
ATOM      4  C   LIG    1        2.433  12.262  -0.124  0.00  0.00    +0.510 C 
ATOM      5  O   LIG    1        3.368  11.508  -0.292  0.00  0.00    -0.510 OA
BRANCH   2  10
ATOM      6  C   LIG    1        6.248  13.776   0.829  0.00  0.00    -0.000 A 
ATOM      7  C   LIG    1        6.553  15.040   0.327  0.00  0.00    +0.010 A 
ATOM      8  C   LIG    1        5.566  15.807  -0.261  0.00  0.00    +0.030 A 
ATOM      9  C   LIG    1        4.275  15.325  -0.353  0.00  0.00    +0.000 A 
ATOM     10  C   LIG    1        3.962  14.065   0.144  0.00  0.00    +0.140 A 
ATOM     11  C   LIG    1        4.945  13.292   0.741  0.00  0.00    +0.060 A 
BRANCH   6  15
ATOM     12  C   LIG    1        8.066   9.679   2.922  0.00  0.00    +0.180 C 
ATOM     13  C   LIG    1        8.104  11.093   2.401  0.00  0.00    +0.050 A 
ATOM     14  N   LIG    1        7.105  11.706   1.868  0.00  0.00    -0.460 NA
ATOM     15  C   LIG    1        7.307  12.951   1.460  0.00  0.00    +0.110 A 
ATOM     16  C   LIG    1        8.562  13.399   1.665  0.00  0.00    -0.070 A 
ATOM     17  S   LIG    1        9.480  12.107   2.434  0.00  0.00    +0.130 S 
ENDBRANCH   6  15
ENDBRANCH   2  10
ENDBRANCH   1   4
BRANCH   1  18
ATOM     18  N   LIG    1        1.054  10.274  -0.315  0.00  0.00    -0.720 N 
ATOM     19  H   LIG    1        1.901   9.818  -0.435  0.00  0.00    +0.410 HD
ATOM     20  C   LIG    1       -0.098   9.574  -0.339  0.00  0.00    +0.570 C 
ATOM     21  O   LIG    1       -1.160  10.146  -0.189  0.00  0.00    -0.530 OA
BRANCH  20  22
ATOM     22  C   LIG    1       -0.069   8.112  -0.548  0.00  0.00    -0.140 A 
ATOM     23  C   LIG    1       -1.262   7.386  -0.573  0.00  0.00    +0.090 A 
ATOM     24  C   LIG    1       -1.234   6.023  -0.767  0.00  0.00    +0.010 A 
ATOM     25  C   LIG    1       -0.014   5.368  -0.939  0.00  0.00    -0.010 A 
ATOM     26  C   LIG    1        1.178   6.091  -0.909  0.00  0.00    +0.010 A 
ATOM     27  C   LIG    1        1.152   7.455  -0.721  0.00  0.00    +0.050 A 
BRANCH  25  28
ATOM     28  C   LIG    1        0.015   3.900  -1.148  0.00  0.00    -0.060 A 
ATOM     29  C   LIG    1        1.232   3.242  -1.320  0.00  0.00    +0.020 A 
ATOM     30  C   LIG    1        1.253   1.876  -1.514  0.00  0.00    +0.010 A 
ATOM     31  C   LIG    1        0.070   1.159  -1.538  0.00  0.00    +0.010 A 
ATOM     32  C   LIG    1       -1.141   1.808  -1.373  0.00  0.00    +0.010 A 
ATOM     33  C   LIG    1       -1.174   3.173  -1.173  0.00  0.00    +0.020 A 
ENDBRANCH  25  28
ENDBRANCH  20  22
ENDBRANCH   1  18
TORSDOF 6
