REMARK  Name = ZINCkj000005jAxX.0
REMARK                            x       y       z     vdW  Elec       q    Type
REMARK                         _______ _______ _______ _____ _____    ______ ____
ROOT
ATOM      1  C   LIG    1       -1.667   2.032   1.458  0.00  0.00    +0.030 C 
ATOM      2  C   LIG    1       -1.290   1.681   0.017  0.00  0.00    +0.250 C 
ENDROOT
BRANCH   2   3
ATOM      3  N   LIG    1       -0.011   0.966   0.007  0.00  0.00    -0.730 N 
ATOM      4  H   LIG    1        0.002  -0.004   0.002  0.00  0.00    +0.410 HD
BRANCH   3   5
ATOM      5  C   LIG    1        1.183   1.677  -0.000  0.00  0.00    +0.400 A 
ATOM      6  C   LIG    1        1.156   3.067   0.007  0.00  0.00    -0.060 A 
ATOM      7  C   LIG    1        2.365   3.767  -0.000  0.00  0.00    +0.070 A 
ATOM      8  C   LIG    1        3.556   3.030  -0.016  0.00  0.00    -0.030 A 
ATOM      9  C   LIG    1        3.495   1.652  -0.022  0.00  0.00    +0.330 A 
ATOM     10  N   LIG    1        2.335   1.024  -0.009  0.00  0.00    -0.520 NA
BRANCH   7  11
ATOM     11  C   LIG    1        2.385   5.198   0.008  0.00  0.00    +0.240 C 
ATOM     12  N   LIG    1        2.402   6.334   0.014  0.00  0.00    -0.380 NA
ENDBRANCH   7  11
ENDBRANCH   3   5
ENDBRANCH   2   3
BRANCH   2  13
ATOM     13  C   LIG    1       -2.376   0.792  -0.592  0.00  0.00    +0.050 C 
BRANCH  13  14
ATOM     14  C   LIG    1       -2.062   0.544  -2.069  0.00  0.00    +0.250 C 
BRANCH  14  15
ATOM     15  N   LIG    1       -3.105  -0.309  -2.654  0.00  0.00    -0.390 N 
ATOM     16  C   LIG    1       -3.067  -1.634  -2.020  0.00  0.00    +0.270 C 
ATOM     17  C   LIG    1       -4.166  -2.517  -2.615  0.00  0.00    +0.200 C 
ATOM     18  N   LIG    1       -3.957  -2.643  -4.064  0.00  0.00    -0.540 NA
ATOM     19  C   LIG    1       -3.968  -1.323  -4.710  0.00  0.00    +0.200 C 
ATOM     20  C   LIG    1       -4.960  -3.531  -4.666  0.00  0.00    +0.220 C 
ATOM     21  C   LIG    1       -2.871  -0.449  -4.097  0.00  0.00    +0.280 C 
ATOM     22  H   LIG    1       -4.010   0.111  -2.499  0.00  0.00    +0.420 HD
ENDBRANCH  14  15
ENDBRANCH  13  14
ENDBRANCH   2  13
TORSDOF 6
