REMARK  Name = ZINCkj000005jAxX.1
REMARK                            x       y       z     vdW  Elec       q    Type
REMARK                         _______ _______ _______ _____ _____    ______ ____
ROOT
ATOM      1  C   LIG    1       -4.066   3.164  -1.382  0.00  0.00    +0.030 C 
ATOM      2  C   LIG    1       -3.670   3.516   0.053  0.00  0.00    +0.240 C 
ENDROOT
BRANCH   2   3
ATOM      3  N   LIG    1       -2.390   4.230   0.045  0.00  0.00    -0.720 N 
ATOM      4  H   LIG    1       -2.376   5.200   0.049  0.00  0.00    +0.400 HD
BRANCH   3   5
ATOM      5  C   LIG    1       -1.197   3.518   0.031  0.00  0.00    +0.410 A 
ATOM      6  C   LIG    1       -1.225   2.128   0.019  0.00  0.00    -0.060 A 
ATOM      7  C   LIG    1       -0.017   1.428   0.010  0.00  0.00    +0.070 A 
ATOM      8  C   LIG    1        1.175   2.163   0.003  0.00  0.00    -0.040 A 
ATOM      9  C   LIG    1        1.115   3.541   0.010  0.00  0.00    +0.330 A 
ATOM     10  N   LIG    1       -0.045   4.170   0.024  0.00  0.00    -0.530 NA
BRANCH   7  11
ATOM     11  C   LIG    1        0.002  -0.004   0.002  0.00  0.00    +0.240 C 
ATOM     12  N   LIG    1        0.018  -1.140  -0.004  0.00  0.00    -0.390 NA
ENDBRANCH   7  11
ENDBRANCH   3   5
ENDBRANCH   2   3
BRANCH   2  13
ATOM     13  C   LIG    1       -4.747   4.406   0.676  0.00  0.00    +0.050 C 
BRANCH  13  14
ATOM     14  C   LIG    1       -4.413   4.656   2.148  0.00  0.00    +0.190 C 
BRANCH  14  15
ATOM     15  N   LIG    1       -5.447   5.511   2.747  0.00  0.00    -0.540 NA
ATOM     16  C   LIG    1       -5.425   6.856   2.156  0.00  0.00    +0.200 C 
ATOM     17  C   LIG    1       -6.553   7.695   2.762  0.00  0.00    +0.280 C 
ATOM     18  N   LIG    1       -6.374   7.778   4.217  0.00  0.00    -0.390 N 
ATOM     19  C   LIG    1       -6.422   6.429   4.796  0.00  0.00    +0.280 C 
ATOM     20  C   LIG    1       -7.446   8.598   4.796  0.00  0.00    +0.310 C 
ATOM     21  H   LIG    1       -5.480   8.200   4.422  0.00  0.00    +0.420 HD
ATOM     22  C   LIG    1       -5.293   5.580   4.207  0.00  0.00    +0.200 C 
ENDBRANCH  14  15
ENDBRANCH  13  14
ENDBRANCH   2  13
TORSDOF 6
