REMARK  Name = ZINCnE000001GLv1.0
REMARK                            x       y       z     vdW  Elec       q    Type
REMARK                         _______ _______ _______ _____ _____    ______ ____
ROOT
ATOM      1  C   LIG    1        1.777  -6.578  -1.122  0.00  0.00    +0.150 A 
ATOM      2  C   LIG    1        2.330  -6.973  -2.330  0.00  0.00    -0.170 A 
ATOM      3  C   LIG    1        2.738  -6.024  -3.250  0.00  0.00    -0.030 A 
ATOM      4  C   LIG    1        2.595  -4.677  -2.967  0.00  0.00    +0.040 A 
ATOM      5  C   LIG    1        2.038  -4.276  -1.754  0.00  0.00    +0.300 A 
ATOM      6  C   LIG    1        1.636  -5.229  -0.831  0.00  0.00    -0.160 A 
ENDROOT
BRANCH   1   7
ATOM      7  O   LIG    1        1.378  -7.513  -0.219  0.00  0.00    -0.320 OA
BRANCH   7   9
ATOM      8  C   LIG    1        1.055  -9.782   0.549  0.00  0.00    +0.040 C 
ATOM      9  C   LIG    1        1.558  -8.884  -0.583  0.00  0.00    +0.180 C 
ENDBRANCH   7   9
ENDBRANCH   1   7
BRANCH   5  10
ATOM     10  N   LIG    1        1.892  -2.915  -1.465  0.00  0.00    -1.060 NA
BRANCH  10  11
ATOM     11  S   LIG    1        1.231  -2.441  -0.022  0.00  0.00    +2.600 S 
ATOM     12  O   LIG    1       -0.126  -2.860  -0.046  0.00  0.00    -1.020 OA
ATOM     13  O   LIG    1        2.149  -2.835   0.989  0.00  0.00    -1.020 OA
BRANCH  11  14
ATOM     14  C   LIG    1        1.208  -0.679  -0.013  0.00  0.00    -0.660 A 
ATOM     15  C   LIG    1        0.002  -0.004   0.002  0.00  0.00    +0.150 A 
ATOM     16  C   LIG    1       -0.017   1.378   0.010  0.00  0.00    -0.030 A 
ATOM     17  C   LIG    1        1.170   2.087   0.002  0.00  0.00    +0.070 A 
ATOM     18  C   LIG    1        2.377   1.414  -0.013  0.00  0.00    -0.040 A 
ATOM     19  C   LIG    1        2.397   0.029  -0.021  0.00  0.00    +0.200 A 
ATOM     20  F   LIG    1        3.577  -0.629  -0.035  0.00  0.00    -0.110 F 
ENDBRANCH  11  14
ENDBRANCH  10  11
ENDBRANCH   5  10
BRANCH   4  21
ATOM     21  O   LIG    1        2.997  -3.744  -3.873  0.00  0.00    -0.290 OA
BRANCH  21  22
ATOM     22  C   LIG    1        3.558  -4.226  -5.095  0.00  0.00    +0.150 C 
ATOM     23  C   LIG    1        3.947  -3.040  -5.980  0.00  0.00    +0.040 C 
ENDBRANCH  21  22
ENDBRANCH   4  21
TORSDOF 7
