REMARK  Name = ZINCkj000005kAPv.0
REMARK                            x       y       z     vdW  Elec       q    Type
REMARK                         _______ _______ _______ _____ _____    ______ ____
ROOT
ATOM      1  N   LIG    1       -1.395   3.573   4.894  0.00  0.00    -0.480 N 
ATOM      2  C   LIG    1       -0.676   3.139   6.099  0.00  0.00    +0.200 C 
ATOM      3  C   LIG    1       -0.658   1.610   6.160  0.00  0.00    +0.050 C 
ATOM      4  C   LIG    1        0.031   1.062   4.907  0.00  0.00    +0.040 C 
ATOM      5  C   LIG    1       -0.709   1.568   3.665  0.00  0.00    +0.000 C 
ATOM      6  C   LIG    1       -0.726   3.098   3.676  0.00  0.00    +0.190 C 
ENDROOT
BRANCH   1  12
ATOM      7  C   LIG    1        0.531   8.111   5.032  0.00  0.00    +0.130 C 
ATOM      8  C   LIG    1       -0.629   7.153   4.939  0.00  0.00    -0.060 A 
ATOM      9  C   LIG    1       -1.931   7.618   4.827  0.00  0.00    +0.220 A 
ATOM     10  N   LIG    1       -2.932   6.763   4.746  0.00  0.00    -0.220 NA
ATOM     11  N   LIG    1       -2.751   5.493   4.768  0.00  0.00    -0.220 NA
ATOM     12  C   LIG    1       -1.545   4.955   4.874  0.00  0.00    +0.240 A 
ATOM     13  C   LIG    1       -0.426   5.782   4.970  0.00  0.00    -0.010 A 
ENDBRANCH   1  12
BRANCH   5  14
ATOM     14  C   LIG    1        0.009   1.074   2.407  0.00  0.00    +0.270 C 
BRANCH  14  15
ATOM     15  N   LIG    1       -0.771   1.450   1.220  0.00  0.00    -0.390 N 
ATOM     16  C   LIG    1       -2.049   0.724   1.223  0.00  0.00    +0.240 C 
ATOM     17  C   LIG    1       -2.859   1.117  -0.015  0.00  0.00    +0.260 C 
ATOM     18  O   LIG    1       -2.095   0.830  -1.189  0.00  0.00    -0.360 OA
ATOM     19  C   LIG    1       -0.830   1.496  -1.228  0.00  0.00    +0.260 C 
ATOM     20  C   LIG    1       -0.016   1.104   0.008  0.00  0.00    +0.240 C 
ATOM     21  H   LIG    1       -0.948   2.443   1.234  0.00  0.00    +0.420 HD
ENDBRANCH  14  15
ENDBRANCH   5  14
TORSDOF 3
