REMARK  Name = ZINCpk00000eaVo0.0
REMARK                            x       y       z     vdW  Elec       q    Type
REMARK                         _______ _______ _______ _____ _____    ______ ____
ROOT
ATOM      1  C   LIG    1       -0.025   1.551  -1.304  0.00  0.00    +0.150 C 
ATOM      2  C   LIG    1        0.468   1.071   0.064  0.00  0.00    +0.160 C 
ATOM      3  N   LIG    1       -0.461   1.535   1.105  0.00  0.00    -0.520 NA
ATOM      4  C   LIG    1       -0.568   3.001   1.093  0.00  0.00    +0.160 C 
ATOM      5  C   LIG    1       -1.050   3.461  -0.285  0.00  0.00    +0.230 C 
ATOM      6  O   LIG    1       -0.152   2.975  -1.286  0.00  0.00    -0.370 OA
ENDROOT
BRANCH   1   7
ATOM      7  C   LIG    1        0.980   1.140  -2.382  0.00  0.00    +0.350 C 
BRANCH   7  14
ATOM      8  C   LIG    1       -0.761  -0.698  -4.171  0.00  0.00    +0.150 C 
ATOM      9  C   LIG    1       -0.307   0.703  -4.490  0.00  0.00    +0.080 A 
ATOM     10  C   LIG    1       -0.590   1.396  -5.618  0.00  0.00    -0.130 A 
ATOM     11  C   LIG    1        0.024   2.649  -5.519  0.00  0.00    +0.070 A 
ATOM     12  N   LIG    1        0.649   2.708  -4.371  0.00  0.00    -0.280 NA
ATOM     13  C   LIG    1       -0.025   3.742  -6.556  0.00  0.00    +0.150 C 
ATOM     14  N   LIG    1        0.451   1.493  -3.702  0.00  0.00    -0.360 N 
ENDBRANCH   7  14
ENDBRANCH   1   7
BRANCH   3  15
ATOM     15  C   LIG    1       -0.053   1.047   2.430  0.00  0.00    +0.220 C 
BRANCH  15  16
ATOM     16  C   LIG    1       -0.191  -0.453   2.477  0.00  0.00    +0.510 C 
ATOM     17  N   LIG    1        0.243  -1.135   3.555  0.00  0.00    -0.620 N 
ATOM     18  C   LIG    1        0.849  -0.420   4.681  0.00  0.00    +0.280 C 
ATOM     19  O   LIG    1       -0.693  -1.045   1.546  0.00  0.00    -0.510 OA
BRANCH  17  20
ATOM     20  C   LIG    1        0.108  -2.594   3.601  0.00  0.00    +0.400 C 
BRANCH  20  21
ATOM     21  C   LIG    1        1.342  -3.231   3.015  0.00  0.00    -0.030 A 
ATOM     22  C   LIG    1        2.449  -3.575   3.697  0.00  0.00    -0.050 A 
ATOM     23  C   LIG    1        3.349  -4.135   2.761  0.00  0.00    -0.070 A 
ATOM     24  C   LIG    1        2.737  -4.100   1.564  0.00  0.00    +0.170 A 
ATOM     25  O   LIG    1        1.520  -3.557   1.725  0.00  0.00    -0.160 OA
ENDBRANCH  20  21
ENDBRANCH  17  20
ENDBRANCH  15  16
ENDBRANCH   3  15
TORSDOF 6
