REMARK  Name = ZINCzw0000000dxx.1
REMARK                            x       y       z     vdW  Elec       q    Type
REMARK                         _______ _______ _______ _____ _____    ______ ____
ROOT
ATOM      1  N   LIG    1        2.467  -2.555  -3.379  0.00  0.00    -0.490 N 
ATOM      2  C   LIG    1        2.365  -1.936  -2.184  0.00  0.00    +0.490 C 
ATOM      3  O   LIG    1        3.333  -1.861  -1.456  0.00  0.00    -0.520 OA
ENDROOT
BRANCH   1   4
ATOM      4  C   LIG    1        3.720  -3.028  -3.824  0.00  0.00    -0.180 A 
ATOM      5  C   LIG    1        4.755  -2.149  -4.072  0.00  0.00    +0.520 A 
ATOM      6  N   LIG    1        5.966  -2.641  -4.498  0.00  0.00    -0.540 N 
ATOM      7  C   LIG    1        6.137  -3.963  -4.684  0.00  0.00    +0.710 A 
ATOM      8  N   LIG    1        5.138  -4.834  -4.453  0.00  0.00    -0.660 N 
ATOM      9  H   LIG    1        5.287  -5.782  -4.594  0.00  0.00    +0.440 HD
ATOM     10  O   LIG    1        7.214  -4.378  -5.066  0.00  0.00    -0.520 OA
ATOM     11  C   LIG    1        3.934  -4.404  -4.028  0.00  0.00    +0.570 A 
ATOM     12  O   LIG    1        3.035  -5.202  -3.822  0.00  0.00    -0.520 OA
BRANCH   5  13
ATOM     13  N   LIG    1        4.578  -0.799  -3.889  0.00  0.00    -0.820 N 
ATOM     14  H   LIG    1        5.325  -0.191  -4.010  0.00  0.00    +0.410 HD
ATOM     15  H   LIG    1        3.708  -0.453  -3.639  0.00  0.00    +0.410 HD
ENDBRANCH   5  13
BRANCH   6  16
ATOM     16  C   LIG    1        7.075  -1.720  -4.758  0.00  0.00    +0.310 C 
BRANCH  16  17
ATOM     17  C   LIG    1        7.028  -1.264  -6.218  0.00  0.00    +0.010 C 
ATOM     18  C   LIG    1        8.186  -0.302  -6.490  0.00  0.00    +0.050 C 
ENDBRANCH  16  17
ENDBRANCH   6  16
ENDBRANCH   1   4
BRANCH   1  19
ATOM     19  C   LIG    1        1.278  -2.735  -4.215  0.00  0.00    +0.300 C 
BRANCH  19  20
ATOM     20  C   LIG    1        1.131  -1.539  -5.157  0.00  0.00    -0.010 C 
BRANCH  20  22
ATOM     21  C   LIG    1       -0.259  -0.530  -6.973  0.00  0.00    +0.010 C 
ATOM     22  C   LIG    1       -0.112  -1.727  -6.030  0.00  0.00    +0.020 C 
ENDBRANCH  20  22
ENDBRANCH  19  20
ENDBRANCH   1  19
BRANCH   2  23
ATOM     23  C   LIG    1        1.050  -1.339  -1.755  0.00  0.00    +0.290 C 
BRANCH  23  24
ATOM     24  N   LIG    1        1.200  -0.729  -0.427  0.00  0.00    -0.380 N 
ATOM     25  C   LIG    1        2.121   0.424  -0.510  0.00  0.00    +0.250 C 
ATOM     26  C   LIG    1        1.546   1.462   0.485  0.00  0.00    +0.080 C 
ATOM     27  C   LIG    1        0.019   1.268   0.293  0.00  0.00    +0.100 C 
ATOM     28  C   LIG    1       -0.111  -0.250   0.049  0.00  0.00    +0.270 C 
ATOM     29  H   LIG    1        1.567  -1.411   0.219  0.00  0.00    +0.430 HD
BRANCH  27  30
ATOM     30  C   LIG    1       -0.730   1.674   1.536  0.00  0.00    -0.190 A 
ATOM     31  C   LIG    1       -0.508   1.229   2.783  0.00  0.00    +0.240 A 
ATOM     32  N   LIG    1       -1.384   1.821   3.653  0.00  0.00    -0.480 N 
ATOM     33  C   LIG    1       -2.211   2.683   2.969  0.00  0.00    +0.100 A 
ATOM     34  C   LIG    1       -3.253   3.519   3.356  0.00  0.00    +0.000 A 
ATOM     35  C   LIG    1       -3.906   4.282   2.412  0.00  0.00    +0.040 A 
ATOM     36  C   LIG    1       -3.534   4.225   1.076  0.00  0.00    +0.000 A 
ATOM     37  C   LIG    1       -2.513   3.411   0.674  0.00  0.00    +0.040 A 
ATOM     38  C   LIG    1       -1.433   1.574   5.096  0.00  0.00    +0.330 C 
ATOM     39  C   LIG    1       -1.834   2.634   1.614  0.00  0.00    -0.100 A 
ENDBRANCH  27  30
ENDBRANCH  23  24
ENDBRANCH   2  23
TORSDOF 10
