REMARK  Name = ZINCzw0000000dxx.0
REMARK                            x       y       z     vdW  Elec       q    Type
REMARK                         _______ _______ _______ _____ _____    ______ ____
ROOT
ATOM      1  N   LIG    1        7.221   6.030  -2.025  0.00  0.00    -0.490 N 
ATOM      2  C   LIG    1        6.117   6.003  -1.250  0.00  0.00    +0.490 C 
ATOM      3  O   LIG    1        6.079   6.654  -0.226  0.00  0.00    -0.520 OA
ENDROOT
BRANCH   1   4
ATOM      4  C   LIG    1        8.293   6.888  -1.697  0.00  0.00    -0.180 A 
ATOM      5  C   LIG    1        8.123   8.258  -1.706  0.00  0.00    +0.520 A 
ATOM      6  N   LIG    1        9.185   9.068  -1.377  0.00  0.00    -0.540 N 
ATOM      7  C   LIG    1       10.377   8.532  -1.060  0.00  0.00    +0.710 A 
ATOM      8  N   LIG    1       10.563   7.200  -1.051  0.00  0.00    -0.660 N 
ATOM      9  H   LIG    1       11.432   6.838  -0.819  0.00  0.00    +0.440 HD
ATOM     10  O   LIG    1       11.305   9.265  -0.776  0.00  0.00    -0.520 OA
ATOM     11  C   LIG    1        9.554   6.362  -1.361  0.00  0.00    +0.570 A 
ATOM     12  O   LIG    1        9.732   5.156  -1.349  0.00  0.00    -0.520 OA
BRANCH   5  13
ATOM     13  N   LIG    1        6.907   8.806  -2.036  0.00  0.00    -0.820 N 
ATOM     14  H   LIG    1        6.778   9.766  -1.987  0.00  0.00    +0.410 HD
ATOM     15  H   LIG    1        6.177   8.232  -2.319  0.00  0.00    +0.420 HD
ENDBRANCH   5  13
BRANCH   6  16
ATOM     16  C   LIG    1        9.018  10.523  -1.377  0.00  0.00    +0.310 C 
BRANCH  16  17
ATOM     17  C   LIG    1        9.349  11.074  -2.766  0.00  0.00    +0.010 C 
ATOM     18  C   LIG    1        9.174  12.594  -2.767  0.00  0.00    +0.050 C 
ENDBRANCH  16  17
ENDBRANCH   6  16
ENDBRANCH   1   4
BRANCH   1  19
ATOM     19  C   LIG    1        7.308   5.169  -3.207  0.00  0.00    +0.290 C 
BRANCH  19  20
ATOM     20  C   LIG    1        6.769   5.921  -4.426  0.00  0.00    -0.010 C 
BRANCH  20  22
ATOM     21  C   LIG    1        6.320   5.772  -6.879  0.00  0.00    +0.010 C 
ATOM     22  C   LIG    1        6.859   5.021  -5.660  0.00  0.00    +0.020 C 
ENDBRANCH  20  22
ENDBRANCH  19  20
ENDBRANCH   1  19
BRANCH   2  23
ATOM     23  C   LIG    1        4.932   5.166  -1.655  0.00  0.00    +0.290 C 
BRANCH  23  24
ATOM     24  N   LIG    1        3.867   5.306  -0.653  0.00  0.00    -0.380 N 
ATOM     25  C   LIG    1        4.275   4.667   0.617  0.00  0.00    +0.260 C 
ATOM     26  C   LIG    1        3.009   4.044   1.235  0.00  0.00    +0.070 C 
ATOM     27  C   LIG    1        1.877   4.342   0.225  0.00  0.00    +0.090 C 
ATOM     28  C   LIG    1        2.647   4.584  -1.097  0.00  0.00    +0.270 C 
ATOM     29  H   LIG    1        3.658   6.281  -0.500  0.00  0.00    +0.430 HD
BRANCH  27  30
ATOM     30  C   LIG    1        0.953   3.159   0.096  0.00  0.00    -0.190 A 
ATOM     31  C   LIG    1        1.307   1.896  -0.188  0.00  0.00    +0.240 A 
ATOM     32  N   LIG    1        0.197   1.097  -0.223  0.00  0.00    -0.480 N 
ATOM     33  C   LIG    1       -0.928   1.846   0.040  0.00  0.00    +0.100 A 
ATOM     34  C   LIG    1       -2.281   1.540   0.133  0.00  0.00    +0.000 A 
ATOM     35  C   LIG    1       -3.189   2.535   0.424  0.00  0.00    +0.040 A 
ATOM     36  C   LIG    1       -2.766   3.841   0.632  0.00  0.00    +0.000 A 
ATOM     37  C   LIG    1       -1.440   4.162   0.550  0.00  0.00    +0.040 A 
ATOM     38  C   LIG    1        0.204  -0.341  -0.503  0.00  0.00    +0.330 C 
ATOM     39  C   LIG    1       -0.503   3.170   0.256  0.00  0.00    -0.100 A 
ENDBRANCH  27  30
ENDBRANCH  23  24
ENDBRANCH   2  23
TORSDOF 10
