REMARK  Name = ZINCrH00000tj1aG.0
REMARK                            x       y       z     vdW  Elec       q    Type
REMARK                         _______ _______ _______ _____ _____    ______ ____
ROOT
ATOM      1  C   LIG    1        4.885   0.112  -0.045  0.00  0.00    +0.270 C 
ATOM      2  C   LIG    1        6.042  -0.752   0.499  0.00  0.00    +0.110 C 
ATOM      3  C   LIG    1        6.998  -0.837  -0.675  0.00  0.00    +0.530 C 
ATOM      4  N   LIG    1        6.494  -0.149  -1.707  0.00  0.00    -0.540 N 
ATOM      5  O   LIG    1        8.054  -1.433  -0.678  0.00  0.00    -0.450 OA
ATOM      6  C   LIG    1        5.309   0.426  -1.464  0.00  0.00    +0.510 C 
ATOM      7  O   LIG    1        4.677   1.093  -2.254  0.00  0.00    -0.440 OA
ENDROOT
BRANCH   4   8
ATOM      8  C   LIG    1        7.151  -0.040  -2.940  0.00  0.00    +0.160 A 
ATOM      9  C   LIG    1        8.033   1.008  -3.168  0.00  0.00    +0.040 A 
ATOM     10  C   LIG    1        8.683   1.110  -4.382  0.00  0.00    +0.060 A 
ATOM     11  C   LIG    1        8.448   0.176  -5.374  0.00  0.00    +0.050 A 
ATOM     12  C   LIG    1        7.566  -0.866  -5.153  0.00  0.00    +0.090 A 
ATOM     13  C   LIG    1        6.917  -0.976  -3.938  0.00  0.00    -0.170 A 
BRANCH  13  14
ATOM     14  C   LIG    1        5.956  -2.112  -3.697  0.00  0.00    +0.500 C 
ATOM     15  F   LIG    1        4.687  -1.597  -3.413  0.00  0.00    -0.170 F 
ATOM     16  F   LIG    1        6.402  -2.877  -2.615  0.00  0.00    -0.170 F 
ATOM     17  F   LIG    1        5.888  -2.916  -4.840  0.00  0.00    -0.170 F 
ENDBRANCH  13  14
ENDBRANCH   4   8
BRANCH   1  18
ATOM     18  N   LIG    1        3.630  -0.643  -0.037  0.00  0.00    -0.720 N 
ATOM     19  H   LIG    1        3.647  -1.612  -0.043  0.00  0.00    +0.410 HD
BRANCH  18  26
ATOM     20  C   LIG    1        1.210  -0.680  -0.014  0.00  0.00    +0.060 A 
ATOM     21  C   LIG    1        0.002  -0.004   0.002  0.00  0.00    -0.030 A 
ATOM     22  C   LIG    1       -0.017   1.379   0.010  0.00  0.00    -0.010 A 
ATOM     23  C   LIG    1        1.169   2.090   0.002  0.00  0.00    -0.070 A 
ATOM     24  C   LIG    1        2.379   1.422  -0.013  0.00  0.00    -0.020 A 
ATOM     25  C   LIG    1        1.141   3.597   0.011  0.00  0.00    +0.100 C 
ATOM     26  C   LIG    1        2.406   0.036  -0.021  0.00  0.00    +0.190 A 
BRANCH  20  28
ATOM     27  C   LIG    1       -0.033  -2.708  -0.014  0.00  0.00    +0.230 C 
ATOM     28  O   LIG    1        1.230  -2.040  -0.022  0.00  0.00    -0.320 OA
ENDBRANCH  20  28
ENDBRANCH  18  26
ENDBRANCH   1  18
TORSDOF 5
