REMARK  Name = ZINCrD0000072l9s.0
REMARK                            x       y       z     vdW  Elec       q    Type
REMARK                         _______ _______ _______ _____ _____    ______ ____
ROOT
ATOM      1  C   LIG    1       -0.729   1.579   1.260  0.00  0.00    +0.200 C 
ATOM      2  C   LIG    1       -0.022   1.088  -0.005  0.00  0.00    +0.080 C 
ENDROOT
BRANCH   1   5
ATOM      3  N   LIG    1       -2.372  -0.267   1.374  0.00  0.00    -0.670 N 
ATOM      4  H   LIG    1       -1.628  -0.890   1.363  0.00  0.00    +0.410 HD
ATOM      5  C   LIG    1       -2.143   1.058   1.279  0.00  0.00    +0.520 C 
ATOM      6  O   LIG    1       -3.075   1.831   1.209  0.00  0.00    -0.500 OA
BRANCH   3  10
ATOM      7  C   LIG    1       -6.273  -1.687   1.718  0.00  0.00    -0.090 A 
ATOM      8  C   LIG    1       -6.010  -0.574   0.942  0.00  0.00    +0.030 A 
ATOM      9  C   LIG    1       -4.718  -0.100   0.826  0.00  0.00    +0.020 A 
ATOM     10  C   LIG    1       -3.682  -0.744   1.490  0.00  0.00    +0.130 A 
ATOM     11  C   LIG    1       -3.948  -1.866   2.264  0.00  0.00    -0.010 A 
ATOM     12  C   LIG    1       -5.244  -2.331   2.380  0.00  0.00    +0.030 A 
BRANCH   7  14
ATOM     13  C   LIG    1       -7.954  -3.223   0.738  0.00  0.00    +0.030 C 
ATOM     14  C   LIG    1       -7.684  -2.200   1.843  0.00  0.00    +0.050 C 
ENDBRANCH   7  14
ENDBRANCH   3  10
ENDBRANCH   1   5
BRANCH   1  15
ATOM     15  O   LIG    1       -0.747   3.030   1.272  0.00  0.00    -0.320 OA
BRANCH  15  16
ATOM     16  C   LIG    1        0.294   3.651   1.860  0.00  0.00    +0.520 C 
ATOM     17  O   LIG    1        1.194   2.997   2.349  0.00  0.00    -0.490 OA
BRANCH  16  18
ATOM     18  C   LIG    1        0.343   5.124   1.909  0.00  0.00    -0.170 A 
ATOM     19  C   LIG    1       -0.691   5.878   1.347  0.00  0.00    +0.190 A 
ATOM     20  C   LIG    1       -0.642   7.254   1.395  0.00  0.00    -0.060 A 
ATOM     21  C   LIG    1        0.433   7.892   2.003  0.00  0.00    +0.230 A 
ATOM     22  C   LIG    1        1.463   7.145   2.563  0.00  0.00    -0.090 A 
ATOM     23  C   LIG    1        1.420   5.770   2.524  0.00  0.00    +0.230 A 
BRANCH  22  24
ATOM     24  N   LIG    1        2.606   7.830   3.209  0.00  0.00    +0.030 N 
ATOM     25  O   LIG    1        2.643   9.047   3.249  0.00  0.00    -0.130 OA
ATOM     26  O   LIG    1        3.509   7.176   3.701  0.00  0.00    -0.170 OA
ENDBRANCH  22  24
BRANCH  21  27
ATOM     27  O   LIG    1        0.477   9.247   2.049  0.00  0.00    -0.270 OA
ATOM     28  C   LIG    1       -0.614   9.953   1.454  0.00  0.00    +0.270 C 
ENDBRANCH  21  27
ENDBRANCH  16  18
ENDBRANCH  15  16
ENDBRANCH   1  15
TORSDOF 8
