REMARK  Name = ZINCrD00000hQ5tD.0
REMARK                            x       y       z     vdW  Elec       q    Type
REMARK                         _______ _______ _______ _____ _____    ______ ____
ROOT
ATOM      1  C   LIG    1        2.482   1.026  -0.012  0.00  0.00    +0.290 C 
ENDROOT
BRANCH   1   2
ATOM      2  C   LIG    1        1.302   1.963   0.033  0.00  0.00    -0.090 A 
ATOM      3  C   LIG    1        1.515   3.307   0.068  0.00  0.00    +0.050 A 
ATOM      4  C   LIG    1        0.417   4.183   0.109  0.00  0.00    -0.050 A 
ATOM      5  C   LIG    1        0.596   5.576   0.146  0.00  0.00    +0.030 A 
ATOM      6  C   LIG    1       -0.491   6.394   0.184  0.00  0.00    +0.000 A 
ATOM      7  C   LIG    1       -1.782   5.872   0.188  0.00  0.00    +0.010 A 
ATOM      8  C   LIG    1       -1.995   4.528   0.153  0.00  0.00    +0.020 A 
ATOM      9  C   LIG    1       -0.897   3.651   0.113  0.00  0.00    -0.050 A 
ATOM     10  C   LIG    1       -1.077   2.258   0.071  0.00  0.00    +0.030 A 
ATOM     11  C   LIG    1        0.010   1.440   0.037  0.00  0.00    +0.020 A 
ENDBRANCH   1   2
BRANCH   1  12
ATOM     12  N   LIG    1        2.219  -0.131   0.848  0.00  0.00    -0.730 N 
ATOM     13  H   LIG    1        1.834  -0.938   0.471  0.00  0.00    +0.400 HD
ATOM     14  C   LIG    1        2.513  -0.075   2.162  0.00  0.00    +0.520 C 
ATOM     15  O   LIG    1        2.909   0.962   2.651  0.00  0.00    -0.510 OA
BRANCH  14  16
ATOM     16  C   LIG    1        2.349  -1.300   3.023  0.00  0.00    +0.070 C 
BRANCH  16  17
ATOM     17  C   LIG    1        2.747  -0.969   4.463  0.00  0.00    +0.180 C 
ATOM     18  C   LIG    1        2.463  -2.175   5.362  0.00  0.00    -0.010 C 
ATOM     19  C   LIG    1        2.920  -1.857   6.789  0.00  0.00    +0.010 C 
ATOM     20  C   LIG    1        4.405  -1.485   6.767  0.00  0.00    -0.020 C 
ATOM     21  C   LIG    1        4.614  -0.306   5.814  0.00  0.00    +0.200 C 
ATOM     22  O   LIG    1        4.141  -0.657   4.512  0.00  0.00    -0.370 OA
ENDBRANCH  16  17
ENDBRANCH  14  16
ENDBRANCH   1  12
BRANCH   1  23
ATOM     23  C   LIG    1        2.704   0.553  -1.450  0.00  0.00    +0.290 C 
BRANCH  23  26
ATOM     24  O   LIG    1        3.474  -0.818  -3.639  0.00  0.00    -0.510 OA
ATOM     25  C   LIG    1        4.099  -1.060  -2.629  0.00  0.00    +0.500 C 
ATOM     26  N   LIG    1        3.793  -0.427  -1.479  0.00  0.00    -0.730 N 
ATOM     27  H   LIG    1        4.293  -0.620  -0.671  0.00  0.00    +0.400 HD
BRANCH  25  28
ATOM     28  C   LIG    1        5.219  -2.067  -2.659  0.00  0.00    +0.170 C 
ATOM     29 CL   LIG    1        5.383  -2.735  -4.326  0.00  0.00    -0.130 Cl
ENDBRANCH  25  28
ENDBRANCH  23  26
ENDBRANCH   1  23
TORSDOF 7
