REMARK  Name = ZINCrH000004phMw.0
REMARK                            x       y       z     vdW  Elec       q    Type
REMARK                         _______ _______ _______ _____ _____    ______ ____
ROOT
ATOM      1  C   LIG    1       -1.922   0.116   1.184  0.00  0.00    +0.210 C 
ENDROOT
BRANCH   1   4
ATOM      2  N   LIG    1       -4.036   0.078   2.468  0.00  0.00    -0.730 N 
ATOM      3  H   LIG    1       -3.686   0.806   3.005  0.00  0.00    +0.400 HD
ATOM      4  C   LIG    1       -3.294  -0.438   1.468  0.00  0.00    +0.520 C 
ATOM      5  O   LIG    1       -3.732  -1.349   0.797  0.00  0.00    -0.510 OA
BRANCH   2   7
ATOM      6  C   LIG    1       -5.249  -1.679   3.661  0.00  0.00    +0.040 C 
ATOM      7  C   LIG    1       -5.370  -0.460   2.744  0.00  0.00    +0.280 C 
BRANCH   7   8
ATOM      8  C   LIG    1       -6.208   0.595   3.420  0.00  0.00    -0.080 A 
ATOM      9  C   LIG    1       -5.646   1.411   4.383  0.00  0.00    +0.020 A 
ATOM     10  C   LIG    1       -6.412   2.383   4.999  0.00  0.00    +0.050 A 
ATOM     11  C   LIG    1       -7.745   2.530   4.659  0.00  0.00    -0.090 A 
ATOM     12  C   LIG    1       -8.308   1.709   3.699  0.00  0.00    +0.050 A 
ATOM     13 BR   LIG    1       -8.796   3.854   5.507  0.00  0.00    -0.050 Br
ATOM     14  C   LIG    1       -7.540   0.742   3.080  0.00  0.00    +0.040 A 
ENDBRANCH   7   8
ENDBRANCH   2   7
ENDBRANCH   1   4
BRANCH   1  15
ATOM     15  N   LIG    1       -1.324  -0.611   0.056  0.00  0.00    -0.510 NA
ATOM     16  C   LIG    1       -2.067  -0.358  -1.186  0.00  0.00    +0.200 C 
BRANCH  15  17
ATOM     17  C   LIG    1        0.095  -0.266  -0.100  0.00  0.00    +0.210 C 
ATOM     18  C   LIG    1        0.218   1.172  -0.608  0.00  0.00    +0.010 C 
BRANCH  17  19
ATOM     19  C   LIG    1        0.735  -1.205  -1.090  0.00  0.00    -0.030 A 
ATOM     20  C   LIG    1        0.344  -2.530  -1.137  0.00  0.00    +0.030 A 
ATOM     21  C   LIG    1        0.928  -3.390  -2.048  0.00  0.00    +0.110 A 
ATOM     22  C   LIG    1        1.908  -2.928  -2.906  0.00  0.00    -0.660 A 
ATOM     23  C   LIG    1        2.302  -1.604  -2.855  0.00  0.00    +0.110 A 
ATOM     24  C   LIG    1        1.716  -0.742  -1.947  0.00  0.00    -0.010 A 
BRANCH  22  25
ATOM     25  S   LIG    1        2.656  -4.026  -4.063  0.00  0.00    +2.500 S 
ATOM     26  O   LIG    1        3.092  -3.179  -5.118  0.00  0.00    -0.940 OA
ATOM     27  O   LIG    1        1.671  -5.025  -4.285  0.00  0.00    -0.940 OA
ATOM     28  C   LIG    1        4.078  -4.719  -3.175  0.00  0.00    -0.260 C 
ENDBRANCH  22  25
ENDBRANCH  17  19
ENDBRANCH  15  17
ENDBRANCH   1  15
TORSDOF 7
