REMARK  Name = ZINCqH0000008sx3.0
REMARK                            x       y       z     vdW  Elec       q    Type
REMARK                         _______ _______ _______ _____ _____    ______ ____
ROOT
ATOM      1  C   LIG    1        4.024   2.790   1.402  0.00  0.00    +0.050 C 
ATOM      2  C   LIG    1        3.634   3.165  -0.029  0.00  0.00    +0.260 C 
ENDROOT
BRANCH   2   3
ATOM      3  C   LIG    1        4.699   4.050  -0.624  0.00  0.00    +0.520 C 
ATOM      4  N   LIG    1        5.964   3.599  -0.739  0.00  0.00    -0.660 N 
ATOM      5  H   LIG    1        6.207   2.737  -0.366  0.00  0.00    +0.420 HD
ATOM      6  O   LIG    1        4.418   5.169  -0.999  0.00  0.00    -0.500 OA
BRANCH   4   7
ATOM      7  C   LIG    1        6.928   4.375  -1.396  0.00  0.00    +0.140 A 
ATOM      8  C   LIG    1        6.539   5.308  -2.346  0.00  0.00    +0.080 A 
ATOM      9  C   LIG    1        7.490   6.073  -2.994  0.00  0.00    +0.050 A 
ATOM     10  C   LIG    1        8.832   5.911  -2.696  0.00  0.00    +0.080 A 
ATOM     11  C   LIG    1        9.226   4.980  -1.747  0.00  0.00    +0.060 A 
ATOM     12  F   LIG    1       10.536   4.823  -1.457  0.00  0.00    -0.110 F 
ATOM     13  F   LIG    1        9.759   6.661  -3.330  0.00  0.00    -0.120 F 
ATOM     14  C   LIG    1        8.275   4.215  -1.092  0.00  0.00    +0.060 A 
ATOM     15  F   LIG    1        8.657   3.312  -0.163  0.00  0.00    -0.120 F 
ENDBRANCH   4   7
ENDBRANCH   2   3
BRANCH   2  16
ATOM     16  N   LIG    1        2.356   3.881  -0.015  0.00  0.00    -0.730 N 
ATOM     17  H   LIG    1        2.344   4.851  -0.004  0.00  0.00    +0.410 HD
BRANCH  16  18
ATOM     18  C   LIG    1        1.154   3.166  -0.019  0.00  0.00    +0.230 A 
ATOM     19  C   LIG    1        1.173   1.778  -0.035  0.00  0.00    -0.060 A 
ATOM     20  C   LIG    1       -0.014   1.067  -0.037  0.00  0.00    +0.070 A 
ATOM     21  C   LIG    1       -1.222   1.744  -0.030  0.00  0.00    +0.010 A 
ATOM     22  O   LIG    1       -2.399   1.050  -0.027  0.00  0.00    -0.320 OA
ATOM     23  C   LIG    1       -3.174   1.131   1.170  0.00  0.00    +0.220 C 
ATOM     24  C   LIG    1       -4.040   2.381   1.170  0.00  0.00    -0.020 C 
ATOM     25  C   LIG    1       -3.213   3.657   1.197  0.00  0.00    +0.220 C 
ATOM     26  O   LIG    1       -2.441   3.786   0.001  0.00  0.00    -0.320 OA
ATOM     27  C   LIG    1       -1.244   3.131  -0.009  0.00  0.00    +0.120 A 
ATOM     28  C   LIG    1       -0.058   3.845  -0.006  0.00  0.00    -0.060 A 
ENDBRANCH  16  18
ENDBRANCH   2  16
TORSDOF 4
