REMARK  Name = ZINCpk00000jN3ND.0
REMARK                            x       y       z     vdW  Elec       q    Type
REMARK                         _______ _______ _______ _____ _____    ______ ____
ROOT
ATOM      1  N   LIG    1       -1.148  -2.189   0.200  0.00  0.00    -0.680 N 
ATOM      2  H   LIG    1       -0.283  -2.624   0.265  0.00  0.00    +0.420 HD
ATOM      3  C   LIG    1       -1.219  -0.849   0.073  0.00  0.00    +0.580 C 
ATOM      4  O   LIG    1       -2.302  -0.303  -0.008  0.00  0.00    -0.510 OA
ENDROOT
BRANCH   1   8
ATOM      5  C   LIG    1       -3.755  -4.819   0.511  0.00  0.00    +0.100 C 
ATOM      6  C   LIG    1       -4.226  -4.178  -0.830  0.00  0.00    +0.020 C 
ATOM      7  C   LIG    1       -3.283  -2.940  -1.030  0.00  0.00    +0.030 C 
ATOM      8  C   LIG    1       -2.375  -2.987   0.240  0.00  0.00    +0.120 C 
ATOM      9  C   LIG    1       -3.366  -2.694   1.411  0.00  0.00    +0.200 C 
ATOM     10  C   LIG    1       -2.213  -4.538   0.446  0.00  0.00    +0.030 C 
ATOM     11  O   LIG    1       -4.175  -3.878   1.537  0.00  0.00    -0.370 OA
BRANCH   5  13
ATOM     12  C   LIG    1       -5.699  -6.382   0.647  0.00  0.00    +0.030 C 
ATOM     13  C   LIG    1       -4.175  -6.273   0.734  0.00  0.00    +0.070 C 
ENDBRANCH   5  13
ENDBRANCH   1   8
BRANCH   3  14
ATOM     14  C   LIG    1        0.025  -0.040   0.032  0.00  0.00    +0.150 A 
ATOM     15  N   LIG    1        1.209  -0.611   0.232  0.00  0.00    -0.500 NA
ATOM     16  C   LIG    1        2.320   0.107   0.197  0.00  0.00    +0.490 A 
ATOM     17  N   LIG    1        2.299   1.412  -0.037  0.00  0.00    -0.530 NA
ATOM     18  C   LIG    1        1.159   2.047  -0.245  0.00  0.00    +0.360 A 
ATOM     19  C   LIG    1       -0.031   1.332  -0.217  0.00  0.00    -0.160 A 
ATOM     20  C   LIG    1       -1.350   2.020  -0.456  0.00  0.00    +0.140 C 
BRANCH  16  21
ATOM     21  N   LIG    1        3.535  -0.520   0.409  0.00  0.00    -0.460 N 
ATOM     22  C   LIG    1        3.546  -1.224   1.700  0.00  0.00    +0.190 C 
ATOM     23  C   LIG    1        4.883  -1.951   1.867  0.00  0.00    +0.240 C 
ATOM     24  O   LIG    1        5.951  -1.006   1.757  0.00  0.00    -0.380 OA
ATOM     25  C   LIG    1        5.971  -0.302   0.512  0.00  0.00    +0.230 C 
ATOM     26  C   LIG    1        4.645   0.441   0.331  0.00  0.00    +0.200 C 
ENDBRANCH  16  21
ENDBRANCH   3  14
TORSDOF 4
