REMARK  Name = ZINCb80000003Smb.0
REMARK                            x       y       z     vdW  Elec       q    Type
REMARK                         _______ _______ _______ _____ _____    ______ ____
ROOT
ATOM      1  C   LIG    1       -2.654   3.699  -0.234  0.00  0.00    +0.320 C 
ENDROOT
BRANCH   1   2
ATOM      2  O   LIG    1       -3.075   3.025   0.954  0.00  0.00    -0.380 OA
BRANCH   2   4
ATOM      3  C   LIG    1       -4.833   2.297   2.444  0.00  0.00    +0.040 C 
ATOM      4  C   LIG    1       -4.493   2.900   1.079  0.00  0.00    +0.160 C 
ENDBRANCH   2   4
ENDBRANCH   1   2
BRANCH   1   5
ATOM      5  O   LIG    1       -2.561   5.102   0.022  0.00  0.00    -0.390 OA
BRANCH   5   6
ATOM      6  C   LIG    1       -3.826   5.759   0.126  0.00  0.00    +0.160 C 
ATOM      7  C   LIG    1       -3.609   7.269   0.231  0.00  0.00    +0.050 C 
ENDBRANCH   5   6
ENDBRANCH   1   5
BRANCH   1   8
ATOM      8  C   LIG    1       -1.285   3.167  -0.663  0.00  0.00    +0.100 C 
BRANCH   8   9
ATOM      9  C   LIG    1       -1.409   1.716  -1.050  0.00  0.00    +0.520 C 
ATOM     10  O   LIG    1       -2.486   1.162  -0.989  0.00  0.00    -0.540 OA
ATOM     11  N   LIG    1       -0.323   1.034  -1.465  0.00  0.00    -0.850 N 
ATOM     12  H   LIG    1        0.538   1.478  -1.518  0.00  0.00    +0.400 HD
ATOM     13  H   LIG    1       -0.402   0.100  -1.714  0.00  0.00    +0.400 HD
ENDBRANCH   8   9
ENDBRANCH   1   8
TORSDOF 6
