REMARK  Name = ZINCkj000005iUcp.0
REMARK                            x       y       z     vdW  Elec       q    Type
REMARK                         _______ _______ _______ _____ _____    ______ ____
ROOT
ATOM      1  C   LIG    1       -1.304   2.116   0.020  0.00  0.00    +0.570 C 
ATOM      2  N   LIG    1       -2.463   1.434  -0.080  0.00  0.00    -0.610 N 
ATOM      3  C   LIG    1       -2.468  -0.035  -0.090  0.00  0.00    +0.270 C 
ATOM      4  C   LIG    1       -3.231  -0.517  -1.327  0.00  0.00    +0.050 C 
ATOM      5  C   LIG    1       -4.624   0.116  -1.341  0.00  0.00    +0.050 C 
ATOM      6  C   LIG    1       -4.494   1.639  -1.417  0.00  0.00    +0.160 C 
ATOM      7  C   LIG    1       -3.745   2.146  -0.175  0.00  0.00    +0.310 C 
ATOM      8  O   LIG    1       -1.319   3.329   0.103  0.00  0.00    -0.490 OA
ENDROOT
BRANCH   1  13
ATOM      9  C   LIG    1        1.408  -0.307   0.952  0.00  0.00    -0.660 A 
ATOM     10  C   LIG    1        2.390   0.021   0.035  0.00  0.00    +0.180 A 
ATOM     11  C   LIG    1        2.177   1.031  -0.886  0.00  0.00    +0.030 A 
ATOM     12  C   LIG    1        0.979   1.718  -0.896  0.00  0.00    +0.050 A 
ATOM     13  C   LIG    1       -0.018   1.390   0.028  0.00  0.00    -0.150 A 
ATOM     14 CL   LIG    1        0.711   2.984  -2.053  0.00  0.00    -0.030 Cl
ATOM     15  C   LIG    1        0.206   0.370   0.954  0.00  0.00    +0.170 A 
BRANCH   9  17
ATOM     16  C   LIG    1        1.102  -3.097   1.293  0.00  0.00    -0.240 C 
ATOM     17  S   LIG    1        1.692  -1.595   2.121  0.00  0.00    +2.500 S 
ATOM     18  O   LIG    1        0.848  -1.266   3.217  0.00  0.00    -0.930 OA
ATOM     19  O   LIG    1        3.105  -1.629   2.269  0.00  0.00    -0.920 OA
ENDBRANCH   9  17
ENDBRANCH   1  13
BRANCH   6  20
ATOM     20  N   LIG    1       -5.831   2.244  -1.462  0.00  0.00    -0.630 N 
ATOM     21  H   LIG    1       -6.325   1.908  -2.275  0.00  0.00    +0.440 HD
ATOM     22  H   LIG    1       -5.744   3.248  -1.513  0.00  0.00    +0.440 HD
ATOM     23  H   LIG    1       -6.343   1.992  -0.630  0.00  0.00    +0.440 HD
ENDBRANCH   6  20
TORSDOF 3
