REMARK  Name = ZINCpk00000xIiq2.0
REMARK                            x       y       z     vdW  Elec       q    Type
REMARK                         _______ _______ _______ _____ _____    ______ ____
ROOT
ATOM      1  O   LIG    1        0.292  -2.851  -0.460  0.00  0.00    -0.420 OA
ATOM      2  C   LIG    1        1.289  -2.192  -0.242  0.00  0.00    +0.440 C 
ATOM      3  C   LIG    1        1.263  -0.721  -0.402  0.00  0.00    -0.120 A 
ATOM      4  C   LIG    1        0.055  -0.043  -0.523  0.00  0.00    +0.080 A 
ATOM      5  C   LIG    1        0.050   1.334  -0.669  0.00  0.00    +0.050 A 
ATOM      6  C   LIG    1        1.238   2.040  -0.697  0.00  0.00    +0.050 A 
ATOM      7  C   LIG    1        2.450   1.380  -0.578  0.00  0.00    +0.090 A 
ATOM      8  C   LIG    1        2.473  -0.002  -0.430  0.00  0.00    -0.120 A 
ATOM      9  C   LIG    1        3.757  -0.725  -0.303  0.00  0.00    +0.420 C 
ATOM     10  C   LIG    1        3.752  -2.131   0.156  0.00  0.00    -0.020 A 
ATOM     11  C   LIG    1        4.931  -2.749   0.558  0.00  0.00    -0.630 A 
ATOM     12  C   LIG    1        4.908  -4.065   0.986  0.00  0.00    +0.130 A 
ATOM     13  C   LIG    1        3.719  -4.771   1.016  0.00  0.00    +0.040 A 
ATOM     14  C   LIG    1        2.536  -4.171   0.619  0.00  0.00    +0.140 A 
ATOM     15  O   LIG    1        4.804  -0.169  -0.571  0.00  0.00    -0.410 OA
ATOM     16  C   LIG    1        2.542  -2.850   0.186  0.00  0.00    -0.130 A 
ENDROOT
BRANCH  11  17
ATOM     17  S   LIG    1        6.452  -1.859   0.522  0.00  0.00    +2.700 S 
ATOM     18  O   LIG    1        6.232  -0.660   1.255  0.00  0.00    -0.930 OA
ATOM     19  O   LIG    1        6.894  -1.874  -0.828  0.00  0.00    -0.930 OA
BRANCH  17  20
ATOM     20  N   LIG    1        7.556  -2.739   1.387  0.00  0.00    -1.010 NA
ATOM     21  C   LIG    1        7.641  -2.620   2.851  0.00  0.00    +0.270 C 
ATOM     22  C   LIG    1        7.606  -4.035   3.450  0.00  0.00    +0.210 C 
ATOM     23  O   LIG    1        8.608  -4.836   2.820  0.00  0.00    -0.370 OA
ATOM     24  C   LIG    1        8.412  -5.021   1.416  0.00  0.00    +0.200 C 
ATOM     25  C   LIG    1        8.485  -3.660   0.713  0.00  0.00    +0.280 C 
ENDBRANCH  17  20
ENDBRANCH  11  17
TORSDOF 2
