REMARK  Name = ZINCpk000000nvIO.1
REMARK                            x       y       z     vdW  Elec       q    Type
REMARK                         _______ _______ _______ _____ _____    ______ ____
ROOT
ATOM      1  C   LIG    1       -0.006   1.215  -0.008  0.00  0.00    +0.270 C 
ATOM      2  N   LIG    1       -0.681   1.776  -1.179  0.00  0.00    -0.710 N 
ATOM      3  H   LIG    1       -1.124   1.179  -1.802  0.00  0.00    +0.420 HD
ATOM      4  C   LIG    1       -0.704   3.088  -1.407  0.00  0.00    +0.570 C 
ATOM      5  C   LIG    1       -0.057   4.091  -0.553  0.00  0.00    -0.150 A 
ATOM      6  C   LIG    1        0.601   5.159  -1.187  0.00  0.00    +0.100 A 
ATOM      7  C   LIG    1        1.235   6.127  -0.446  0.00  0.00    +0.010 A 
ATOM      8  C   LIG    1        1.230   6.056   0.938  0.00  0.00    +0.070 A 
ATOM      9  C   LIG    1        0.588   5.018   1.575  0.00  0.00    -0.010 A 
ATOM     10  C   LIG    1       -0.064   4.025   0.840  0.00  0.00    +0.170 A 
ATOM     11  N   LIG    1       -0.690   3.017   1.552  0.00  0.00    -0.660 N 
ATOM     12  H   LIG    1       -1.176   3.275   2.350  0.00  0.00    +0.420 HD
ATOM     13  O   LIG    1       -1.298   3.482  -2.393  0.00  0.00    -0.520 OA
ATOM     14  C   LIG    1       -0.681   1.725   1.235  0.00  0.00    +0.520 C 
ATOM     15  O   LIG    1       -1.233   0.935   1.972  0.00  0.00    -0.500 OA
ENDROOT
BRANCH   1  16
ATOM     16  C   LIG    1        1.462   1.646  -0.008  0.00  0.00    +0.200 C 
BRANCH  16  20
ATOM     17  C   LIG    1        2.979   0.672  -3.113  0.00  0.00    +0.140 A 
ATOM     18  N   LIG    1        3.246  -0.335  -2.337  0.00  0.00    -0.380 NA
ATOM     19  O   LIG    1        2.792  -0.143  -1.228  0.00  0.00    +0.080 OA
ATOM     20  C   LIG    1        2.164   1.037  -1.194  0.00  0.00    +0.180 A 
ATOM     21  N   LIG    1        2.281   1.565  -2.389  0.00  0.00    -0.460 NA
BRANCH  17  22
ATOM     22  C   LIG    1        3.378   0.814  -4.559  0.00  0.00    +0.300 C 
BRANCH  22  23
ATOM     23  N   LIG    1        3.112  -0.446  -5.266  0.00  0.00    -0.820 NA
ATOM     24  H   LIG    1        2.125  -0.652  -5.279  0.00  0.00    +0.350 HD
ATOM     25  H   LIG    1        3.636  -1.206  -4.859  0.00  0.00    +0.350 HD
ENDBRANCH  22  23
BRANCH  22  26
ATOM     26  C   LIG    1        4.870   1.143  -4.647  0.00  0.00    +0.040 C 
BRANCH  26  28
ATOM     27  C   LIG    1        4.547   2.663  -6.603  0.00  0.00    +0.020 C 
ATOM     28  C   LIG    1        5.251   1.399  -6.106  0.00  0.00    +0.000 C 
ATOM     29  C   LIG    1        6.766   1.584  -6.213  0.00  0.00    +0.010 C 
ENDBRANCH  26  28
ENDBRANCH  22  26
ENDBRANCH  17  22
ENDBRANCH  16  20
ENDBRANCH   1  16
TORSDOF 6
