REMARK  Name = ZINCtV000002CXXA.0
REMARK                            x       y       z     vdW  Elec       q    Type
REMARK                         _______ _______ _______ _____ _____    ______ ____
ROOT
ATOM      1  C   LIG    1        3.753   3.020   0.156  0.00  0.00    +0.160 A 
ATOM      2  N   LIG    1        4.099   1.774   0.299  0.00  0.00    -0.240 NA
ATOM      3  N   LIG    1        3.045   1.048   0.437  0.00  0.00    -0.290 NA
ATOM      4  C   LIG    1        1.981   1.812   0.377  0.00  0.00    +0.140 A 
ATOM      5  O   LIG    1        2.408   3.077   0.202  0.00  0.00    -0.200 OA
ENDROOT
BRANCH   1   7
ATOM      6  C   LIG    1        5.351   4.525   1.310  0.00  0.00    +0.070 C 
ATOM      7  C   LIG    1        4.688   4.187  -0.027  0.00  0.00    +0.300 C 
BRANCH   7   8
ATOM      8  O   LIG    1        5.693   3.847  -0.985  0.00  0.00    -0.290 OA
BRANCH   8   9
ATOM      9  C   LIG    1        6.281   4.874  -1.654  0.00  0.00    +0.090 A 
ATOM     10  C   LIG    1        5.981   6.185  -1.317  0.00  0.00    -0.040 A 
ATOM     11  C   LIG    1        6.584   7.227  -1.996  0.00  0.00    +0.050 A 
ATOM     12  C   LIG    1        7.477   6.965  -3.017  0.00  0.00    +0.020 A 
ATOM     13  C   LIG    1        7.775   5.659  -3.361  0.00  0.00    +0.040 A 
ATOM     14  C   LIG    1        7.179   4.612  -2.682  0.00  0.00    +0.080 A 
ATOM     15  F   LIG    1        7.470   3.336  -3.016  0.00  0.00    -0.130 F 
ENDBRANCH   8   9
ENDBRANCH   7   8
ENDBRANCH   1   7
BRANCH   4  16
ATOM     16  S   LIG    1        0.306   1.283   0.509  0.00  0.00    +0.080 S 
BRANCH  16  17
ATOM     17  C   LIG    1        0.554  -0.497   0.722  0.00  0.00    +0.150 C 
BRANCH  17  18
ATOM     18  C   LIG    1       -0.783  -1.178   0.860  0.00  0.00    -0.090 A 
ATOM     19  C   LIG    1       -1.345  -1.345   2.113  0.00  0.00    +0.040 A 
ATOM     20  C   LIG    1       -2.572  -1.964   2.244  0.00  0.00    +0.020 A 
ATOM     21  C   LIG    1       -3.239  -2.430   1.113  0.00  0.00    -0.030 A 
ATOM     22  C   LIG    1       -2.666  -2.264  -0.146  0.00  0.00    +0.020 A 
ATOM     23  C   LIG    1       -1.441  -1.639  -0.266  0.00  0.00    +0.040 A 
BRANCH  21  24
ATOM     24  C   LIG    1       -4.556  -3.101   1.249  0.00  0.00    -0.050 A 
ATOM     25  C   LIG    1       -5.225  -3.562   0.117  0.00  0.00    +0.020 A 
ATOM     26  C   LIG    1       -6.447  -4.191   0.250  0.00  0.00    +0.010 A 
ATOM     27  C   LIG    1       -7.012  -4.353   1.502  0.00  0.00    +0.000 A 
ATOM     28  C   LIG    1       -6.354  -3.893   2.628  0.00  0.00    +0.010 A 
ATOM     29  C   LIG    1       -5.129  -3.268   2.508  0.00  0.00    +0.020 A 
ENDBRANCH  21  24
ENDBRANCH  17  18
ENDBRANCH  16  17
ENDBRANCH   4  16
TORSDOF 7
