REMARK  Name = ZINCtj00000rjjYT.0
REMARK                            x       y       z     vdW  Elec       q    Type
REMARK                         _______ _______ _______ _____ _____    ______ ____
ROOT
ATOM      1  C   LIG    1        4.399  -1.784   3.522  0.00  0.00    +0.110 C 
ATOM      2  C   LIG    1        5.925  -1.673   3.482  0.00  0.00    +0.060 C 
ATOM      3  C   LIG    1        6.513  -2.225   4.783  0.00  0.00    +0.040 C 
ATOM      4  C   LIG    1        6.139  -3.705   4.919  0.00  0.00    +0.260 C 
ATOM      5  N   LIG    1        4.679  -3.836   4.813  0.00  0.00    -0.600 N 
ATOM      6  C   LIG    1        3.976  -4.473   5.769  0.00  0.00    +0.600 C 
ATOM      7  O   LIG    1        2.760  -4.486   5.723  0.00  0.00    -0.530 OA
ATOM      8  C   LIG    1        4.002  -3.258   3.644  0.00  0.00    +0.260 C 
ENDROOT
BRANCH   6   9
ATOM      9  C   LIG    1        4.677  -5.154   6.868  0.00  0.00    -0.230 A 
ATOM     10  C   LIG    1        5.819  -5.888   6.784  0.00  0.00    +0.290 A 
ATOM     11  O   LIG    1        6.156  -6.346   7.995  0.00  0.00    -0.180 OA
ATOM     12  C   LIG    1        5.267  -5.957   8.932  0.00  0.00    +0.070 A 
ATOM     13  C   LIG    1        5.175  -6.175  10.301  0.00  0.00    +0.010 A 
ATOM     14  C   LIG    1        4.121  -5.634  11.017  0.00  0.00    +0.140 A 
ATOM     15  C   LIG    1        3.150  -4.871  10.377  0.00  0.00    -0.010 A 
ATOM     16  C   LIG    1        3.229  -4.647   9.019  0.00  0.00    +0.090 A 
ATOM     17  C   LIG    1        4.285  -5.187   8.292  0.00  0.00    -0.100 A 
BRANCH  14  18
ATOM     18  O   LIG    1        4.035  -5.850  12.356  0.00  0.00    -0.490 OA
ATOM     19  H   LIG    1        4.485  -5.183  12.892  0.00  0.00    +0.400 HD
ENDBRANCH  14  18
ENDBRANCH   6   9
BRANCH   1  20
ATOM     20  O   LIG    1        3.897  -1.060   4.647  0.00  0.00    -0.530 OA
ATOM     21  H   LIG    1        2.934  -1.089   4.735  0.00  0.00    +0.370 HD
ENDBRANCH   1  20
BRANCH   1  22
ATOM     22  C   LIG    1        3.811  -1.201   2.236  0.00  0.00    +0.280 C 
BRANCH  22  24
ATOM     23  C   LIG    1        1.614  -0.859   1.238  0.00  0.00    +0.510 C 
ATOM     24  N   LIG    1        2.350  -1.311   2.273  0.00  0.00    -0.710 N 
ATOM     25  H   LIG    1        1.913  -1.710   3.042  0.00  0.00    +0.410 HD
ATOM     26  O   LIG    1        2.160  -0.361   0.277  0.00  0.00    -0.520 OA
BRANCH  23  32
ATOM     27  C   LIG    1       -1.358   0.705   0.373  0.00  0.00    +0.330 C 
ATOM     28  N   LIG    1       -0.465  -0.413   0.040  0.00  0.00    -0.380 N 
ATOM     29  C   LIG    1       -1.232  -1.476  -0.644  0.00  0.00    +0.270 C 
ATOM     30  C   LIG    1       -0.609  -2.801  -0.139  0.00  0.00    +0.090 C 
ATOM     31  C   LIG    1       -0.301  -2.458   1.342  0.00  0.00    +0.100 C 
ATOM     32  C   LIG    1        0.112  -0.973   1.277  0.00  0.00    +0.170 C 
ATOM     33  H   LIG    1        0.276  -0.089  -0.563  0.00  0.00    +0.430 HD
ENDBRANCH  23  32
ENDBRANCH  22  24
ENDBRANCH   1  22
TORSDOF 6
