REMARK  Name = ZINCtj00000rjjYT.1
REMARK                            x       y       z     vdW  Elec       q    Type
REMARK                         _______ _______ _______ _____ _____    ______ ____
ROOT
ATOM      1  C   LIG    1        0.327  -0.284  -2.110  0.00  0.00    +0.110 C 
ATOM      2  C   LIG    1        1.651   0.389  -2.482  0.00  0.00    +0.060 C 
ATOM      3  C   LIG    1        1.429   1.893  -2.655  0.00  0.00    +0.040 C 
ATOM      4  C   LIG    1        0.938   2.489  -1.332  0.00  0.00    +0.260 C 
ATOM      5  N   LIG    1       -0.253   1.750  -0.893  0.00  0.00    -0.600 N 
ATOM      6  C   LIG    1       -1.398   2.401  -0.606  0.00  0.00    +0.600 C 
ATOM      7  O   LIG    1       -2.404   1.772  -0.337  0.00  0.00    -0.540 OA
ATOM      8  C   LIG    1       -0.176   0.287  -0.780  0.00  0.00    +0.260 C 
ENDROOT
BRANCH   6   9
ATOM      9  C   LIG    1       -1.430   3.871  -0.616  0.00  0.00    -0.230 A 
ATOM     10  C   LIG    1       -0.375   4.717  -0.467  0.00  0.00    +0.290 A 
ATOM     11  O   LIG    1       -0.796   5.985  -0.537  0.00  0.00    -0.180 OA
ATOM     12  C   LIG    1       -2.131   6.051  -0.722  0.00  0.00    +0.070 A 
ATOM     13  C   LIG    1       -3.020   7.110  -0.850  0.00  0.00    +0.010 A 
ATOM     14  C   LIG    1       -4.368   6.861  -1.036  0.00  0.00    +0.140 A 
ATOM     15  C   LIG    1       -4.844   5.556  -1.097  0.00  0.00    -0.010 A 
ATOM     16  C   LIG    1       -3.973   4.495  -0.971  0.00  0.00    +0.090 A 
ATOM     17  C   LIG    1       -2.616   4.736  -0.784  0.00  0.00    -0.100 A 
BRANCH  14  18
ATOM     18  O   LIG    1       -5.234   7.901  -1.160  0.00  0.00    -0.490 OA
ATOM     19  H   LIG    1       -5.364   8.199  -2.071  0.00  0.00    +0.400 HD
ENDBRANCH  14  18
ENDBRANCH   6   9
BRANCH   1  20
ATOM     20  O   LIG    1       -0.639  -0.034  -3.132  0.00  0.00    -0.530 OA
ATOM     21  H   LIG    1       -1.505  -0.431  -2.961  0.00  0.00    +0.370 HD
ENDBRANCH   1  20
BRANCH   1  22
ATOM     22  C   LIG    1        0.543  -1.792  -1.969  0.00  0.00    +0.270 C 
BRANCH  22  24
ATOM     23  C   LIG    1       -0.774  -3.770  -1.431  0.00  0.00    +0.510 C 
ATOM     24  N   LIG    1       -0.723  -2.436  -1.609  0.00  0.00    -0.710 N 
ATOM     25  H   LIG    1       -1.524  -1.901  -1.500  0.00  0.00    +0.410 HD
ATOM     26  O   LIG    1        0.229  -4.439  -1.569  0.00  0.00    -0.500 OA
BRANCH  23  32
ATOM     27  C   LIG    1       -1.367  -5.523  -3.085  0.00  0.00    +0.330 C 
ATOM     28  N   LIG    1       -2.402  -5.482  -2.043  0.00  0.00    -0.380 N 
ATOM     29  C   LIG    1       -2.453  -6.783  -1.342  0.00  0.00    +0.270 C 
ATOM     30  C   LIG    1       -2.760  -6.425   0.133  0.00  0.00    +0.080 C 
ATOM     31  C   LIG    1       -1.946  -5.114   0.317  0.00  0.00    +0.100 C 
ATOM     32  C   LIG    1       -2.076  -4.432  -1.061  0.00  0.00    +0.150 C 
ATOM     33  H   LIG    1       -3.300  -5.289  -2.462  0.00  0.00    +0.430 HD
ENDBRANCH  23  32
ENDBRANCH  22  24
ENDBRANCH   1  22
TORSDOF 6
