REMARK  Name = ZINCb80000006kP0.0
REMARK                            x       y       z     vdW  Elec       q    Type
REMARK                         _______ _______ _______ _____ _____    ______ ____
ROOT
ATOM      1  C   LIG    1        1.337   1.760  -0.001  0.00  0.00    -0.000 A 
ATOM      2  C   LIG    1       -0.017   1.422   0.010  0.00  0.00    -0.220 A 
ATOM      3  C   LIG    1        0.002  -0.004   0.002  0.00  0.00    +0.250 A 
ATOM      4  N   LIG    1        1.253  -0.353  -0.012  0.00  0.00    -0.340 NA
ATOM      5  O   LIG    1        2.002   0.594  -0.014  0.00  0.00    +0.140 OA
ENDROOT
BRANCH   1   6
ATOM      6  C   LIG    1        1.917   3.119  -0.000  0.00  0.00    +0.540 C 
ATOM      7  O   LIG    1        1.189   4.091   0.011  0.00  0.00    -0.430 OA
BRANCH   6   9
ATOM      8  C   LIG    1        3.755   4.644  -0.010  0.00  0.00    +0.290 C 
ATOM      9  O   LIG    1        3.255   3.280  -0.012  0.00  0.00    -0.350 OA
ENDBRANCH   6   9
ENDBRANCH   1   6
BRANCH   2  10
ATOM     10  C   LIG    1       -1.183   2.319   0.021  0.00  0.00    +0.520 C 
ATOM     11  O   LIG    1       -1.022   3.521   0.026  0.00  0.00    -0.400 OA
ENDBRANCH   2  10
TORSDOF 3
