REMARK  Name = ZINCpe00000gNeRD.0
REMARK                            x       y       z     vdW  Elec       q    Type
REMARK                         _______ _______ _______ _____ _____    ______ ____
ROOT
ATOM      1  O   LIG    1       -1.942   7.726   2.503  0.00  0.00    -0.540 OA
ATOM      2  C   LIG    1       -2.245   7.076   1.521  0.00  0.00    +0.600 C 
ATOM      3  N   LIG    1       -2.043   5.744   1.506  0.00  0.00    -0.700 N 
ATOM      4  H   LIG    1       -2.285   5.225   0.723  0.00  0.00    +0.420 HD
ENDROOT
BRANCH   2   5
ATOM      5  C   LIG    1       -2.834   7.746   0.345  0.00  0.00    +0.000 A 
ATOM      6  C   LIG    1       -3.096   9.082   0.232  0.00  0.00    +0.180 A 
ATOM      7  N   LIG    1       -3.631   9.281  -1.005  0.00  0.00    -0.360 N 
ATOM      8  C   LIG    1       -4.070  10.405  -1.646  0.00  0.00    +0.220 A 
ATOM      9  C   LIG    1       -4.574  10.332  -2.895  0.00  0.00    +0.030 A 
ATOM     10  C   LIG    1       -4.654   9.094  -3.556  0.00  0.00    +0.050 A 
ATOM     11  C   LIG    1       -4.221   7.967  -2.932  0.00  0.00    +0.070 A 
ATOM     12  C   LIG    1       -3.695   8.059  -1.625  0.00  0.00    +0.230 A 
ATOM     13  N   LIG    1       -3.212   7.146  -0.798  0.00  0.00    -0.460 NA
ENDBRANCH   2   5
BRANCH   3  14
ATOM     14  C   LIG    1       -1.458   5.079   2.673  0.00  0.00    +0.280 C 
BRANCH  14  15
ATOM     15  C   LIG    1       -1.447   3.566   2.446  0.00  0.00    +0.180 C 
BRANCH  15  16
ATOM     16  N   LIG    1       -0.755   3.265   1.185  0.00  0.00    -0.530 NA
ATOM     17  C   LIG    1        0.692   3.498   1.310  0.00  0.00    +0.150 C 
ATOM     18  C   LIG    1        1.365   3.230  -0.038  0.00  0.00    +0.220 C 
ATOM     19  O   LIG    1        1.064   1.896  -0.459  0.00  0.00    -0.380 OA
ATOM     20  C   LIG    1       -0.336   1.636  -0.592  0.00  0.00    +0.220 C 
ATOM     21  C   LIG    1       -1.026   1.887   0.751  0.00  0.00    +0.150 C 
ENDBRANCH  15  16
BRANCH  15  22
ATOM     22  C   LIG    1       -0.719   2.881   3.604  0.00  0.00    -0.050 C 
ATOM     23  C   LIG    1       -1.337   3.300   4.956  0.00  0.00    +0.010 C 
ATOM     24  C   LIG    1       -1.853   1.974   5.559  0.00  0.00    +0.190 C 
ATOM     25  O   LIG    1       -1.055   0.948   4.931  0.00  0.00    -0.370 OA
ATOM     26  C   LIG    1       -0.933   1.352   3.550  0.00  0.00    +0.200 C 
ENDBRANCH  15  22
ENDBRANCH  14  15
ENDBRANCH   3  14
TORSDOF 5
