REMARK  Name = ZINCtV00000L6k6R.0
REMARK                            x       y       z     vdW  Elec       q    Type
REMARK                         _______ _______ _______ _____ _____    ______ ____
ROOT
ATOM      1  C   LIG    1        1.173   1.671  -0.000  0.00  0.00    +0.490 A 
ATOM      2  C   LIG    1        1.168   3.050   0.007  0.00  0.00    -0.170 A 
ATOM      3  C   LIG    1        2.383   3.735  -0.000  0.00  0.00    +0.260 A 
ATOM      4  N   LIG    1        3.519   3.071  -0.014  0.00  0.00    -0.500 NA
ATOM      5  C   LIG    1        3.541   1.734  -0.021  0.00  0.00    +0.330 A 
ATOM      6  C   LIG    1        4.589   0.806  -0.036  0.00  0.00    -0.230 A 
ATOM      7  C   LIG    1        4.012  -0.470  -0.038  0.00  0.00    +0.320 A 
ATOM      8  N   LIG    1        2.708  -0.344  -0.025  0.00  0.00    -0.330 NA
ATOM      9  N   LIG    1        2.375   1.014  -0.009  0.00  0.00    -0.350 N 
ENDROOT
BRANCH   6  10
ATOM     10  C   LIG    1        6.037   1.115  -0.047  0.00  0.00    +0.020 A 
ATOM     11  C   LIG    1        6.552   2.021  -0.974  0.00  0.00    +0.040 A 
ATOM     12  C   LIG    1        7.902   2.310  -0.977  0.00  0.00    +0.020 A 
ATOM     13  C   LIG    1        8.745   1.694  -0.068  0.00  0.00    -0.040 A 
ATOM     14  C   LIG    1        8.240   0.789   0.851  0.00  0.00    +0.020 A 
ATOM     15 CL   LIG    1       10.443   2.055  -0.082  0.00  0.00    -0.080 Cl
ATOM     16  C   LIG    1        6.892   0.497   0.866  0.00  0.00    +0.030 A 
ENDBRANCH   6  10
BRANCH   3  17
ATOM     17  C   LIG    1        2.394   5.242   0.007  0.00  0.00    -0.020 C 
ATOM     18  C   LIG    1        1.688   5.751   1.266  0.00  0.00    +0.050 C 
ATOM     19  C   LIG    1        1.666   5.763  -1.233  0.00  0.00    +0.050 C 
ATOM     20  C   LIG    1        3.841   5.741  -0.003  0.00  0.00    +0.050 C 
ENDBRANCH   3  17
BRANCH   1  21
ATOM     21  N   LIG    1       -0.011   0.966   0.007  0.00  0.00    -0.700 N 
ATOM     22  H   LIG    1        0.002  -0.004   0.002  0.00  0.00    +0.420 HD
BRANCH  21  24
ATOM     23  C   LIG    1       -1.680   2.047  -1.416  0.00  0.00    +0.050 C 
ATOM     24  C   LIG    1       -1.290   1.681   0.017  0.00  0.00    +0.290 C 
BRANCH  24  25
ATOM     25  C   LIG    1       -2.354   0.799   0.618  0.00  0.00    -0.100 A 
ATOM     26  C   LIG    1       -2.387  -0.549   0.314  0.00  0.00    +0.010 A 
ATOM     27  C   LIG    1       -3.361  -1.359   0.868  0.00  0.00    +0.020 A 
ATOM     28  C   LIG    1       -4.306  -0.819   1.720  0.00  0.00    +0.020 A 
ATOM     29  C   LIG    1       -4.276   0.530   2.020  0.00  0.00    +0.020 A 
ATOM     30  C   LIG    1       -3.300   1.339   1.469  0.00  0.00    +0.030 A 
ENDBRANCH  24  25
ENDBRANCH  21  24
ENDBRANCH   1  21
TORSDOF 5
