REMARK  Name = ZINCqH0000008r6w.0
REMARK                            x       y       z     vdW  Elec       q    Type
REMARK                         _______ _______ _______ _____ _____    ______ ____
ROOT
ATOM      1  C   LIG    1        6.637  -0.031   2.275  0.00  0.00    -0.060 A 
ATOM      2  C   LIG    1        7.712  -0.604   2.892  0.00  0.00    -0.100 A 
ATOM      3  C   LIG    1        8.340   0.409   3.633  0.00  0.00    -0.040 A 
ATOM      4  C   LIG    1        7.630   1.542   3.438  0.00  0.00    +0.230 A 
ATOM      5  O   LIG    1        6.608   1.274   2.615  0.00  0.00    -0.150 OA
ENDROOT
BRANCH   1   8
ATOM      6  N   LIG    1        4.662  -0.026   0.845  0.00  0.00    -0.710 N 
ATOM      7  H   LIG    1        4.556   0.919   1.035  0.00  0.00    +0.410 HD
ATOM      8  C   LIG    1        5.685  -0.713   1.392  0.00  0.00    +0.600 C 
ATOM      9  O   LIG    1        5.818  -1.899   1.153  0.00  0.00    -0.500 OA
BRANCH   6  11
ATOM     10  C   LIG    1        4.265  -0.731  -1.463  0.00  0.00    +0.040 C 
ATOM     11  C   LIG    1        3.711  -0.707  -0.037  0.00  0.00    +0.280 C 
BRANCH  11  12
ATOM     12  C   LIG    1        2.396   0.029  -0.021  0.00  0.00    -0.100 A 
ATOM     13  C   LIG    1        1.208  -0.679  -0.013  0.00  0.00    +0.020 A 
ATOM     14  C   LIG    1        0.002  -0.004   0.002  0.00  0.00    +0.010 A 
ATOM     15  C   LIG    1       -0.017   1.378   0.010  0.00  0.00    +0.000 A 
ATOM     16  C   LIG    1        1.171   2.086   0.002  0.00  0.00    +0.010 A 
ATOM     17  C   LIG    1        2.377   1.411  -0.015  0.00  0.00    +0.000 A 
ENDBRANCH  11  12
ENDBRANCH   6  11
ENDBRANCH   1   8
BRANCH   2  18
ATOM     18  C   LIG    1        8.141  -2.046   2.795  0.00  0.00    -0.230 C 
BRANCH  18  19
ATOM     19  S   LIG    1        9.291  -2.242   1.407  0.00  0.00    +2.500 S 
ATOM     20  O   LIG    1       10.521  -1.585   1.681  0.00  0.00    -0.930 OA
ATOM     21  O   LIG    1        8.618  -2.050   0.170  0.00  0.00    -0.920 OA
BRANCH  19  22
ATOM     22  C   LIG    1        9.703  -3.956   1.416  0.00  0.00    -0.660 A 
ATOM     23  C   LIG    1       10.788  -4.402   2.146  0.00  0.00    +0.110 A 
ATOM     24  C   LIG    1       11.108  -5.747   2.157  0.00  0.00    -0.010 A 
ATOM     25  C   LIG    1       10.349  -6.644   1.430  0.00  0.00    +0.070 A 
ATOM     26  C   LIG    1        9.266  -6.197   0.695  0.00  0.00    -0.010 A 
ATOM     27  C   LIG    1        8.943  -4.853   0.689  0.00  0.00    +0.130 A 
ENDBRANCH  19  22
ENDBRANCH  18  19
ENDBRANCH   2  18
TORSDOF 6
