REMARK  Name = ZINCrH000004v38X.0
REMARK                            x       y       z     vdW  Elec       q    Type
REMARK                         _______ _______ _______ _____ _____    ______ ____
ROOT
ATOM      1  O   LIG    1        0.022   3.315  -3.780  0.00  0.00    -0.510 OA
ATOM      2  C   LIG    1       -0.236   3.990  -2.805  0.00  0.00    +0.520 C 
ATOM      3  N   LIG    1       -1.067   5.045  -2.917  0.00  0.00    -0.670 N 
ATOM      4  H   LIG    1       -1.182   5.653  -2.170  0.00  0.00    +0.420 HD
ENDROOT
BRANCH   2   5
ATOM      5  C   LIG    1        0.372   3.647  -1.469  0.00  0.00    -0.010 C 
ATOM      6  C   LIG    1        1.268   2.416  -1.616  0.00  0.00    +0.060 C 
ATOM      7  C   LIG    1        1.912   2.087  -0.267  0.00  0.00    +0.030 C 
ATOM      8  C   LIG    1        0.815   1.768   0.753  0.00  0.00    +0.260 C 
ATOM      9  N   LIG    1       -0.134   2.889   0.794  0.00  0.00    -0.610 N 
ATOM     10  C   LIG    1       -0.440   3.487   1.962  0.00  0.00    +0.600 C 
ATOM     11  O   LIG    1       -1.114   4.500   1.969  0.00  0.00    -0.520 OA
ATOM     12  C   LIG    1       -0.743   3.345  -0.463  0.00  0.00    +0.300 C 
BRANCH  10  13
ATOM     13  C   LIG    1        0.039   2.917   3.225  0.00  0.00    -0.280 A 
ATOM     14  C   LIG    1        0.188   3.602   4.398  0.00  0.00    +0.100 A 
ATOM     15  C   LIG    1        0.655   2.821   5.428  0.00  0.00    +0.000 A 
ATOM     16  C   LIG    1        0.881   1.540   5.112  0.00  0.00    -0.070 A 
ATOM     17  S   LIG    1        0.507   1.240   3.475  0.00  0.00    +0.220 S 
ENDBRANCH  10  13
ENDBRANCH   2   5
BRANCH   3  18
ATOM     18  C   LIG    1       -1.763   5.264  -4.111  0.00  0.00    +0.160 A 
ATOM     19  C   LIG    1       -1.240   4.804  -5.313  0.00  0.00    +0.020 A 
ATOM     20  C   LIG    1       -1.926   5.015  -6.490  0.00  0.00    +0.060 A 
ATOM     21  C   LIG    1       -3.141   5.699  -6.475  0.00  0.00    -0.040 A 
ATOM     22  C   LIG    1       -3.661   6.163  -5.268  0.00  0.00    +0.080 A 
ATOM     23  C   LIG    1       -2.973   5.946  -4.093  0.00  0.00    -0.020 A 
BRANCH  21  24
ATOM     24  C   LIG    1       -3.878   5.932  -7.741  0.00  0.00    +0.070 A 
ATOM     25  C   LIG    1       -3.441   5.518  -8.966  0.00  0.00    -0.100 A 
ATOM     26  S   LIG    1       -4.667   6.047 -10.051  0.00  0.00    +0.440 S 
ATOM     27  N   LIG    1       -5.574   6.712  -8.963  0.00  0.00    -0.280 NA
ATOM     28  N   LIG    1       -5.036   6.572  -7.816  0.00  0.00    -0.230 NA
ENDBRANCH  21  24
ENDBRANCH   3  18
TORSDOF 4
