REMARK  Name = ZINCpk00000FczYk.0
REMARK                            x       y       z     vdW  Elec       q    Type
REMARK                         _______ _______ _______ _____ _____    ______ ____
ROOT
ATOM      1  C   LIG    1       -7.367  -1.038   3.962  0.00  0.00    +0.250 C 
ATOM      2  C   LIG    1       -6.872  -0.653   2.558  0.00  0.00    +0.310 C 
ATOM      3  N   LIG    1       -6.127   0.611   2.665  0.00  0.00    -0.600 N 
ATOM      4  C   LIG    1       -6.771   1.735   3.364  0.00  0.00    +0.270 C 
ATOM      5  C   LIG    1       -7.273   1.236   4.724  0.00  0.00    +0.230 C 
ATOM      6  C   LIG    1       -4.895   0.739   2.134  0.00  0.00    +0.610 C 
ATOM      7  O   LIG    1       -4.249   1.749   2.333  0.00  0.00    -0.530 OA
ATOM      8  O   LIG    1       -8.073   0.067   4.529  0.00  0.00    -0.360 OA
ENDROOT
BRANCH   1  12
ATOM      9  C   LIG    1       -9.206  -4.168   4.130  0.00  0.00    +0.190 A 
ATOM     10  N   LIG    1       -9.899  -3.470   3.273  0.00  0.00    -0.290 NA
ATOM     11  N   LIG    1       -9.354  -2.317   3.112  0.00  0.00    -0.260 NA
ATOM     12  C   LIG    1       -8.289  -2.226   3.860  0.00  0.00    +0.180 A 
ATOM     13  N   LIG    1       -8.161  -3.401   4.524  0.00  0.00    -0.570 N 
ATOM     14  H   LIG    1       -7.465  -3.642   5.154  0.00  0.00    +0.430 HD
BRANCH   9  16
ATOM     15  C   LIG    1      -10.934  -5.629   5.145  0.00  0.00    +0.050 C 
ATOM     16  C   LIG    1       -9.508  -5.570   4.593  0.00  0.00    +0.140 C 
ENDBRANCH   9  16
ENDBRANCH   1  12
BRANCH   6  17
ATOM     17  C   LIG    1       -4.332  -0.347   1.312  0.00  0.00    -0.070 A 
ATOM     18  C   LIG    1       -3.066  -0.411   0.815  0.00  0.00    +0.060 A 
ATOM     19  O   LIG    1       -2.976  -1.558   0.122  0.00  0.00    -0.180 OA
ATOM     20  C   LIG    1       -4.156  -2.189   0.199  0.00  0.00    +0.450 A 
ATOM     21  N   LIG    1       -4.979  -1.473   0.906  0.00  0.00    -0.470 NA
BRANCH  18  22
ATOM     22  C   LIG    1       -1.976   0.613   1.001  0.00  0.00    +0.270 C 
ATOM     23  C   LIG    1       -0.933   0.107   2.022  0.00  0.00    +0.020 C 
ATOM     24  C   LIG    1        0.415   0.614   1.462  0.00  0.00    +0.010 C 
ATOM     25  C   LIG    1        0.027   1.365   0.169  0.00  0.00    +0.210 C 
ATOM     26  O   LIG    1       -1.236   0.789  -0.230  0.00  0.00    -0.360 OA
ENDBRANCH  18  22
ENDBRANCH   6  17
TORSDOF 4
