REMARK  Name = ZINCpk00000FczYk.1
REMARK                            x       y       z     vdW  Elec       q    Type
REMARK                         _______ _______ _______ _____ _____    ______ ____
ROOT
ATOM      1  C   LIG    1       -2.055   5.355   1.450  0.00  0.00    +0.270 C 
ATOM      2  C   LIG    1       -2.264   4.423   0.251  0.00  0.00    +0.280 C 
ATOM      3  N   LIG    1       -1.083   3.553   0.129  0.00  0.00    -0.600 N 
ATOM      4  C   LIG    1        0.246   4.186   0.134  0.00  0.00    +0.270 C 
ATOM      5  C   LIG    1        0.331   5.130   1.333  0.00  0.00    +0.220 C 
ATOM      6  C   LIG    1       -1.214   2.216   0.020  0.00  0.00    +0.610 C 
ATOM      7  O   LIG    1       -2.321   1.717  -0.048  0.00  0.00    -0.530 OA
ATOM      8  O   LIG    1       -0.793   6.013   1.321  0.00  0.00    -0.370 OA
ENDROOT
BRANCH   1  11
ATOM      9  C   LIG    1       -4.957   7.414   2.092  0.00  0.00    +0.290 A 
ATOM     10  N   LIG    1       -4.190   6.381   2.329  0.00  0.00    -0.530 NA
ATOM     11  C   LIG    1       -3.158   6.382   1.486  0.00  0.00    +0.230 A 
ATOM     12  N   LIG    1       -3.259   7.416   0.693  0.00  0.00    -0.280 NA
ATOM     13  N   LIG    1       -4.424   8.103   1.069  0.00  0.00    -0.480 N 
ATOM     14  H   LIG    1       -4.775   8.915   0.669  0.00  0.00    +0.440 HD
BRANCH   9  16
ATOM     15  C   LIG    1       -7.427   7.198   2.083  0.00  0.00    +0.050 C 
ATOM     16  C   LIG    1       -6.221   7.766   2.834  0.00  0.00    +0.150 C 
ENDBRANCH   9  16
ENDBRANCH   1  11
BRANCH   6  17
ATOM     17  C   LIG    1       -0.015   1.359  -0.016  0.00  0.00    -0.060 A 
ATOM     18  C   LIG    1        0.006  -0.002  -0.006  0.00  0.00    +0.050 A 
ATOM     19  O   LIG    1        1.295  -0.374  -0.055  0.00  0.00    -0.180 OA
ATOM     20  C   LIG    1        2.049   0.733  -0.094  0.00  0.00    +0.450 A 
ATOM     21  N   LIG    1        1.278   1.778  -0.071  0.00  0.00    -0.470 NA
BRANCH  18  22
ATOM     22  C   LIG    1       -1.190  -0.917   0.049  0.00  0.00    +0.290 C 
ATOM     23  C   LIG    1       -1.403  -1.608  -1.322  0.00  0.00    +0.030 C 
ATOM     24  C   LIG    1       -2.171  -2.887  -0.891  0.00  0.00    +0.020 C 
ATOM     25  C   LIG    1       -1.542  -3.199   0.484  0.00  0.00    +0.200 C 
ATOM     26  O   LIG    1       -0.956  -1.989   0.977  0.00  0.00    -0.370 OA
ENDBRANCH  18  22
ENDBRANCH   6  17
TORSDOF 4
