REMARK  Name = ZINCpk00001AZiTt.0
REMARK                            x       y       z     vdW  Elec       q    Type
REMARK                         _______ _______ _______ _____ _____    ______ ____
ROOT
ATOM      1  C   LIG    1       -1.274   7.803   0.042  0.00  0.00    +0.260 C 
ENDROOT
BRANCH   1   3
ATOM      2  C   LIG    1       -0.074   5.682   0.019  0.00  0.00    +0.560 C 
ATOM      3  N   LIG    1       -1.252   6.338   0.033  0.00  0.00    -0.720 N 
ATOM      4  H   LIG    1       -2.084   5.840   0.035  0.00  0.00    +0.400 HD
ATOM      5  O   LIG    1        0.969   6.306   0.016  0.00  0.00    -0.520 OA
BRANCH   2   9
ATOM      6  C   LIG    1       -0.013   1.431  -0.010  0.00  0.00    +0.010 A 
ATOM      7  C   LIG    1       -1.232   2.112  -0.002  0.00  0.00    +0.080 A 
ATOM      8  C   LIG    1       -1.251   3.488   0.013  0.00  0.00    +0.040 A 
ATOM      9  C   LIG    1       -0.052   4.205   0.009  0.00  0.00    -0.100 A 
ATOM     10  C   LIG    1        1.169   3.525  -0.004  0.00  0.00    +0.070 A 
ATOM     11  C   LIG    1        1.189   2.147  -0.014  0.00  0.00    +0.120 A 
ATOM     12  F   LIG    1        2.369   1.488  -0.027  0.00  0.00    -0.120 F 
BRANCH   6  14
ATOM     13  C   LIG    1        0.023  -1.175  -0.030  0.00  0.00    +0.100 C 
ATOM     14  C   LIG    1        0.007  -0.001  -0.021  0.00  0.00    -0.170 C 
ENDBRANCH   6  14
ENDBRANCH   2   9
ENDBRANCH   1   3
BRANCH   1  15
ATOM     15  C   LIG    1       -2.724   8.291   0.056  0.00  0.00    +0.010 C 
BRANCH  15  16
ATOM     16  C   LIG    1       -2.747   9.821   0.067  0.00  0.00    +0.130 C 
ATOM     17  C   LIG    1       -4.191  10.309   0.206  0.00  0.00    +0.050 C 
ATOM     18  C   LIG    1       -4.218  11.839   0.184  0.00  0.00    +0.030 C 
ATOM     19  C   LIG    1       -3.409  12.377   1.368  0.00  0.00    +0.260 C 
ATOM     20  N   LIG    1       -2.060  11.797   1.322  0.00  0.00    -0.600 N 
ATOM     21  C   LIG    1       -0.970  12.590   1.346  0.00  0.00    +0.550 C 
ATOM     22  O   LIG    1        0.140  12.097   1.401  0.00  0.00    -0.540 OA
ATOM     23  C   LIG    1       -1.921  10.336   1.249  0.00  0.00    +0.260 C 
BRANCH  21  24
ATOM     24  C   LIG    1       -1.124  14.053   1.305  0.00  0.00    -0.090 C 
ATOM     25  C   LIG    1       -0.050  14.832   1.224  0.00  0.00    +0.140 C 
ENDBRANCH  21  24
BRANCH  16  26
ATOM     26  O   LIG    1       -2.192  10.314  -1.154  0.00  0.00    -0.550 OA
ATOM     27  H   LIG    1       -1.277  10.044  -1.308  0.00  0.00    +0.380 HD
ENDBRANCH  16  26
ENDBRANCH  15  16
ENDBRANCH   1  15
TORSDOF 7
