REMARK  Name = ZINCqH0000000fpI.0
REMARK                            x       y       z     vdW  Elec       q    Type
REMARK                         _______ _______ _______ _____ _____    ______ ____
ROOT
ATOM      1  N   LIG    1        0.002  -0.004   0.002  0.00  0.00    -0.600 N 
ATOM      2  C   LIG    1        1.028  -0.667   0.572  0.00  0.00    +0.550 C 
ATOM      3  O   LIG    1        1.044  -1.880   0.566  0.00  0.00    -0.530 OA
ENDROOT
BRANCH   2   4
ATOM      4  C   LIG    1        2.154   0.098   1.218  0.00  0.00    -0.050 C 
ATOM      5  C   LIG    1        3.524   0.045   0.540  0.00  0.00    +0.080 C 
ATOM      6  C   LIG    1        3.288  -0.712   1.848  0.00  0.00    +0.040 C 
BRANCH   6   7
ATOM      7  C   LIG    1        3.927  -0.161   3.097  0.00  0.00    -0.020 A 
ATOM      8  C   LIG    1        4.546   1.077   3.064  0.00  0.00    +0.020 A 
ATOM      9  C   LIG    1        5.129   1.590   4.205  0.00  0.00    +0.060 A 
ATOM     10  C   LIG    1        5.102   0.853   5.390  0.00  0.00    -0.030 A 
ATOM     11  C   LIG    1        4.481  -0.397   5.414  0.00  0.00    +0.070 A 
ATOM     12  C   LIG    1        3.898  -0.896   4.268  0.00  0.00    +0.030 A 
BRANCH  10  13
ATOM     13  C   LIG    1        5.709   1.378   6.577  0.00  0.00    +0.250 C 
ATOM     14  N   LIG    1        6.191   1.794   7.518  0.00  0.00    -0.410 NA
ENDBRANCH  10  13
ENDBRANCH   6   7
ENDBRANCH   2   4
BRANCH   1  15
ATOM     15  C   LIG    1       -0.018   1.461   0.010  0.00  0.00    +0.310 C 
BRANCH  15  17
ATOM     16  C   LIG    1       -0.122   2.782   2.060  0.00  0.00    +0.030 C 
ATOM     17  C   LIG    1       -0.723   1.947   1.250  0.00  0.00    -0.070 C 
ENDBRANCH  15  17
ENDBRANCH   1  15
BRANCH   1  18
ATOM     18  C   LIG    1       -1.093  -0.748  -0.626  0.00  0.00    +0.340 C 
BRANCH  18  19
ATOM     19  C   LIG    1       -0.769  -0.987  -2.078  0.00  0.00    -0.110 A 
ATOM     20  C   LIG    1       -1.163  -0.066  -3.033  0.00  0.00    +0.050 A 
ATOM     21  C   LIG    1       -0.866  -0.275  -4.369  0.00  0.00    +0.020 A 
ATOM     22  C   LIG    1       -0.184  -1.410  -4.758  0.00  0.00    +0.060 A 
ATOM     23  C   LIG    1        0.211  -2.346  -3.800  0.00  0.00    -0.030 A 
ATOM     24  C   LIG    1       -0.087  -2.126  -2.453  0.00  0.00    +0.090 A 
BRANCH  23  25
ATOM     25  C   LIG    1        0.918  -3.526  -4.196  0.00  0.00    +0.250 C 
ATOM     26  N   LIG    1        1.479  -4.462  -4.511  0.00  0.00    -0.410 NA
ENDBRANCH  23  25
ENDBRANCH  18  19
ENDBRANCH   1  18
TORSDOF 8
