REMARK  Name = ZINCtV000002yQO6.0
REMARK                            x       y       z     vdW  Elec       q    Type
REMARK                         _______ _______ _______ _____ _____    ______ ____
ROOT
ATOM      1  C   LIG    1       -4.559   4.405  -0.872  0.00  0.00    -0.070 A 
ATOM      2  C   LIG    1       -4.453   5.759  -0.587  0.00  0.00    +0.020 A 
ATOM      3  C   LIG    1       -5.574   6.587  -0.749  0.00  0.00    +0.200 A 
ATOM      4  N   LIG    1       -6.738   6.124  -1.155  0.00  0.00    -0.450 NA
ATOM      5  C   LIG    1       -6.931   4.836  -1.445  0.00  0.00    +0.130 A 
ATOM      6  C   LIG    1       -8.186   4.370  -1.877  0.00  0.00    +0.050 A 
ATOM      7  C   LIG    1       -8.352   3.050  -2.166  0.00  0.00    +0.030 A 
ATOM      8  C   LIG    1       -7.298   2.148  -2.042  0.00  0.00    +0.020 A 
ATOM      9  C   LIG    1       -6.068   2.564  -1.627  0.00  0.00    +0.060 A 
ATOM     10  C   LIG    1       -5.862   3.913  -1.321  0.00  0.00    -0.070 A 
ENDROOT
BRANCH   3  11
ATOM     11  C   LIG    1       -5.446   8.033  -0.448  0.00  0.00    -0.070 A 
ATOM     12  C   LIG    1       -4.228   8.552  -0.011  0.00  0.00    +0.030 A 
ATOM     13  C   LIG    1       -4.112   9.899   0.262  0.00  0.00    +0.010 A 
ATOM     14  C   LIG    1       -5.206  10.734   0.115  0.00  0.00    -0.070 A 
ATOM     15  C   LIG    1       -6.419  10.224  -0.313  0.00  0.00    +0.000 A 
ATOM     16  C   LIG    1       -5.075  12.204   0.420  0.00  0.00    +0.090 C 
ATOM     17  C   LIG    1       -6.544   8.879  -0.595  0.00  0.00    +0.070 A 
ENDBRANCH   3  11
BRANCH   1  20
ATOM     18  N   LIG    1       -2.251   3.951  -0.191  0.00  0.00    -0.670 N 
ATOM     19  H   LIG    1       -2.201   4.856   0.156  0.00  0.00    +0.410 HD
ATOM     20  C   LIG    1       -3.403   3.495  -0.721  0.00  0.00    +0.560 C 
ATOM     21  O   LIG    1       -3.493   2.336  -1.075  0.00  0.00    -0.500 OA
BRANCH  18  28
ATOM     22  C   LIG    1       -0.443   2.946   1.054  0.00  0.00    -0.090 A 
ATOM     23  C   LIG    1        0.667   2.125   1.099  0.00  0.00    +0.020 A 
ATOM     24  C   LIG    1        1.097   1.478  -0.045  0.00  0.00    +0.020 A 
ATOM     25  C   LIG    1        0.418   1.650  -1.237  0.00  0.00    +0.020 A 
ATOM     26  C   LIG    1       -0.689   2.474  -1.290  0.00  0.00    -0.070 A 
ATOM     27  C   LIG    1       -1.425   2.665  -2.591  0.00  0.00    +0.090 C 
ATOM     28  C   LIG    1       -1.127   3.121  -0.142  0.00  0.00    +0.140 A 
BRANCH  22  30
ATOM     29  C   LIG    1       -2.004   2.822   2.976  0.00  0.00    +0.020 C 
ATOM     30  C   LIG    1       -0.910   3.651   2.301  0.00  0.00    +0.070 C 
ENDBRANCH  22  30
ENDBRANCH  18  28
ENDBRANCH   1  20
TORSDOF 4
