REMARK  Name = ZINCqH0000007W1P.0
REMARK                            x       y       z     vdW  Elec       q    Type
REMARK                         _______ _______ _______ _____ _____    ______ ____
ROOT
ATOM      1  C   LIG    1       -1.036   2.864  -7.226  0.00  0.00    -0.320 A 
ATOM      2  C   LIG    1        0.075   2.314  -6.645  0.00  0.00    +0.340 A 
ATOM      3  N   LIG    1       -0.034   2.131  -5.356  0.00  0.00    -0.480 NA
ATOM      4  C   LIG    1       -1.157   2.485  -4.795  0.00  0.00    +0.120 A 
ATOM      5  S   LIG    1       -2.235   3.118  -5.960  0.00  0.00    +0.190 S 
ENDROOT
BRANCH   4   6
ATOM      6  C   LIG    1       -1.457   2.352  -3.355  0.00  0.00    -0.080 A 
ATOM      7  C   LIG    1       -2.694   2.762  -2.853  0.00  0.00    +0.090 A 
ATOM      8  C   LIG    1       -2.974   2.634  -1.512  0.00  0.00    +0.000 A 
ATOM      9  C   LIG    1       -2.027   2.094  -0.641  0.00  0.00    +0.130 A 
ATOM     10  O   LIG    1       -2.108   1.865   0.698  0.00  0.00    -0.300 OA
ATOM     11  C   LIG    1       -0.782   1.711   1.234  0.00  0.00    +0.240 C 
ATOM     12  C   LIG    1        0.015   1.168   0.024  0.00  0.00    +0.090 C 
ATOM     13  C   LIG    1       -0.794   1.694  -1.146  0.00  0.00    -0.180 A 
ATOM     14  C   LIG    1       -0.505   1.814  -2.484  0.00  0.00    +0.130 A 
ENDBRANCH   4   6
BRANCH   1  17
ATOM     15  N   LIG    1       -2.352   3.723  -9.088  0.00  0.00    -0.650 N 
ATOM     16  H   LIG    1       -3.101   3.829  -8.482  0.00  0.00    +0.410 HD
ATOM     17  C   LIG    1       -1.200   3.180  -8.647  0.00  0.00    +0.600 C 
ATOM     18  O   LIG    1       -0.295   2.953  -9.429  0.00  0.00    -0.510 OA
BRANCH  15  25
ATOM     19  C   LIG    1       -3.718   4.204 -11.036  0.00  0.00    +0.290 A 
ATOM     20  N   LIG    1       -3.828   4.596 -12.293  0.00  0.00    -0.510 NA
ATOM     21  C   LIG    1       -2.771   4.922 -13.013  0.00  0.00    +0.280 A 
ATOM     22  C   LIG    1       -1.501   4.872 -12.475  0.00  0.00    -0.150 A 
ATOM     23  C   LIG    1       -1.337   4.471 -11.156  0.00  0.00    +0.100 A 
ATOM     24  C   LIG    1       -0.304   5.247 -13.310  0.00  0.00    +0.100 C 
ATOM     25  C   LIG    1       -2.467   4.133 -10.422  0.00  0.00    +0.090 A 
BRANCH  19  27
ATOM     26  C   LIG    1       -6.082   3.965 -11.020  0.00  0.00    +0.260 C 
ATOM     27  O   LIG    1       -4.832   3.872 -10.335  0.00  0.00    -0.310 OA
ENDBRANCH  19  27
ENDBRANCH  15  25
ENDBRANCH   1  17
TORSDOF 4
