REMARK  Name = ZINCqH0000034kmI.0
REMARK                            x       y       z     vdW  Elec       q    Type
REMARK                         _______ _______ _______ _____ _____    ______ ____
ROOT
ATOM      1  N   LIG    1        7.082  -1.575   3.369  0.00  0.00    -0.670 N 
ATOM      2  H   LIG    1        7.542  -0.727   3.466  0.00  0.00    +0.410 HD
ATOM      3  C   LIG    1        5.912  -1.636   2.703  0.00  0.00    +0.560 C 
ATOM      4  O   LIG    1        5.294  -2.681   2.653  0.00  0.00    -0.500 OA
ENDROOT
BRANCH   1   9
ATOM      5  C   LIG    1        7.803  -6.765   5.937  0.00  0.00    +0.260 A 
ATOM      6  N   LIG    1        6.833  -5.971   5.595  0.00  0.00    -0.480 NA
ATOM      7  C   LIG    1        7.359  -4.863   5.007  0.00  0.00    +0.040 A 
ATOM      8  C   LIG    1        6.805  -3.704   4.462  0.00  0.00    +0.090 A 
ATOM      9  C   LIG    1        7.634  -2.738   3.921  0.00  0.00    +0.140 A 
ATOM     10  C   LIG    1        9.016  -2.913   3.928  0.00  0.00    +0.040 A 
ATOM     11  C   LIG    1        9.571  -4.053   4.469  0.00  0.00    +0.070 A 
ATOM     12  C   LIG    1        8.753  -5.033   5.011  0.00  0.00    -0.010 A 
ATOM     13  O   LIG    1        8.985  -6.228   5.598  0.00  0.00    -0.210 OA
BRANCH   5  15
ATOM     14  C   LIG    1        7.489  -9.196   5.562  0.00  0.00    +0.060 C 
ATOM     15  C   LIG    1        7.625  -8.097   6.618  0.00  0.00    +0.180 C 
ENDBRANCH   5  15
ENDBRANCH   1   9
BRANCH   3  16
ATOM     16  C   LIG    1        5.379  -0.430   2.034  0.00  0.00    -0.110 A 
ATOM     17  C   LIG    1        6.086   0.772   2.090  0.00  0.00    +0.020 A 
ATOM     18  C   LIG    1        5.587   1.897   1.464  0.00  0.00    +0.040 A 
ATOM     19  C   LIG    1        4.390   1.836   0.776  0.00  0.00    +0.000 A 
ATOM     20  C   LIG    1        3.675   0.645   0.719  0.00  0.00    +0.160 A 
ATOM     21  C   LIG    1        4.168  -0.490   1.344  0.00  0.00    +0.070 A 
BRANCH  20  22
ATOM     22  N   LIG    1        2.460   0.590   0.026  0.00  0.00    -0.560 N 
ATOM     23  C   LIG    1        1.790   1.755  -0.564  0.00  0.00    +0.260 C 
ATOM     24  C   LIG    1        0.334   1.308  -0.819  0.00  0.00    +0.060 C 
ATOM     25  C   LIG    1        0.494  -0.224  -0.957  0.00  0.00    +0.070 C 
ATOM     26  C   LIG    1        1.757  -0.536  -0.184  0.00  0.00    +0.510 C 
ATOM     27  O   LIG    1        2.087  -1.641   0.190  0.00  0.00    -0.500 OA
ENDBRANCH  20  22
ENDBRANCH   3  16
TORSDOF 4
