REMARK  Name = ZINCpe000000Ztpc.0
REMARK                            x       y       z     vdW  Elec       q    Type
REMARK                         _______ _______ _______ _____ _____    ______ ____
ROOT
ATOM      1  O   LIG    1        1.044   2.079   0.103  0.00  0.00    -0.500 OA
ATOM      2  C   LIG    1       -0.018   1.503   0.010  0.00  0.00    +0.530 C 
ATOM      3  N   LIG    1       -1.161   2.209  -0.104  0.00  0.00    -0.610 N 
ATOM      4  C   LIG    1       -2.467   1.533  -0.130  0.00  0.00    +0.280 C 
ATOM      5  C   LIG    1       -3.376   2.201   0.915  0.00  0.00    +0.170 C 
ATOM      6  N   LIG    1       -3.420   3.647   0.664  0.00  0.00    -0.530 NA
ATOM      7  C   LIG    1       -2.095   4.258   0.830  0.00  0.00    +0.170 C 
ATOM      8  C   LIG    1       -1.134   3.676  -0.212  0.00  0.00    +0.300 C 
ENDROOT
BRANCH   2   9
ATOM      9  C   LIG    1       -0.061  -0.004   0.017  0.00  0.00    +0.150 C 
ATOM     10  C   LIG    1       -0.542  -0.502   1.387  0.00  0.00    +0.250 C 
ATOM     11  O   LIG    1       -0.558  -1.933   1.363  0.00  0.00    -0.300 OA
ATOM     12  C   LIG    1        0.539  -2.549   0.843  0.00  0.00    +0.040 A 
ATOM     13  C   LIG    1        0.755  -3.892   1.109  0.00  0.00    +0.030 A 
ATOM     14  C   LIG    1        1.864  -4.532   0.585  0.00  0.00    +0.030 A 
ATOM     15  C   LIG    1        2.759  -3.834  -0.203  0.00  0.00    +0.030 A 
ATOM     16  C   LIG    1        2.550  -2.494  -0.470  0.00  0.00    +0.030 A 
ATOM     17  C   LIG    1        1.441  -1.846   0.052  0.00  0.00    +0.050 A 
ATOM     18  O   LIG    1        1.252  -0.525  -0.214  0.00  0.00    -0.280 OA
ENDBRANCH   2   9
BRANCH   6  19
ATOM     19  C   LIG    1       -4.413   4.301   1.528  0.00  0.00    +0.180 C 
BRANCH  19  20
ATOM     20  C   LIG    1       -5.814   3.815   1.153  0.00  0.00    +0.330 C 
BRANCH  20  21
ATOM     21  N   LIG    1       -6.804   4.467   2.014  0.00  0.00    -0.380 N 
ATOM     22  C   LIG    1       -7.869   5.183   1.598  0.00  0.00    +0.230 A 
ATOM     23  C   LIG    1       -8.533   5.610   2.697  0.00  0.00    -0.120 A 
ATOM     24  C   LIG    1       -7.845   5.147   3.823  0.00  0.00    +0.230 A 
ATOM     25  N   LIG    1       -6.808   4.461   3.415  0.00  0.00    -0.300 NA
ENDBRANCH  20  21
ENDBRANCH  19  20
ENDBRANCH   6  19
TORSDOF 4
