REMARK  Name = ZINCtV00001bB3R1.0
REMARK                            x       y       z     vdW  Elec       q    Type
REMARK                         _______ _______ _______ _____ _____    ______ ____
ROOT
ATOM      1  N   LIG    1       -1.180  -0.622  -0.038  0.00  0.00    -0.620 NA
ATOM      2  C   LIG    1        0.002  -0.008   0.045  0.00  0.00    +0.520 C 
ATOM      3  N   LIG    1       -0.016   1.262   0.310  0.00  0.00    -0.620 NA
ATOM      4  C   LIG    1        0.992   2.116   0.408  0.00  0.00    +0.490 A 
ATOM      5  C   LIG    1        0.796   3.414  -0.110  0.00  0.00    +0.030 A 
ATOM      6  C   LIG    1        1.807   4.328  -0.059  0.00  0.00    +0.170 A 
ATOM      7  C   LIG    1        3.033   3.961   0.506  0.00  0.00    -0.190 A 
ATOM      8  C   LIG    1        3.198   2.712   1.002  0.00  0.00    +0.340 A 
ATOM      9  I   LIG    1        4.609   5.339   0.583  0.00  0.00    +0.010 I 
ATOM     10  N   LIG    1        2.186   1.801   0.972  0.00  0.00    -0.460 N 
ATOM     11  C   LIG    1        2.429   0.489   1.568  0.00  0.00    +0.350 C 
ATOM     12  C   LIG    1        2.374  -0.595   0.530  0.00  0.00    -0.100 A 
ATOM     13  C   LIG    1        3.493  -1.369   0.290  0.00  0.00    +0.030 A 
ATOM     14  C   LIG    1        3.443  -2.396  -0.634  0.00  0.00    +0.040 A 
ATOM     15  C   LIG    1        2.272  -2.653  -1.325  0.00  0.00    +0.030 A 
ATOM     16  C   LIG    1        1.153  -1.881  -1.101  0.00  0.00    +0.040 A 
ATOM     17  C   LIG    1        1.197  -0.836  -0.172  0.00  0.00    -0.110 A 
ENDROOT
BRANCH   1  19
ATOM     18  O   LIG    1       -0.723  -2.660   0.706  0.00  0.00    -0.520 OA
ATOM     19  C   LIG    1       -1.235  -1.955  -0.149  0.00  0.00    +0.530 C 
BRANCH  19  20
ATOM     20  C   LIG    1       -1.911  -2.569  -1.298  0.00  0.00    -0.050 C 
ATOM     21  C   LIG    1       -1.966  -3.910  -1.410  0.00  0.00    +0.090 C 
BRANCH  21  22
ATOM     22  C   LIG    1       -2.644  -4.525  -2.562  0.00  0.00    -0.050 A 
ATOM     23  C   LIG    1       -3.236  -3.721  -3.541  0.00  0.00    +0.070 A 
ATOM     24  C   LIG    1       -3.865  -4.304  -4.620  0.00  0.00    +0.050 A 
ATOM     25  C   LIG    1       -3.920  -5.684  -4.732  0.00  0.00    -0.020 A 
ATOM     26  C   LIG    1       -3.341  -6.488  -3.765  0.00  0.00    +0.050 A 
ATOM     27 CL   LIG    1       -4.720  -6.408  -6.092  0.00  0.00    -0.050 Cl
ATOM     28  C   LIG    1       -2.703  -5.919  -2.681  0.00  0.00    -0.010 A 
ATOM     29 CL   LIG    1       -1.977  -6.928  -1.469  0.00  0.00    -0.040 Cl
ENDBRANCH  21  22
ENDBRANCH  19  20
ENDBRANCH   1  19
TORSDOF 3
