REMARK  Name = ZINCrH000004rQgS.0
REMARK                            x       y       z     vdW  Elec       q    Type
REMARK                         _______ _______ _______ _____ _____    ______ ____
ROOT
ATOM      1  C   LIG    1       -1.025   3.364   0.176  0.00  0.00    -0.030 A 
ATOM      2  N   LIG    1        0.146   3.918   0.410  0.00  0.00    -0.170 NA
ATOM      3  N   LIG    1        1.225   3.228   0.477  0.00  0.00    -0.270 N 
ATOM      4  C   LIG    1        1.259   1.882   0.316  0.00  0.00    +0.280 A 
ATOM      5  C   LIG    1        0.125   1.184   0.069  0.00  0.00    -0.070 A 
ATOM      6  C   LIG    1       -1.093   1.907  -0.020  0.00  0.00    +0.380 A 
ATOM      7  O   LIG    1       -2.152   1.344  -0.245  0.00  0.00    -0.440 OA
ENDROOT
BRANCH   3   8
ATOM      8  C   LIG    1        2.427   3.897   0.730  0.00  0.00    +0.100 A 
ATOM      9  C   LIG    1        2.646   5.160   0.193  0.00  0.00    +0.080 A 
ATOM     10  C   LIG    1        3.832   5.821   0.448  0.00  0.00    +0.020 A 
ATOM     11  C   LIG    1        4.806   5.221   1.228  0.00  0.00    +0.110 A 
ATOM     12  C   LIG    1        4.592   3.960   1.760  0.00  0.00    +0.020 A 
ATOM     13  F   LIG    1        5.967   5.867   1.472  0.00  0.00    -0.130 F 
ATOM     14  C   LIG    1        3.406   3.298   1.512  0.00  0.00    +0.060 A 
ENDBRANCH   3   8
BRANCH   1  16
ATOM     15  N   LIG    1       -2.150   5.532   0.035  0.00  0.00    -0.530 N 
ATOM     16  C   LIG    1       -2.247   4.190   0.105  0.00  0.00    +0.580 C 
ATOM     17  O   LIG    1       -3.340   3.659   0.111  0.00  0.00    -0.470 OA
BRANCH  15  23
ATOM     18  C   LIG    1       -6.966   5.892   0.948  0.00  0.00    +0.090 C 
ATOM     19  C   LIG    1       -5.645   6.524   0.593  0.00  0.00    -0.060 A 
ATOM     20  C   LIG    1       -5.566   7.889   0.384  0.00  0.00    -0.030 A 
ATOM     21  C   LIG    1       -4.355   8.473   0.059  0.00  0.00    +0.020 A 
ATOM     22  C   LIG    1       -3.220   7.695  -0.052  0.00  0.00    -0.040 A 
ATOM     23  C   LIG    1       -3.296   6.323   0.152  0.00  0.00    +0.160 A 
ATOM     24  C   LIG    1       -4.514   5.740   0.478  0.00  0.00    +0.010 A 
ENDBRANCH  15  23
BRANCH  15  25
ATOM     25  C   LIG    1       -0.842   6.162  -0.165  0.00  0.00    +0.240 C 
ATOM     26  C   LIG    1       -0.572   7.147   0.974  0.00  0.00    +0.040 C 
ATOM     27  C   LIG    1       -0.835   6.912  -1.499  0.00  0.00    +0.030 C 
ENDBRANCH  15  25
ENDBRANCH   1  16
TORSDOF 4
