REMARK  Name = ZINCtV00001bB3yF.0
REMARK                            x       y       z     vdW  Elec       q    Type
REMARK                         _______ _______ _______ _____ _____    ______ ____
ROOT
ATOM      1  C   LIG    1       -3.672   1.709   0.780  0.00  0.00    -0.180 A 
ATOM      2  C   LIG    1       -4.721   0.886   0.480  0.00  0.00    +0.300 A 
ATOM      3  N   LIG    1       -4.285  -0.044  -0.397  0.00  0.00    -0.310 N 
ATOM      4  N   LIG    1       -2.934   0.178  -0.679  0.00  0.00    -0.260 NA
ATOM      5  C   LIG    1       -2.521   1.220   0.013  0.00  0.00    +0.180 A 
ENDROOT
BRANCH   3   6
ATOM      6  C   LIG    1       -5.068  -1.068  -0.944  0.00  0.00    +0.150 A 
ATOM      7  C   LIG    1       -6.405  -1.189  -0.587  0.00  0.00    -0.010 A 
ATOM      8  C   LIG    1       -7.175  -2.198  -1.132  0.00  0.00    +0.050 A 
ATOM      9  C   LIG    1       -6.614  -3.093  -2.024  0.00  0.00    +0.010 A 
ATOM     10  C   LIG    1       -5.282  -2.979  -2.377  0.00  0.00    +0.040 A 
ATOM     11  C   LIG    1       -4.508  -1.969  -1.840  0.00  0.00    +0.020 A 
ENDBRANCH   3   6
BRANCH   5  12
ATOM     12  C   LIG    1       -1.160   1.793   0.011  0.00  0.00    -0.130 A 
ATOM     13  C   LIG    1       -0.015   1.080   0.005  0.00  0.00    +0.060 A 
ATOM     14  C   LIG    1        1.137   1.839  -0.002  0.00  0.00    +0.010 A 
ATOM     15  C   LIG    1        0.943   3.161   0.004  0.00  0.00    -0.030 A 
ATOM     16  S   LIG    1       -0.780   3.510   0.019  0.00  0.00    +0.140 S 
ENDBRANCH   5  12
BRANCH   1  18
ATOM     17  N   LIG    1       -4.761   3.127   2.385  0.00  0.00    -0.250 NA
ATOM     18  C   LIG    1       -3.693   2.864   1.696  0.00  0.00    +0.270 C 
BRANCH  17  19
ATOM     19  N   LIG    1       -4.819   4.282   3.175  0.00  0.00    -0.580 N 
ATOM     20  H   LIG    1       -4.036   4.848   3.265  0.00  0.00    +0.390 HD
BRANCH  19  26
ATOM     21  C   LIG    1       -6.093   5.816   4.534  0.00  0.00    -0.250 A 
ATOM     22  C   LIG    1       -7.268   6.150   5.177  0.00  0.00    +0.110 A 
ATOM     23  C   LIG    1       -8.350   5.288   5.136  0.00  0.00    -0.040 A 
ATOM     24  C   LIG    1       -8.261   4.094   4.445  0.00  0.00    +0.080 A 
ATOM     25  C   LIG    1       -7.091   3.757   3.793  0.00  0.00    -0.020 A 
ATOM     26  C   LIG    1       -6.002   4.619   3.833  0.00  0.00    +0.270 A 
BRANCH  21  28
ATOM     27  F   LIG    1       -5.245   7.880   5.343  0.00  0.00    -0.170 F 
ATOM     28  C   LIG    1       -4.913   6.752   4.585  0.00  0.00    +0.510 C 
ATOM     29  F   LIG    1       -4.574   7.147   3.286  0.00  0.00    -0.180 F 
ATOM     30  F   LIG    1       -3.824   6.098   5.173  0.00  0.00    -0.180 F 
ENDBRANCH  21  28
ENDBRANCH  19  26
ENDBRANCH  17  19
ENDBRANCH   1  18
TORSDOF 6
