REMARK  Name = ZINCvU00000006LD.0
REMARK                            x       y       z     vdW  Elec       q    Type
REMARK                         _______ _______ _______ _____ _____    ______ ____
ROOT
ATOM      1  O   LIG    1       -5.755  12.100   5.044  0.00  0.00    -0.320 OA
ENDROOT
BRANCH   1   2
ATOM      2  C   LIG    1       -4.793  11.355   4.478  0.00  0.00    +0.470 C 
ATOM      3  O   LIG    1       -3.860  11.890   3.926  0.00  0.00    -0.500 OA
BRANCH   2   4
ATOM      4  C   LIG    1       -4.875   9.851   4.530  0.00  0.00    +0.110 C 
BRANCH   4   5
ATOM      5  C   LIG    1       -3.663   9.249   3.816  0.00  0.00    +0.050 C 
BRANCH   5   6
ATOM      6  C   LIG    1       -3.746   7.722   3.869  0.00  0.00    +0.020 C 
BRANCH   6   7
ATOM      7  C   LIG    1       -2.534   7.120   3.155  0.00  0.00    +0.020 C 
BRANCH   7   8
ATOM      8  C   LIG    1       -2.617   5.594   3.208  0.00  0.00    +0.160 C 
BRANCH   8   9
ATOM      9  O   LIG    1       -1.485   5.031   2.542  0.00  0.00    -0.380 OA
BRANCH   9  10
ATOM     10  C   LIG    1       -1.466   3.603   2.534  0.00  0.00    +0.150 C 
ATOM     11  C   LIG    1       -0.726   3.096   3.774  0.00  0.00    -0.010 C 
ATOM     12  C   LIG    1       -0.705   1.566   3.765  0.00  0.00    +0.010 C 
ATOM     13  C   LIG    1        0.011   1.072   2.506  0.00  0.00    +0.000 C 
ATOM     14  C   LIG    1       -0.729   1.579   1.267  0.00  0.00    -0.020 C 
ATOM     15  C   LIG    1       -0.013   1.086   0.008  0.00  0.00    +0.030 C 
ATOM     16  C   LIG    1       -0.750   3.109   1.275  0.00  0.00    +0.030 C 
ENDBRANCH   9  10
ENDBRANCH   8   9
ENDBRANCH   7   8
ENDBRANCH   6   7
ENDBRANCH   5   6
ENDBRANCH   4   5
ENDBRANCH   2   4
ENDBRANCH   1   2
BRANCH   1  17
ATOM     17  C   LIG    1       -5.611  13.542   4.955  0.00  0.00    +0.280 C 
BRANCH  17  18
ATOM     18  C   LIG    1       -6.253  14.186   6.157  0.00  0.00    -0.070 A 
ATOM     19  C   LIG    1       -7.397  13.638   6.706  0.00  0.00    +0.060 A 
ATOM     20  C   LIG    1       -7.982  14.226   7.812  0.00  0.00    +0.070 A 
ATOM     21  C   LIG    1       -7.430  15.368   8.361  0.00  0.00    -0.170 A 
ATOM     22  C   LIG    1       -6.289  15.918   7.809  0.00  0.00    +0.080 A 
ATOM     23  C   LIG    1       -5.700  15.327   6.707  0.00  0.00    +0.060 A 
BRANCH  21  24
ATOM     24  C   LIG    1       -8.072  16.012   9.563  0.00  0.00    +0.510 C 
ATOM     25  F   LIG    1       -7.091  16.647  10.332  0.00  0.00    -0.170 F 
ATOM     26  F   LIG    1       -8.707  15.032  10.334  0.00  0.00    -0.170 F 
ATOM     27  F   LIG    1       -9.014  16.955   9.139  0.00  0.00    -0.170 F 
ENDBRANCH  21  24
ENDBRANCH  17  18
BRANCH  17  28
ATOM     28  C   LIG    1       -6.283  14.038   3.701  0.00  0.00    +0.450 C 
ATOM     29  O   LIG    1       -6.905  13.270   3.005  0.00  0.00    -0.480 OA
BRANCH  28  31
ATOM     30  C   LIG    1       -6.863  15.739   2.136  0.00  0.00    +0.290 C 
ATOM     31  O   LIG    1       -6.191  15.332   3.357  0.00  0.00    -0.350 OA
ENDBRANCH  28  31
ENDBRANCH  17  28
ENDBRANCH   1  17
TORSDOF 13
