REMARK  Name = ZINCpk00000e9CPV.1
REMARK                            x       y       z     vdW  Elec       q    Type
REMARK                         _______ _______ _______ _____ _____    ______ ____
ROOT
ATOM      1  N   LIG    1       -8.655   0.342   3.481  0.00  0.00    -0.530 NA
ATOM      2  C   LIG    1       -8.758  -0.985   4.102  0.00  0.00    +0.170 C 
ATOM      3  C   LIG    1       -7.951  -1.996   3.286  0.00  0.00    +0.040 C 
ATOM      4  C   LIG    1       -6.488  -1.550   3.232  0.00  0.00    +0.010 C 
ATOM      5  C   LIG    1       -6.412  -0.147   2.625  0.00  0.00    +0.250 C 
ATOM      6  C   LIG    1       -7.263   0.812   3.461  0.00  0.00    +0.170 C 
ENDROOT
BRANCH   5   7
ATOM      7  N   LIG    1       -5.020   0.311   2.622  0.00  0.00    -0.610 N 
ATOM      8  C   LIG    1       -4.416   0.624   1.459  0.00  0.00    +0.520 C 
ATOM      9  O   LIG    1       -5.025   0.528   0.414  0.00  0.00    -0.530 OA
ATOM     10  C   LIG    1       -4.285   0.427   3.884  0.00  0.00    +0.280 C 
BRANCH   8  11
ATOM     11  C   LIG    1       -2.985   1.095   1.456  0.00  0.00    +0.060 C 
BRANCH  11  12
ATOM     12  C   LIG    1       -2.545   1.382   0.019  0.00  0.00    +0.150 C 
BRANCH  12  13
ATOM     13  C   LIG    1       -1.113   1.852   0.017  0.00  0.00    -0.030 A 
ATOM     14  C   LIG    1       -0.013   1.076   0.008  0.00  0.00    +0.150 A 
ATOM     15  N   LIG    1        1.062   1.879   0.002  0.00  0.00    -0.490 NA
ATOM     16  C   LIG    1        0.669   3.123   0.013  0.00  0.00    +0.390 A 
ATOM     17  N   LIG    1       -0.681   3.151   0.025  0.00  0.00    -0.570 N 
ATOM     18  H   LIG    1       -1.240   3.944   0.035  0.00  0.00    +0.420 HD
ENDBRANCH  12  13
ENDBRANCH  11  12
ENDBRANCH   8  11
ENDBRANCH   5   7
BRANCH   1  19
ATOM     19  C   LIG    1       -9.527   1.310   4.158  0.00  0.00    +0.320 C 
BRANCH  19  22
ATOM     20  C   LIG    1      -12.884   0.054   4.181  0.00  0.00    +0.180 A 
ATOM     21  N   LIG    1      -11.698   0.113   4.737  0.00  0.00    -0.480 NA
ATOM     22  C   LIG    1      -10.968   0.921   3.947  0.00  0.00    +0.180 A 
ATOM     23  N   LIG    1      -11.735   1.309   2.972  0.00  0.00    -0.370 NA
ATOM     24  O   LIG    1      -12.838   0.818   3.085  0.00  0.00    +0.080 OA
BRANCH  20  26
ATOM     25  C   LIG    1      -14.895   0.151   5.628  0.00  0.00    +0.050 C 
ATOM     26  C   LIG    1      -14.072  -0.726   4.682  0.00  0.00    +0.180 C 
ENDBRANCH  20  26
ENDBRANCH  19  22
ENDBRANCH   1  19
TORSDOF 7
