REMARK  Name = ZINCpk00000e9CPV.0
REMARK                            x       y       z     vdW  Elec       q    Type
REMARK                         _______ _______ _______ _____ _____    ______ ____
ROOT
ATOM      1  N   LIG    1        1.902   3.110   3.398  0.00  0.00    -0.530 NA
ATOM      2  C   LIG    1        2.609   1.894   3.818  0.00  0.00    +0.170 C 
ATOM      3  C   LIG    1        1.593   0.794   4.133  0.00  0.00    +0.030 C 
ATOM      4  C   LIG    1        0.751   0.512   2.885  0.00  0.00    +0.000 C 
ATOM      5  C   LIG    1        0.063   1.806   2.440  0.00  0.00    +0.250 C 
ATOM      6  C   LIG    1        1.124   2.877   2.175  0.00  0.00    +0.170 C 
ENDROOT
BRANCH   5   7
ATOM      7  N   LIG    1       -0.698   1.558   1.213  0.00  0.00    -0.610 N 
ATOM      8  C   LIG    1       -2.030   1.765   1.194  0.00  0.00    +0.520 C 
ATOM      9  O   LIG    1       -2.598   2.156   2.192  0.00  0.00    -0.540 OA
ATOM     10  C   LIG    1       -0.013   1.086   0.008  0.00  0.00    +0.280 C 
BRANCH   8  11
ATOM     11  C   LIG    1       -2.814   1.510  -0.068  0.00  0.00    +0.060 C 
BRANCH  11  12
ATOM     12  C   LIG    1       -4.292   1.820   0.178  0.00  0.00    +0.140 C 
BRANCH  12  13
ATOM     13  C   LIG    1       -5.075   1.565  -1.084  0.00  0.00    +0.000 A 
ATOM     14  C   LIG    1       -6.144   0.754  -1.201  0.00  0.00    +0.130 A 
ATOM     15  N   LIG    1       -6.547   0.818  -2.508  0.00  0.00    -0.570 N 
ATOM     16  H   LIG    1       -7.295   0.343  -2.903  0.00  0.00    +0.420 HD
ATOM     17  C   LIG    1       -5.705   1.659  -3.146  0.00  0.00    +0.400 A 
ATOM     18  N   LIG    1       -4.827   2.102  -2.288  0.00  0.00    -0.490 NA
ENDBRANCH  12  13
ENDBRANCH  11  12
ENDBRANCH   8  11
ENDBRANCH   5   7
BRANCH   1  19
ATOM     19  C   LIG    1        2.838   4.229   3.222  0.00  0.00    +0.320 C 
BRANCH  19  22
ATOM     20  C   LIG    1        4.704   4.691   6.247  0.00  0.00    +0.180 A 
ATOM     21  N   LIG    1        4.561   4.090   5.090  0.00  0.00    -0.480 NA
ATOM     22  C   LIG    1        3.436   4.598   4.555  0.00  0.00    +0.180 A 
ATOM     23  N   LIG    1        2.964   5.469   5.395  0.00  0.00    -0.370 NA
ATOM     24  O   LIG    1        3.675   5.534   6.376  0.00  0.00    +0.080 OA
BRANCH  20  26
ATOM     25  C   LIG    1        6.963   5.440   6.941  0.00  0.00    +0.050 C 
ATOM     26  C   LIG    1        5.816   4.473   7.240  0.00  0.00    +0.180 C 
ENDBRANCH  20  26
ENDBRANCH  19  22
ENDBRANCH   1  19
TORSDOF 7
