REMARK  Name = ZINCpk000000mSCZ.0
REMARK                            x       y       z     vdW  Elec       q    Type
REMARK                         _______ _______ _______ _____ _____    ______ ____
ROOT
ATOM      1  C   LIG    1        2.494   1.047  -0.205  0.00  0.00    +0.570 C 
ATOM      2  N   LIG    1        2.505  -0.270   0.078  0.00  0.00    -0.610 N 
ATOM      3  C   LIG    1        1.252  -1.028   0.086  0.00  0.00    +0.300 C 
ATOM      4  O   LIG    1        3.541   1.658  -0.300  0.00  0.00    -0.530 OA
ENDROOT
BRANCH   1  12
ATOM      5  C   LIG    1       -3.646   2.222  -2.093  0.00  0.00    +0.120 C 
ATOM      6  C   LIG    1       -3.491   3.572  -1.442  0.00  0.00    +0.520 C 
ATOM      7  N   LIG    1       -2.330   3.903  -0.844  0.00  0.00    -0.550 N 
ATOM      8  C   LIG    1       -2.063   5.181  -0.180  0.00  0.00    +0.280 C 
ATOM      9  C   LIG    1       -0.619   5.073   0.338  0.00  0.00    +0.110 C 
ATOM     10  C   LIG    1       -0.166   3.695  -0.088  0.00  0.00    -0.140 A 
ATOM     11  C   LIG    1        1.033   3.043   0.097  0.00  0.00    +0.120 A 
ATOM     12  C   LIG    1        1.210   1.749  -0.400  0.00  0.00    -0.160 A 
ATOM     13  C   LIG    1        0.163   1.125  -1.083  0.00  0.00    +0.090 A 
ATOM     14  C   LIG    1       -1.029   1.784  -1.267  0.00  0.00    -0.020 A 
ATOM     15  C   LIG    1       -1.209   3.078  -0.766  0.00  0.00    +0.180 A 
ATOM     16  O   LIG    1       -4.412   4.362  -1.457  0.00  0.00    -0.510 OA
ENDBRANCH   1  12
BRANCH   2  17
ATOM     17  C   LIG    1        3.771  -0.944   0.378  0.00  0.00    +0.430 C 
BRANCH  17  18
ATOM     18  C   LIG    1        4.035  -0.880   1.861  0.00  0.00    +0.170 A 
ATOM     19  N   LIG    1        3.657  -1.754   2.753  0.00  0.00    -0.270 NA
ATOM     20  N   LIG    1        4.053  -1.382   3.918  0.00  0.00    -0.280 NA
ATOM     21  C   LIG    1        4.700  -0.252   3.822  0.00  0.00    +0.160 A 
ATOM     22  C   LIG    1        5.432   0.791   4.639  0.00  0.00    +0.160 C 
ATOM     23  C   LIG    1        5.515   2.019   3.704  0.00  0.00    +0.070 C 
ATOM     24  C   LIG    1        5.427   1.361   2.310  0.00  0.00    +0.310 C 
ATOM     25  N   LIG    1        4.715   0.094   2.515  0.00  0.00    -0.480 N 
ENDBRANCH  17  18
ENDBRANCH   2  17
TORSDOF 3
