REMARK  Name = ZINCpe00000FUiIc.0
REMARK                            x       y       z     vdW  Elec       q    Type
REMARK                         _______ _______ _______ _____ _____    ______ ____
ROOT
ATOM      1  C   LIG    1        5.571   4.011   1.986  0.00  0.00    +0.590 C 
ATOM      2  N   LIG    1        4.232   3.929   1.859  0.00  0.00    -0.720 N 
ATOM      3  H   LIG    1        3.716   4.721   1.641  0.00  0.00    +0.410 HD
ATOM      4  O   LIG    1        6.209   3.038   2.344  0.00  0.00    -0.540 OA
ENDROOT
BRANCH   1   8
ATOM      5  C   LIG    1        6.692   7.382   1.100  0.00  0.00    -0.750 A 
ATOM      6  C   LIG    1        7.860   6.790   1.446  0.00  0.00    +0.330 A 
ATOM      7  N   LIG    1        7.610   5.509   1.813  0.00  0.00    -0.400 N 
ATOM      8  C   LIG    1        6.260   5.272   1.692  0.00  0.00    -0.060 A 
ATOM      9  C   LIG    1        8.611   4.538   2.261  0.00  0.00    +0.350 C 
ATOM     10  C   LIG    1        5.671   6.438   1.249  0.00  0.00    +0.110 A 
BRANCH   5  11
ATOM     11  S   LIG    1        6.494   9.047   0.557  0.00  0.00    +2.720 S 
ATOM     12  O   LIG    1        5.290   9.082  -0.197  0.00  0.00    -0.960 OA
ATOM     13  O   LIG    1        7.751   9.450   0.033  0.00  0.00    -0.960 OA
BRANCH  11  15
ATOM     14  C   LIG    1        7.281  10.115   2.914  0.00  0.00    +0.290 C 
ATOM     15  N   LIG    1        6.229   9.973   1.904  0.00  0.00    -1.120 NA
ATOM     16  H   LIG    1        5.378  10.422   2.024  0.00  0.00    +0.420 HD
ENDBRANCH  11  15
ENDBRANCH   5  11
ENDBRANCH   1   8
BRANCH   2  17
ATOM     17  C   LIG    1        3.555   2.643   2.050  0.00  0.00    +0.280 C 
BRANCH  17  18
ATOM     18  C   LIG    1        2.049   2.825   1.851  0.00  0.00    -0.030 C 
ATOM     19  C   LIG    1        1.497   3.740   2.946  0.00  0.00    +0.040 C 
BRANCH  18  20
ATOM     20  C   LIG    1        1.357   1.463   1.928  0.00  0.00    +0.340 C 
BRANCH  20  21
ATOM     21  N   LIG    1       -0.067   1.621   1.619  0.00  0.00    -0.370 N 
ATOM     22  N   LIG    1       -1.086   1.883   2.544  0.00  0.00    -0.290 NA
ATOM     23  C   LIG    1       -2.219   1.957   1.893  0.00  0.00    +0.070 A 
ATOM     24  C   LIG    1       -1.957   1.749   0.535  0.00  0.00    -0.120 A 
ATOM     25  C   LIG    1       -3.572   2.224   2.502  0.00  0.00    +0.160 C 
ATOM     26  C   LIG    1       -0.627   1.540   0.395  0.00  0.00    +0.080 A 
ATOM     27  C   LIG    1        0.098   1.272  -0.899  0.00  0.00    +0.140 C 
ENDBRANCH  20  21
ENDBRANCH  18  20
ENDBRANCH  17  18
ENDBRANCH   2  17
TORSDOF 7
