REMARK  Name = ZINCpe00000gMbQw.0
REMARK                            x       y       z     vdW  Elec       q    Type
REMARK                         _______ _______ _______ _____ _____    ______ ____
ROOT
ATOM      1  C   LIG    1        1.395   3.520  -0.272  0.00  0.00    +0.520 C 
ATOM      2  N   LIG    1        0.661   4.339   0.507  0.00  0.00    -0.600 N 
ATOM      3  C   LIG    1        0.577   5.739   0.153  0.00  0.00    +0.270 C 
ATOM      4  C   LIG    1        1.710   6.521   0.864  0.00  0.00    +0.040 C 
ATOM      5  C   LIG    1        1.449   6.570   2.315  0.00  0.00    +0.200 C 
ATOM      6  N   LIG    1        1.422   5.261   2.968  0.00  0.00    -0.470 N 
ATOM      7  C   LIG    1        0.093   4.690   2.912  0.00  0.00    +0.200 C 
ATOM      8  C   LIG    1       -0.028   3.765   1.682  0.00  0.00    +0.280 C 
ATOM      9  O   LIG    1        2.036   3.976  -1.196  0.00  0.00    -0.530 OA
ENDROOT
BRANCH   1  14
ATOM     10  C   LIG    1        1.456  -2.199  -0.458  0.00  0.00    +0.280 C 
ATOM     11  N   LIG    1        1.457  -0.734  -0.415  0.00  0.00    -0.610 N 
ATOM     12  C   LIG    1        2.737  -0.056  -0.252  0.00  0.00    +0.260 C 
ATOM     13  C   LIG    1        2.629   1.404  -0.693  0.00  0.00    +0.050 C 
ATOM     14  C   LIG    1        1.420   2.039   0.004  0.00  0.00    -0.020 C 
ATOM     15  C   LIG    1        0.148   1.390  -0.549  0.00  0.00    +0.090 C 
ATOM     16  C   LIG    1        0.287  -0.105  -0.528  0.00  0.00    +0.520 C 
ATOM     17  O   LIG    1       -0.719  -0.776  -0.619  0.00  0.00    -0.550 OA
ENDBRANCH   1  14
BRANCH   6  18
ATOM     18  C   LIG    1        1.869   5.350   4.275  0.00  0.00    +0.360 A 
ATOM     19  N   LIG    1        2.247   6.521   4.763  0.00  0.00    -0.520 NA
ATOM     20  C   LIG    1        2.679   6.649   6.003  0.00  0.00    +0.330 A 
ATOM     21  C   LIG    1        2.757   5.560   6.851  0.00  0.00    -0.050 A 
ATOM     22  C   LIG    1        2.375   4.311   6.394  0.00  0.00    +0.150 A 
ATOM     23  C   LIG    1        1.915   4.197   5.078  0.00  0.00    -0.110 A 
BRANCH  23  24
ATOM     24  C   LIG    1        1.502   2.929   4.557  0.00  0.00    +0.260 C 
ATOM     25  N   LIG    1        1.175   1.923   4.143  0.00  0.00    -0.410 NA
ENDBRANCH  23  24
ENDBRANCH   6  18
TORSDOF 3
