REMARK  Name = ZINCpk00000FbX7f.0
REMARK                            x       y       z     vdW  Elec       q    Type
REMARK                         _______ _______ _______ _____ _____    ______ ____
ROOT
ATOM      1  C   LIG    1       -0.259   2.552   4.743  0.00  0.00    +0.250 C 
ATOM      2  C   LIG    1        0.329   1.285   5.418  0.00  0.00    +0.080 C 
ATOM      3  C   LIG    1        0.175   1.632   6.919  0.00  0.00    +0.280 C 
ATOM      4  N   LIG    1       -1.105   2.358   7.009  0.00  0.00    -0.590 N 
ATOM      5  C   LIG    1       -1.402   2.958   5.697  0.00  0.00    +0.300 C 
ENDROOT
BRANCH   4   6
ATOM      6  C   LIG    1       -1.900   2.463   8.146  0.00  0.00    +0.440 A 
ATOM      7  N   LIG    1       -3.019   3.147   8.094  0.00  0.00    -0.340 NA
ATOM      8  N   LIG    1       -3.833   3.261   9.222  0.00  0.00    -0.270 N 
ATOM      9  C   LIG    1       -5.009   3.876   9.469  0.00  0.00    +0.210 A 
ATOM     10  N   LIG    1       -5.317   3.657  10.724  0.00  0.00    -0.260 NA
ATOM     11  N   LIG    1       -4.407   2.941  11.286  0.00  0.00    -0.240 NA
ATOM     12  C   LIG    1       -5.821   4.671   8.480  0.00  0.00    +0.210 C 
ATOM     13  C   LIG    1       -3.461   2.665  10.402  0.00  0.00    +0.110 A 
ATOM     14  C   LIG    1       -2.258   1.936  10.458  0.00  0.00    +0.190 A 
ATOM     15  C   LIG    1       -1.490   1.840   9.341  0.00  0.00    -0.020 A 
ENDBRANCH   4   6
BRANCH   1  16
ATOM     16  C   LIG    1       -0.798   2.225   3.373  0.00  0.00    +0.030 A 
ATOM     17  N   LIG    1       -0.087   1.812   2.380  0.00  0.00    -0.410 NA
ATOM     18  C   LIG    1       -0.718   1.572   1.248  0.00  0.00    +0.060 A 
ATOM     19  C   LIG    1       -2.034   1.800   1.288  0.00  0.00    -0.080 A 
ATOM     20  C   LIG    1       -0.013   1.086   0.008  0.00  0.00    +0.150 C 
ATOM     21  S   LIG    1       -2.440   2.350   2.913  0.00  0.00    +0.120 S 
ENDBRANCH   1  16
BRANCH   1  24
ATOM     22  C   LIG    1        2.895   4.521   3.833  0.00  0.00    +0.090 C 
ATOM     23  C   LIG    1        1.858   3.432   3.916  0.00  0.00    +0.500 C 
ATOM     24  N   LIG    1        0.749   3.611   4.662  0.00  0.00    -0.720 N 
ATOM     25  H   LIG    1        0.619   4.443   5.145  0.00  0.00    +0.400 HD
ATOM     26  O   LIG    1        2.020   2.392   3.312  0.00  0.00    -0.490 OA
ENDBRANCH   1  24
TORSDOF 3
