REMARK  Name = ZINCrD000000fyNv.0
REMARK                            x       y       z     vdW  Elec       q    Type
REMARK                         _______ _______ _______ _____ _____    ______ ____
ROOT
ATOM      1  N   LIG    1        3.850   1.680   4.638  0.00  0.00    -0.680 N 
ATOM      2  H   LIG    1        2.916   1.942   4.641  0.00  0.00    +0.400 HD
ATOM      3  C   LIG    1        4.490   1.481   3.468  0.00  0.00    +0.700 C 
ATOM      4  N   LIG    1        3.867   1.756   2.305  0.00  0.00    -0.740 N 
ATOM      5  H   LIG    1        2.959   2.096   2.309  0.00  0.00    +0.400 HD
ATOM      6  O   LIG    1        5.628   1.054   3.462  0.00  0.00    -0.570 OA
ENDROOT
BRANCH   1  12
ATOM      7  C   LIG    1        3.832   1.207   7.006  0.00  0.00    -0.150 A 
ATOM      8  C   LIG    1        4.510   1.034   8.197  0.00  0.00    +0.060 A 
ATOM      9  C   LIG    1        5.885   1.172   8.238  0.00  0.00    -0.020 A 
ATOM     10  C   LIG    1        6.586   1.478   7.086  0.00  0.00    +0.040 A 
ATOM     11  C   LIG    1        5.915   1.647   5.891  0.00  0.00    +0.020 A 
ATOM     12  C   LIG    1        4.534   1.509   5.847  0.00  0.00    +0.180 A 
BRANCH   7  13
ATOM     13  C   LIG    1        2.332   1.062   6.964  0.00  0.00    +0.340 C 
BRANCH  13  16
ATOM     14  C   LIG    1        1.592  -2.687   6.769  0.00  0.00    +0.100 C 
ATOM     15  C   LIG    1        1.834  -1.299   7.303  0.00  0.00    +0.520 C 
ATOM     16  N   LIG    1        1.984  -0.265   6.452  0.00  0.00    -0.610 N 
ATOM     17  C   LIG    1        1.799  -0.469   5.013  0.00  0.00    +0.290 C 
ATOM     18  O   LIG    1        1.894  -1.112   8.500  0.00  0.00    -0.540 OA
ENDBRANCH  13  16
ENDBRANCH   7  13
ENDBRANCH   1  12
BRANCH   4  19
ATOM     19  C   LIG    1        4.562   1.539   1.033  0.00  0.00    +0.280 C 
BRANCH  19  20
ATOM     20  C   LIG    1        3.640   1.926  -0.125  0.00  0.00    +0.230 C 
ATOM     21  C   LIG    1        4.318   1.584  -1.453  0.00  0.00    +0.040 C 
BRANCH  20  22
ATOM     22  N   LIG    1        2.381   1.186  -0.014  0.00  0.00    -0.630 N 
ATOM     23  C   LIG    1        2.396  -0.277   0.068  0.00  0.00    +0.280 C 
BRANCH  22  24
ATOM     24  C   LIG    1        1.166   1.875   0.013  0.00  0.00    +0.210 A 
ATOM     25  C   LIG    1        1.153   3.263   0.046  0.00  0.00    -0.080 A 
ATOM     26  C   LIG    1       -0.050   3.941   0.079  0.00  0.00    +0.050 A 
ATOM     27  C   LIG    1       -1.241   3.239   0.069  0.00  0.00    -0.060 A 
ATOM     28  C   LIG    1       -1.232   1.857   0.036  0.00  0.00    +0.050 A 
ATOM     29  C   LIG    1       -0.033   1.173   0.009  0.00  0.00    -0.080 A 
ENDBRANCH  22  24
ENDBRANCH  20  22
ENDBRANCH  19  20
ENDBRANCH   4  19
TORSDOF 7
