REMARK  Name = ZINCpe000000UufD.0
REMARK                            x       y       z     vdW  Elec       q    Type
REMARK                         _______ _______ _______ _____ _____    ______ ____
ROOT
ATOM      1  S   LIG    1       -0.017   1.417   0.010  0.00  0.00    +2.690 S 
ATOM      2  O   LIG    1        1.162   2.210   0.003  0.00  0.00    -0.940 OA
ATOM      3  O   LIG    1        0.002  -0.004   0.002  0.00  0.00    -0.940 OA
ENDROOT
BRANCH   1   7
ATOM      4  N   LIG    1       -3.055   3.009  -2.558  0.00  0.00    -1.000 NA
ATOM      5  C   LIG    1       -2.070   3.921  -1.960  0.00  0.00    +0.290 C 
ATOM      6  C   LIG    1       -0.712   3.209  -1.909  0.00  0.00    +0.300 C 
ATOM      7  N   LIG    1       -0.900   1.880  -1.312  0.00  0.00    -0.990 NA
ATOM      8  C   LIG    1       -1.882   0.966  -1.914  0.00  0.00    +0.300 C 
ATOM      9  C   LIG    1       -3.244   1.679  -1.961  0.00  0.00    +0.290 C 
BRANCH   4  10
ATOM     10  S   LIG    1       -3.938   3.472  -3.880  0.00  0.00    +2.780 S 
ATOM     11  O   LIG    1       -3.958   4.893  -3.872  0.00  0.00    -0.970 OA
ATOM     12  O   LIG    1       -5.117   2.678  -3.873  0.00  0.00    -0.970 OA
BRANCH  10  14
ATOM     13  C   LIG    1       -3.289   1.701  -5.819  0.00  0.00    +0.300 C 
ATOM     14  N   LIG    1       -3.081   3.024  -5.224  0.00  0.00    -1.010 NA
ATOM     15  C   LIG    1       -2.113   3.950  -5.817  0.00  0.00    +0.300 C 
ENDBRANCH  10  14
ENDBRANCH   4  10
ENDBRANCH   1   7
BRANCH   1  16
ATOM     16  C   LIG    1       -0.930   1.894   1.440  0.00  0.00    -0.650 A 
ATOM     17  C   LIG    1       -0.728   3.140   2.004  0.00  0.00    +0.130 A 
ATOM     18  C   LIG    1       -1.447   3.516   3.123  0.00  0.00    +0.060 A 
ATOM     19  C   LIG    1       -2.361   2.643   3.683  0.00  0.00    -0.130 A 
ATOM     20  C   LIG    1       -2.559   1.395   3.122  0.00  0.00    +0.060 A 
ATOM     21  C   LIG    1       -1.843   1.021   2.000  0.00  0.00    +0.130 A 
BRANCH  19  22
ATOM     22  C   LIG    1       -3.142   3.051   4.906  0.00  0.00    +0.500 C 
ATOM     23  F   LIG    1       -4.387   2.414   4.899  0.00  0.00    -0.170 F 
ATOM     24  F   LIG    1       -3.327   4.438   4.899  0.00  0.00    -0.170 F 
ATOM     25  F   LIG    1       -2.435   2.681   6.055  0.00  0.00    -0.170 F 
ENDBRANCH  19  22
ENDBRANCH   1  16
TORSDOF 5
