REMARK  Name = ZINCqH0000050v9r.0
REMARK                            x       y       z     vdW  Elec       q    Type
REMARK                         _______ _______ _______ _____ _____    ______ ____
ROOT
ATOM      1  C   LIG    1        3.444   4.622   0.112  0.00  0.00    +0.070 C 
ATOM      2  C   LIG    1        4.245   4.988   1.364  0.00  0.00    +0.030 C 
ATOM      3  C   LIG    1        5.681   4.479   1.212  0.00  0.00    +0.270 C 
ATOM      4  N   LIG    1        6.242   5.008  -0.038  0.00  0.00    -0.600 N 
ATOM      5  C   LIG    1        5.504   4.792  -1.290  0.00  0.00    +0.290 C 
ATOM      6  C   LIG    1        7.410   5.681  -0.037  0.00  0.00    +0.600 C 
ATOM      7  O   LIG    1        7.947   5.964   1.016  0.00  0.00    -0.530 OA
ATOM      8  C   LIG    1        4.069   5.297  -1.111  0.00  0.00    +0.020 C 
ENDROOT
BRANCH   1  18
ATOM      9  C   LIG    1       -3.160   2.702   0.329  0.00  0.00    +0.090 C 
ATOM     10  C   LIG    1       -1.759   3.257   0.305  0.00  0.00    -0.070 A 
ATOM     11  C   LIG    1       -0.683   2.399   0.127  0.00  0.00    -0.030 A 
ATOM     12  C   LIG    1        0.594   2.884   0.097  0.00  0.00    +0.050 A 
ATOM     13  C   LIG    1        0.819   4.252   0.252  0.00  0.00    -0.110 A 
ATOM     14  C   LIG    1       -0.268   5.126   0.439  0.00  0.00    +0.100 A 
ATOM     15  N   LIG    1        0.249   6.396   0.561  0.00  0.00    -0.600 N 
ATOM     16  H   LIG    1       -0.276   7.201   0.699  0.00  0.00    +0.420 HD
ATOM     17  C   LIG    1        1.613   6.356   0.459  0.00  0.00    +0.220 A 
ATOM     18  C   LIG    1        2.020   5.091   0.272  0.00  0.00    -0.160 A 
ATOM     19  C   LIG    1       -1.559   4.611   0.466  0.00  0.00    -0.010 A 
ENDBRANCH   1  18
BRANCH   6  20
ATOM     20  C   LIG    1        8.037   6.075  -1.315  0.00  0.00    +0.010 A 
ATOM     21  N   LIG    1        7.637   5.733  -2.524  0.00  0.00    -0.250 NA
ATOM     22  N   LIG    1        8.410   6.254  -3.408  0.00  0.00    -0.370 N 
ATOM     23  H   LIG    1        8.311   6.144  -4.366  0.00  0.00    +0.440 HD
ATOM     24  C   LIG    1        9.386   6.974  -2.809  0.00  0.00    -0.020 A 
ATOM     25  C   LIG    1       10.601   7.828  -3.095  0.00  0.00    +0.130 C 
ATOM     26  C   LIG    1       11.367   7.897  -1.756  0.00  0.00    +0.050 C 
ATOM     27  C   LIG    1       10.237   7.665  -0.728  0.00  0.00    +0.110 C 
ATOM     28  C   LIG    1        9.184   6.885  -1.476  0.00  0.00    -0.160 A 
ENDBRANCH   6  20
TORSDOF 2
