REMARK  Name = ZINCpe000000Talo.0
REMARK                            x       y       z     vdW  Elec       q    Type
REMARK                         _______ _______ _______ _____ _____    ______ ____
ROOT
ATOM      1  C   LIG    1        2.814   3.468   1.992  0.00  0.00    +0.220 C 
ENDROOT
BRANCH   1   2
ATOM      2  C   LIG    1        2.844   1.961   1.996  0.00  0.00    +0.520 C 
ATOM      3  N   LIG    1        2.183   1.271   1.046  0.00  0.00    -0.610 N 
ATOM      4  C   LIG    1        1.429   1.975  -0.001  0.00  0.00    +0.270 C 
ATOM      5  C   LIG    1       -0.018   1.465   0.010  0.00  0.00    +0.290 C 
ATOM      6  N   LIG    1        0.002  -0.004   0.002  0.00  0.00    -1.000 NA
ATOM      7  C   LIG    1        0.756  -0.708   1.049  0.00  0.00    +0.300 C 
ATOM      8  C   LIG    1        2.203  -0.198   1.038  0.00  0.00    +0.290 C 
ATOM      9  O   LIG    1        3.463   1.369   2.855  0.00  0.00    -0.510 OA
BRANCH   6  10
ATOM     10  S   LIG    1       -0.811  -0.852  -1.165  0.00  0.00    +2.610 S 
ATOM     11  O   LIG    1       -1.855   0.023  -1.570  0.00  0.00    -0.950 OA
ATOM     12  O   LIG    1       -1.098  -2.102  -0.555  0.00  0.00    -0.950 OA
ATOM     13  C   LIG    1        0.400  -1.058  -2.501  0.00  0.00    -0.280 C 
ENDBRANCH   6  10
ENDBRANCH   1   2
BRANCH   1  14
ATOM     14  O   LIG    1        3.584   3.962   3.090  0.00  0.00    -0.280 OA
BRANCH  14  22
ATOM     15  C   LIG    1        4.181   6.055   7.376  0.00  0.00    +0.050 C 
ATOM     16  C   LIG    1        5.313   6.166   6.353  0.00  0.00    +0.100 C 
ATOM     17  C   LIG    1        5.290   7.542   5.640  0.00  0.00    +0.090 C 
ATOM     18  C   LIG    1        4.453   7.243   4.412  0.00  0.00    -0.140 A 
ATOM     19  C   LIG    1        3.806   8.063   3.512  0.00  0.00    +0.030 A 
ATOM     20  C   LIG    1        3.082   7.513   2.469  0.00  0.00    +0.020 A 
ATOM     21  C   LIG    1        3.009   6.139   2.332  0.00  0.00    -0.040 A 
ATOM     22  C   LIG    1        3.660   5.313   3.231  0.00  0.00    +0.110 A 
ATOM     23  C   LIG    1        4.392   5.863   4.287  0.00  0.00    +0.090 A 
ATOM     24  C   LIG    1        6.669   5.926   7.020  0.00  0.00    +0.080 C 
ATOM     25  O   LIG    1        5.110   5.246   5.266  0.00  0.00    -0.290 OA
ENDBRANCH  14  22
ENDBRANCH   1  14
TORSDOF 4
