REMARK  Name = ZINCpe000000TDPf.0
REMARK                            x       y       z     vdW  Elec       q    Type
REMARK                         _______ _______ _______ _____ _____    ______ ____
ROOT
ATOM      1  C   LIG    1        3.582   8.005  -2.038  0.00  0.00    -0.230 C 
ATOM      2  C   LIG    1        4.570   7.309  -1.435  0.00  0.00    +0.210 C 
ATOM      3  N   LIG    1        5.747   7.054  -2.079  0.00  0.00    -0.640 N 
ATOM      4  H   LIG    1        6.429   6.554  -1.604  0.00  0.00    +0.430 HD
ATOM      5  C   LIG    1        6.010   7.451  -3.330  0.00  0.00    +0.710 C 
ATOM      6  N   LIG    1        5.122   8.154  -4.061  0.00  0.00    -0.710 N 
ATOM      7  H   LIG    1        5.335   8.435  -4.965  0.00  0.00    +0.440 HD
ATOM      8  O   LIG    1        7.086   7.171  -3.822  0.00  0.00    -0.550 OA
ATOM      9  C   LIG    1        3.822   8.487  -3.455  0.00  0.00    +0.280 C 
ATOM     10  C   LIG    1        3.671  10.009  -3.467  0.00  0.00    +0.050 C 
ENDROOT
BRANCH   1  11
ATOM     11  C   LIG    1        2.364   8.274  -1.371  0.00  0.00    +0.530 C 
ATOM     12  O   LIG    1        2.236   7.981  -0.197  0.00  0.00    -0.490 OA
BRANCH  11  13
ATOM     13  O   LIG    1        1.345   8.856  -2.036  0.00  0.00    -0.340 OA
BRANCH  13  15
ATOM     14  C   LIG    1       -0.890   9.759  -2.213  0.00  0.00    +0.070 C 
ATOM     15  C   LIG    1        0.144   9.099  -1.299  0.00  0.00    +0.200 C 
ENDBRANCH  13  15
ENDBRANCH  11  13
ENDBRANCH   1  11
BRANCH   2  16
ATOM     16  C   LIG    1        4.373   6.812  -0.026  0.00  0.00    +0.460 C 
BRANCH  16  17
ATOM     17  N   LIG    1        4.764   7.860   0.921  0.00  0.00    -0.140 N 
ATOM     18  N   LIG    1        3.981   8.764   1.396  0.00  0.00    -0.010 NA
ATOM     19  N   LIG    1        4.652   9.520   2.197  0.00  0.00    -0.280 NA
ATOM     20  C   LIG    1        5.911   9.059   2.219  0.00  0.00    +0.220 A 
ATOM     21  N   LIG    1        5.947   8.023   1.404  0.00  0.00    -0.310 NA
BRANCH  20  22
ATOM     22  C   LIG    1        7.044   9.612   3.002  0.00  0.00    -0.020 A 
ATOM     23  C   LIG    1        6.853  10.722   3.821  0.00  0.00    +0.060 A 
ATOM     24  C   LIG    1        7.910  11.232   4.547  0.00  0.00    +0.010 A 
ATOM     25  C   LIG    1        9.160  10.646   4.458  0.00  0.00    +0.030 A 
ATOM     26  C   LIG    1        9.354   9.540   3.651  0.00  0.00    +0.010 A 
ATOM     27  C   LIG    1        8.304   9.022   2.920  0.00  0.00    +0.050 A 
ENDBRANCH  20  22
ENDBRANCH  16  17
ENDBRANCH   2  16
TORSDOF 6
