REMARK  Name = ZINCqH00000395cC.0
REMARK                            x       y       z     vdW  Elec       q    Type
REMARK                         _______ _______ _______ _____ _____    ______ ____
ROOT
ATOM      1  C   LIG    1       -0.718   1.572   1.248  0.00  0.00    +0.520 C 
ATOM      2  N   LIG    1       -0.242   1.246   2.466  0.00  0.00    -0.720 N 
ATOM      3  H   LIG    1        0.555   0.699   2.544  0.00  0.00    +0.400 HD
ATOM      4  O   LIG    1       -1.714   2.256   1.150  0.00  0.00    -0.500 OA
ENDROOT
BRANCH   1   5
ATOM      5  C   LIG    1       -0.013   1.086   0.008  0.00  0.00    +0.230 C 
BRANCH   5   6
ATOM      6  O   LIG    1       -0.704   1.559  -1.150  0.00  0.00    -0.280 OA
BRANCH   6  10
ATOM      7  C   LIG    1        0.844   0.492  -4.826  0.00  0.00    -0.040 A 
ATOM      8  C   LIG    1       -0.306   1.282  -4.752  0.00  0.00    +0.130 A 
ATOM      9  C   LIG    1       -0.819   1.635  -3.524  0.00  0.00    +0.020 A 
ATOM     10  C   LIG    1       -0.195   1.208  -2.358  0.00  0.00    +0.170 A 
ATOM     11  C   LIG    1        0.953   0.427  -2.426  0.00  0.00    -0.040 A 
ATOM     12  C   LIG    1        1.470   0.063  -3.651  0.00  0.00    -0.010 A 
ATOM     13 BR   LIG    1        3.026  -1.006  -3.742  0.00  0.00    -0.020 Br
BRANCH   7  15
ATOM     14  N   LIG    1        1.807  -0.171  -7.112  0.00  0.00    -0.390 NA
ATOM     15  C   LIG    1        1.381   0.122  -6.101  0.00  0.00    +0.240 C 
ENDBRANCH   7  15
ENDBRANCH   6  10
ENDBRANCH   5   6
ENDBRANCH   1   5
BRANCH   2  16
ATOM     16  C   LIG    1       -0.927   1.718   3.671  0.00  0.00    +0.350 C 
BRANCH  16  17
ATOM     17  C   LIG    1       -0.629   0.786   4.817  0.00  0.00    -0.200 A 
ATOM     18  C   LIG    1       -1.510   0.393   5.738  0.00  0.00    +0.030 A 
ATOM     19  C   LIG    1       -1.006  -0.469   6.697  0.00  0.00    +0.020 A 
ATOM     20  C   LIG    1        0.284  -0.775   6.555  0.00  0.00    -0.030 A 
ATOM     21  S   LIG    1        0.933   0.044   5.140  0.00  0.00    +0.090 S 
ENDBRANCH  16  17
BRANCH  16  22
ATOM     22  C   LIG    1       -0.438   3.126   4.018  0.00  0.00    -0.090 C 
ATOM     23  C   LIG    1       -1.407   3.911   4.917  0.00  0.00    +0.030 C 
ATOM     24  C   LIG    1       -1.077   5.146   4.058  0.00  0.00    +0.020 C 
ATOM     25  C   LIG    1       -0.729   4.167   2.924  0.00  0.00    +0.030 C 
BRANCH  22  26
ATOM     26  C   LIG    1        1.010   3.146   4.513  0.00  0.00    +0.200 C 
BRANCH  26  27
ATOM     27  O   LIG    1        1.391   4.490   4.814  0.00  0.00    -0.560 OA
ATOM     28  H   LIG    1        2.300   4.579   5.135  0.00  0.00    +0.380 HD
ENDBRANCH  26  27
ENDBRANCH  22  26
ENDBRANCH  16  22
ENDBRANCH   2  16
TORSDOF 9
