REMARK  Name = ZINCpk00001AZiJN.0
REMARK                            x       y       z     vdW  Elec       q    Type
REMARK                         _______ _______ _______ _____ _____    ______ ____
ROOT
ATOM      1  N   LIG    1       -4.608   2.772  -1.115  0.00  0.00    -0.710 N 
ATOM      2  H   LIG    1       -5.159   1.976  -1.176  0.00  0.00    +0.410 HD
ENDROOT
BRANCH   1   4
ATOM      3  C   LIG    1       -3.058   1.440   0.290  0.00  0.00    +0.310 C 
ATOM      4  C   LIG    1       -3.231   2.673  -0.623  0.00  0.00    +0.280 C 
ATOM      5  C   LIG    1       -2.253   2.352  -1.777  0.00  0.00    +0.060 C 
ATOM      6  C   LIG    1       -2.142   0.843  -1.759  0.00  0.00    +0.520 C 
ATOM      7  O   LIG    1       -1.700   0.169  -2.665  0.00  0.00    -0.510 OA
ATOM      8  N   LIG    1       -2.605   0.358  -0.592  0.00  0.00    -0.610 N 
ATOM      9  C   LIG    1       -2.651  -1.065  -0.246  0.00  0.00    +0.310 C 
BRANCH   3  15
ATOM     10  C   LIG    1       -3.580   2.450   3.174  0.00  0.00    +0.350 C 
ATOM     11  N   LIG    1       -2.263   2.157   2.602  0.00  0.00    -0.360 N 
ATOM     12  N   LIG    1       -1.033   2.278   3.261  0.00  0.00    -0.280 NA
ATOM     13  C   LIG    1       -0.087   1.927   2.428  0.00  0.00    +0.240 A 
ATOM     14  C   LIG    1       -0.683   1.572   1.214  0.00  0.00    -0.090 A 
ATOM     15  C   LIG    1       -2.022   1.717   1.350  0.00  0.00    +0.060 A 
ENDBRANCH   3  15
ENDBRANCH   1   4
BRANCH   1  16
ATOM     16  C   LIG    1       -5.122   4.002  -1.493  0.00  0.00    +0.470 A 
ATOM     17  C   LIG    1       -4.343   5.151  -1.404  0.00  0.00    -0.230 A 
ATOM     18  C   LIG    1       -4.904   6.361  -1.801  0.00  0.00    +0.460 A 
ATOM     19  N   LIG    1       -6.162   6.378  -2.238  0.00  0.00    -0.610 NA
ATOM     20  C   LIG    1       -6.870   5.268  -2.303  0.00  0.00    +0.580 A 
ATOM     21  N   LIG    1       -6.373   4.103  -1.941  0.00  0.00    -0.610 NA
BRANCH  18  22
ATOM     22  N   LIG    1       -4.166   7.533  -1.736  0.00  0.00    -0.710 N 
ATOM     23  H   LIG    1       -4.566   8.373  -2.010  0.00  0.00    +0.410 HD
BRANCH  22  24
ATOM     24  C   LIG    1       -2.784   7.503  -1.253  0.00  0.00    +0.300 C 
BRANCH  24  25
ATOM     25  C   LIG    1       -2.202   8.918  -1.282  0.00  0.00    -0.060 C 
ATOM     26  C   LIG    1       -1.021   9.177  -2.218  0.00  0.00    +0.030 C 
ATOM     27  C   LIG    1       -0.799   9.117  -0.705  0.00  0.00    +0.030 C 
ENDBRANCH  24  25
ENDBRANCH  22  24
ENDBRANCH  18  22
ENDBRANCH   1  16
TORSDOF 6
