REMARK  Name = ZINCpe00000MJIeF.0
REMARK                            x       y       z     vdW  Elec       q    Type
REMARK                         _______ _______ _______ _____ _____    ______ ____
ROOT
ATOM      1  C   LIG    1       -1.386  -3.858  -1.664  0.00  0.00    -0.020 C 
ATOM      2  C   LIG    1       -1.329  -5.215  -2.377  0.00  0.00    +0.040 C 
ATOM      3  C   LIG    1       -0.602  -6.209  -1.466  0.00  0.00    +0.070 C 
ATOM      4  C   LIG    1        0.678  -5.604  -0.968  0.00  0.00    +0.520 C 
ATOM      5  N   LIG    1        0.935  -4.295  -0.999  0.00  0.00    -0.600 N 
ATOM      6  C   LIG    1        2.205  -3.831  -0.434  0.00  0.00    +0.290 C 
ATOM      7  O   LIG    1        1.523  -6.344  -0.511  0.00  0.00    -0.550 OA
ATOM      8  C   LIG    1        0.033  -3.298  -1.561  0.00  0.00    +0.320 C 
ENDROOT
BRANCH   8   9
ATOM      9  C   LIG    1        0.024  -2.079  -0.676  0.00  0.00    -0.260 A 
ATOM     10  C   LIG    1       -0.003  -0.792  -1.093  0.00  0.00    +0.250 A 
ATOM     11  N   LIG    1        0.002  -0.004   0.002  0.00  0.00    -0.370 N 
ATOM     12  N   LIG    1        0.024  -0.834   1.130  0.00  0.00    -0.290 NA
ATOM     13  C   LIG    1       -0.018   1.461   0.010  0.00  0.00    +0.360 C 
ATOM     14  C   LIG    1        0.037  -2.077   0.723  0.00  0.00    +0.250 A 
ENDBRANCH   8   9
BRANCH   1  15
ATOM     15  C   LIG    1       -2.262  -2.894  -2.466  0.00  0.00    +0.290 C 
BRANCH  15  17
ATOM     16  C   LIG    1       -4.602  -2.678  -3.111  0.00  0.00    +0.580 C 
ATOM     17  N   LIG    1       -3.647  -3.373  -2.462  0.00  0.00    -0.710 N 
ATOM     18  H   LIG    1       -3.876  -4.190  -1.992  0.00  0.00    +0.410 HD
ATOM     19  O   LIG    1       -4.315  -1.654  -3.699  0.00  0.00    -0.530 OA
BRANCH  16  24
ATOM     20  C   LIG    1       -9.912  -4.694  -2.978  0.00  0.00    +0.150 C 
ATOM     21  C   LIG    1       -8.521  -4.116  -3.044  0.00  0.00    +0.090 A 
ATOM     22  C   LIG    1       -8.292  -2.941  -3.741  0.00  0.00    +0.040 A 
ATOM     23  C   LIG    1       -6.997  -2.442  -3.772  0.00  0.00    +0.100 A 
ATOM     24  C   LIG    1       -6.002  -3.162  -3.106  0.00  0.00    +0.010 A 
ATOM     25  N   LIG    1       -6.320  -4.281  -2.464  0.00  0.00    -0.210 NA
ATOM     26  N   LIG    1       -7.521  -4.732  -2.437  0.00  0.00    -0.240 NA
ENDBRANCH  16  24
ENDBRANCH  15  17
ENDBRANCH   1  15
TORSDOF 4
