REMARK  Name = ZINCqH000000702i.0
REMARK                            x       y       z     vdW  Elec       q    Type
REMARK                         _______ _______ _______ _____ _____    ______ ____
ROOT
ATOM      1  C   LIG    1        3.306   2.696  -0.587  0.00  0.00    +0.220 A 
ATOM      2  N   LIG    1        3.239   2.660   0.719  0.00  0.00    -0.380 NA
ATOM      3  O   LIG    1        2.151   2.255   1.069  0.00  0.00    +0.090 OA
ATOM      4  C   LIG    1        1.396   1.986  -0.001  0.00  0.00    +0.190 A 
ATOM      5  N   LIG    1        2.117   2.256  -1.060  0.00  0.00    -0.450 NA
ENDROOT
BRANCH   1   9
ATOM      6  C   LIG    1        6.639   3.949  -2.919  0.00  0.00    +0.120 A 
ATOM      7  C   LIG    1        5.476   3.525  -3.543  0.00  0.00    -0.030 A 
ATOM      8  C   LIG    1        4.394   3.118  -2.789  0.00  0.00    +0.070 A 
ATOM      9  C   LIG    1        4.469   3.133  -1.398  0.00  0.00    -0.030 A 
ATOM     10  C   LIG    1        5.636   3.564  -0.769  0.00  0.00    +0.000 A 
ATOM     11  C   LIG    1        6.719   3.966  -1.528  0.00  0.00    +0.100 A 
BRANCH   6  13
ATOM     12  C   LIG    1        7.552   4.305  -5.085  0.00  0.00    +0.240 C 
ATOM     13  O   LIG    1        7.703   4.348  -3.665  0.00  0.00    -0.300 OA
ENDBRANCH   6  13
BRANCH  11  14
ATOM     14  O   LIG    1        7.861   4.383  -0.917  0.00  0.00    -0.300 OA
ATOM     15  C   LIG    1        7.872   4.374   0.511  0.00  0.00    +0.240 C 
ENDBRANCH  11  14
ENDBRANCH   1   9
BRANCH   4  16
ATOM     16  C   LIG    1       -0.018   1.465   0.010  0.00  0.00    +0.360 C 
BRANCH  16  17
ATOM     17  N   LIG    1        0.002  -0.004   0.002  0.00  0.00    -0.480 N 
ATOM     18  C   LIG    1        0.470  -0.506   1.222  0.00  0.00    +0.070 A 
ATOM     19  C   LIG    1        1.770  -0.580   1.720  0.00  0.00    +0.010 A 
ATOM     20  C   LIG    1        2.005  -1.116   2.970  0.00  0.00    +0.030 A 
ATOM     21  C   LIG    1        0.953  -1.583   3.737  0.00  0.00    +0.010 A 
ATOM     22  C   LIG    1       -0.339  -1.516   3.248  0.00  0.00    +0.030 A 
ATOM     23  C   LIG    1       -0.579  -0.984   1.999  0.00  0.00    -0.130 A 
ATOM     24  C   LIG    1       -1.863  -0.798   1.214  0.00  0.00    +0.070 C 
ATOM     25  C   LIG    1       -1.353  -0.551  -0.224  0.00  0.00    +0.190 C 
ATOM     26  C   LIG    1       -2.237   0.469  -0.945  0.00  0.00    +0.050 C 
ENDBRANCH  16  17
ENDBRANCH   4  16
TORSDOF 5
