REMARK  Name = ZINCqH00000397nN.0
REMARK                            x       y       z     vdW  Elec       q    Type
REMARK                         _______ _______ _______ _____ _____    ______ ____
ROOT
ATOM      1  N   LIG    1        2.854   4.324  -0.280  0.00  0.00    -0.660 N 
ATOM      2  H   LIG    1        1.922   4.567  -0.167  0.00  0.00    +0.410 HD
ATOM      3  C   LIG    1        3.229   3.032  -0.192  0.00  0.00    +0.550 C 
ATOM      4  O   LIG    1        4.408   2.737  -0.234  0.00  0.00    -0.500 OA
ENDROOT
BRANCH   1   8
ATOM      5  C   LIG    1        5.701   7.274  -1.037  0.00  0.00    +0.150 A 
ATOM      6  C   LIG    1        5.881   5.991  -1.536  0.00  0.00    +0.010 A 
ATOM      7  C   LIG    1        4.939   5.014  -1.285  0.00  0.00    +0.040 A 
ATOM      8  C   LIG    1        3.810   5.314  -0.534  0.00  0.00    +0.130 A 
ATOM      9  C   LIG    1        3.627   6.599  -0.041  0.00  0.00    +0.010 A 
ATOM     10  C   LIG    1        4.572   7.575  -0.287  0.00  0.00    +0.040 A 
BRANCH   5  15
ATOM     11  N   LIG    1        7.749  10.228  -0.652  0.00  0.00    -0.860 N 
ATOM     12  H   LIG    1        7.927  10.911   0.012  0.00  0.00    +0.420 HD
ATOM     13  H   LIG    1        8.177  10.273  -1.522  0.00  0.00    +0.400 HD
ATOM     14  C   LIG    1        6.905   9.216  -0.368  0.00  0.00    +0.700 C 
ATOM     15  N   LIG    1        6.657   8.266  -1.292  0.00  0.00    -0.690 N 
ATOM     16  H   LIG    1        7.141   8.269  -2.133  0.00  0.00    +0.410 HD
ATOM     17  O   LIG    1        6.369   9.159   0.721  0.00  0.00    -0.580 OA
ENDBRANCH   5  15
ENDBRANCH   1   8
BRANCH   3  18
ATOM     18  C   LIG    1        2.208   1.974  -0.043  0.00  0.00    -0.110 A 
ATOM     19  C   LIG    1        0.854   2.291  -0.121  0.00  0.00    +0.040 A 
ATOM     20  C   LIG    1       -0.097   1.298   0.018  0.00  0.00    +0.030 A 
ATOM     21  C   LIG    1        0.286  -0.013   0.234  0.00  0.00    +0.050 A 
ATOM     22  C   LIG    1        1.624  -0.347   0.315  0.00  0.00    +0.050 A 
ATOM     23  C   LIG    1        2.597   0.639   0.177  0.00  0.00    -0.090 A 
BRANCH  23  24
ATOM     24  C   LIG    1        4.032   0.287   0.263  0.00  0.00    +0.490 C 
ATOM     25  O   LIG    1        4.585  -0.246  -0.682  0.00  0.00    -0.430 OA
BRANCH  24  26
ATOM     26  C   LIG    1        4.785   0.579   1.482  0.00  0.00    -0.270 A 
ATOM     27  C   LIG    1        6.133   0.395   1.648  0.00  0.00    +0.100 A 
ATOM     28  C   LIG    1        6.580   0.754   2.895  0.00  0.00    +0.000 A 
ATOM     29  C   LIG    1        5.635   1.209   3.729  0.00  0.00    -0.060 A 
ATOM     30  S   LIG    1        4.105   1.215   2.974  0.00  0.00    +0.210 S 
ENDBRANCH  24  26
ENDBRANCH  23  24
ENDBRANCH   3  18
TORSDOF 5
