REMARK  Name = ZINCrD0000073WWG.0
REMARK                            x       y       z     vdW  Elec       q    Type
REMARK                         _______ _______ _______ _____ _____    ______ ____
ROOT
ATOM      1  C   LIG    1       -4.311   9.104  -1.423  0.00  0.00    +0.080 C 
ATOM      2  C   LIG    1       -3.729   8.729  -0.059  0.00  0.00    +0.200 C 
ENDROOT
BRANCH   2   3
ATOM      3  C   LIG    1       -3.260   9.975   0.647  0.00  0.00    +0.520 C 
ATOM      4  N   LIG    1       -4.151  10.916   1.016  0.00  0.00    -0.670 N 
ATOM      5  H   LIG    1       -5.082  10.829   0.760  0.00  0.00    +0.420 HD
ATOM      6  O   LIG    1       -2.080  10.130   0.883  0.00  0.00    -0.490 OA
BRANCH   4   7
ATOM      7  C   LIG    1       -3.733  12.016   1.764  0.00  0.00    +0.180 A 
ATOM      8  C   LIG    1       -2.709  11.873   2.696  0.00  0.00    +0.010 A 
ATOM      9  C   LIG    1       -2.291  12.958   3.433  0.00  0.00    +0.070 A 
ATOM     10  C   LIG    1       -2.904  14.201   3.253  0.00  0.00    -0.160 A 
ATOM     11  C   LIG    1       -3.936  14.340   2.321  0.00  0.00    +0.100 A 
ATOM     12  C   LIG    1       -4.346  13.252   1.583  0.00  0.00    -0.010 A 
BRANCH  10  13
ATOM     13  C   LIG    1       -2.463  15.365   4.046  0.00  0.00    +0.560 C 
ATOM     14  O   LIG    1       -2.998  16.446   3.889  0.00  0.00    -0.540 OA
ATOM     15  N   LIG    1       -1.468  15.230   4.945  0.00  0.00    -0.850 N 
ATOM     16  H   LIG    1       -1.177  15.995   5.466  0.00  0.00    +0.410 HD
ATOM     17  H   LIG    1       -1.041  14.368   5.070  0.00  0.00    +0.400 HD
ENDBRANCH  10  13
ENDBRANCH   4   7
ENDBRANCH   2   3
BRANCH   2  18
ATOM     18  O   LIG    1       -2.607   7.825  -0.243  0.00  0.00    -0.320 OA
BRANCH  18  19
ATOM     19  C   LIG    1       -2.881   6.505  -0.260  0.00  0.00    +0.540 C 
ATOM     20  O   LIG    1       -4.026   6.120  -0.125  0.00  0.00    -0.490 OA
BRANCH  19  21
ATOM     21  C   LIG    1       -1.797   5.533  -0.441  0.00  0.00    -0.230 A 
ATOM     22  C   LIG    1       -1.962   4.205  -0.473  0.00  0.00    +0.140 A 
ATOM     23  C   LIG    1       -0.791   3.453  -0.658  0.00  0.00    -0.110 A 
ATOM     24  C   LIG    1       -0.643   2.048  -0.740  0.00  0.00    +0.120 A 
ATOM     25  C   LIG    1        0.584   1.492  -0.918  0.00  0.00    +0.000 A 
ATOM     26  C   LIG    1        1.716   2.293  -1.035  0.00  0.00    +0.140 A 
ATOM     27  C   LIG    1        1.603   3.663  -0.965  0.00  0.00    +0.020 A 
ATOM     28  F   LIG    1        2.928   1.725  -1.217  0.00  0.00    -0.130 F 
ATOM     29  C   LIG    1        0.351   4.256  -0.776  0.00  0.00    -0.110 A 
ATOM     30  S   LIG    1       -0.105   5.951  -0.647  0.00  0.00    +0.200 S 
ENDBRANCH  19  21
ENDBRANCH  18  19
ENDBRANCH   2  18
TORSDOF 6
