REMARK  Name = ZINCvU0000000F27.0
REMARK                            x       y       z     vdW  Elec       q    Type
REMARK                         _______ _______ _______ _____ _____    ______ ____
ROOT
ATOM      1  C   LIG    1        2.038   4.303   0.625  0.00  0.00    +0.310 A 
ATOM      2  N   LIG    1        1.681   5.540   0.397  0.00  0.00    -0.510 NA
ATOM      3  C   LIG    1        0.575   5.561  -0.361  0.00  0.00    +0.300 A 
ATOM      4  N   LIG    1        0.223   4.320  -0.628  0.00  0.00    -0.290 NA
ATOM      5  N   LIG    1        1.158   3.489   0.009  0.00  0.00    -0.330 N 
ENDROOT
BRANCH   1  14
ATOM      6  C   LIG    1        1.509   5.206   5.965  0.00  0.00    +0.360 C 
ATOM      7  N   LIG    1        2.383   4.982   4.811  0.00  0.00    -0.380 N 
ATOM      8  C   LIG    1        2.023   4.412   3.639  0.00  0.00    +0.240 A 
ATOM      9  C   LIG    1        3.109   4.393   2.844  0.00  0.00    -0.230 A 
ATOM     10  C   LIG    1        4.177   4.969   3.553  0.00  0.00    +0.090 A 
ATOM     11  C   LIG    1        5.568   5.117   2.987  0.00  0.00    +0.140 C 
ATOM     12  C   LIG    1        5.691   4.194   1.768  0.00  0.00    +0.040 C 
ATOM     13  C   LIG    1        4.514   4.430   0.819  0.00  0.00    +0.050 C 
ATOM     14  C   LIG    1        3.229   3.864   1.437  0.00  0.00    +0.160 C 
ATOM     15  N   LIG    1        3.742   5.323   4.727  0.00  0.00    -0.280 NA
ENDBRANCH   1  14
BRANCH   5  16
ATOM     16  C   LIG    1        1.177   2.087   0.002  0.00  0.00    +0.130 A 
ATOM     17  C   LIG    1       -0.017   1.376   0.010  0.00  0.00    +0.080 A 
ATOM     18  C   LIG    1        0.002  -0.004   0.002  0.00  0.00    +0.050 A 
ATOM     19  C   LIG    1        1.213  -0.682  -0.014  0.00  0.00    +0.110 A 
ATOM     20  C   LIG    1        2.405   0.028  -0.021  0.00  0.00    -0.020 A 
ATOM     21  C   LIG    1        2.388   1.408  -0.013  0.00  0.00    +0.060 A 
BRANCH  19  22
ATOM     22  O   LIG    1        1.231  -2.041  -0.022  0.00  0.00    -0.310 OA
BRANCH  22  23
ATOM     23  C   LIG    1        2.512  -2.673  -0.038  0.00  0.00    +0.600 C 
ATOM     24  F   LIG    1        3.211  -2.281  -1.185  0.00  0.00    -0.160 F 
ATOM     25  F   LIG    1        2.347  -4.062  -0.044  0.00  0.00    -0.130 F 
ATOM     26  F   LIG    1        3.233  -2.294   1.100  0.00  0.00    -0.160 F 
ENDBRANCH  22  23
ENDBRANCH  19  22
ENDBRANCH   5  16
BRANCH   3  27
ATOM     27  C   LIG    1       -0.128   6.775  -0.827  0.00  0.00    -0.130 A 
ATOM     28  C   LIG    1       -1.239   6.787  -1.589  0.00  0.00    +0.060 A 
ATOM     29  C   LIG    1       -1.714   8.046  -1.896  0.00  0.00    +0.010 A 
ATOM     30  C   LIG    1       -1.002   9.058  -1.393  0.00  0.00    -0.040 A 
ATOM     31  S   LIG    1        0.352   8.428  -0.464  0.00  0.00    +0.180 S 
ENDBRANCH   3  27
TORSDOF 5
