REMARK  Name = ZINCpk0000055KfP.0
REMARK                            x       y       z     vdW  Elec       q    Type
REMARK                         _______ _______ _______ _____ _____    ______ ____
ROOT
ATOM      1  C   LIG    1       -0.927   1.718   3.671  0.00  0.00    +0.240 C 
ENDROOT
BRANCH   1   2
ATOM      2  N   LIG    1       -0.242   1.246   2.466  0.00  0.00    -0.730 N 
ATOM      3  H   LIG    1        0.555   0.699   2.544  0.00  0.00    +0.400 HD
ATOM      4  C   LIG    1       -0.718   1.572   1.248  0.00  0.00    +0.520 C 
ATOM      5  O   LIG    1       -1.714   2.256   1.150  0.00  0.00    -0.520 OA
BRANCH   4   6
ATOM      6  C   LIG    1       -0.013   1.086   0.008  0.00  0.00    +0.110 C 
BRANCH   6   7
ATOM      7  C   LIG    1       -0.742   1.585  -1.213  0.00  0.00    -0.100 A 
ATOM      8  C   LIG    1       -1.677   0.782  -1.836  0.00  0.00    +0.060 A 
ATOM      9  C   LIG    1       -2.349   1.241  -2.954  0.00  0.00    -0.040 A 
ATOM     10  C   LIG    1       -2.080   2.501  -3.456  0.00  0.00    +0.040 A 
ATOM     11  C   LIG    1       -1.142   3.306  -2.839  0.00  0.00    -0.080 A 
ATOM     12  C   LIG    1       -0.470   2.849  -1.715  0.00  0.00    +0.140 A 
BRANCH  12  13
ATOM     13  O   LIG    1        0.454   3.639  -1.107  0.00  0.00    -0.310 OA
ATOM     14  C   LIG    1        0.682   4.929  -1.679  0.00  0.00    +0.250 C 
ENDBRANCH  12  13
ENDBRANCH   6   7
ENDBRANCH   4   6
ENDBRANCH   1   2
BRANCH   1  16
ATOM     15  C   LIG    1       -0.851   4.097   2.910  0.00  0.00    +0.030 C 
ATOM     16  C   LIG    1       -0.438   3.126   4.018  0.00  0.00    +0.010 C 
ENDBRANCH   1  16
BRANCH   1  17
ATOM     17  C   LIG    1       -0.624   0.772   4.834  0.00  0.00    +0.260 C 
BRANCH  17  18
ATOM     18  N   LIG    1       -0.984  -0.597   4.457  0.00  0.00    -0.740 N 
ATOM     19  H   LIG    1       -1.352  -0.777   3.577  0.00  0.00    +0.400 HD
ATOM     20  C   LIG    1       -0.802  -1.607   5.330  0.00  0.00    +0.520 C 
ATOM     21  O   LIG    1       -0.342  -1.382   6.430  0.00  0.00    -0.490 OA
BRANCH  20  22
ATOM     22  C   LIG    1       -1.172  -3.015   4.942  0.00  0.00    +0.000 C 
ATOM     23  C   LIG    1       -0.270  -3.513   3.785  0.00  0.00    +0.040 C 
ATOM     24  C   LIG    1       -0.343  -5.053   3.934  0.00  0.00    +0.020 C 
ATOM     25  C   LIG    1       -0.348  -5.286   5.459  0.00  0.00    -0.010 C 
ATOM     26  C   LIG    1       -0.876  -3.990   6.100  0.00  0.00    +0.170 C 
BRANCH  26  27
ATOM     27  O   LIG    1        0.115  -3.434   6.966  0.00  0.00    -0.530 OA
ATOM     28  H   LIG    1        0.345  -4.001   7.715  0.00  0.00    +0.370 HD
ENDBRANCH  26  27
ENDBRANCH  20  22
ENDBRANCH  17  18
ENDBRANCH   1  17
TORSDOF 9
