REMARK  Name = ZINCrH000004nP1j.0
REMARK                            x       y       z     vdW  Elec       q    Type
REMARK                         _______ _______ _______ _____ _____    ______ ____
ROOT
ATOM      1  C   LIG    1       -0.482   4.245   0.996  0.00  0.00    +0.520 C 
ATOM      2  N   LIG    1       -0.733   5.535   1.297  0.00  0.00    -0.610 N 
ATOM      3  C   LIG    1       -1.372   5.896   2.570  0.00  0.00    +0.260 C 
ATOM      4  C   LIG    1       -2.599   6.760   2.284  0.00  0.00    +0.020 C 
ATOM      5  C   LIG    1       -2.188   7.957   1.425  0.00  0.00    +0.040 C 
ATOM      6  C   LIG    1       -1.623   7.461   0.092  0.00  0.00    +0.070 C 
ATOM      7  C   LIG    1       -0.380   6.606   0.355  0.00  0.00    +0.310 C 
ATOM      8  O   LIG    1        0.117   3.964  -0.023  0.00  0.00    -0.460 OA
ENDROOT
BRANCH   6   9
ATOM      9  C   LIG    1       -1.248   8.642  -0.767  0.00  0.00    +0.090 A 
ATOM     10  N   LIG    1       -0.394   9.533  -0.432  0.00  0.00    -0.460 NA
ATOM     11  C   LIG    1       -0.154  10.533  -1.301  0.00  0.00    +0.080 A 
ATOM     12  C   LIG    1        0.727  11.627  -1.194  0.00  0.00    +0.080 A 
ATOM     13  C   LIG    1        0.816  12.543  -2.198  0.00  0.00    +0.030 A 
ATOM     14  C   LIG    1        0.045  12.416  -3.345  0.00  0.00    +0.040 A 
ATOM     15  C   LIG    1       -0.824  11.356  -3.478  0.00  0.00    +0.060 A 
ATOM     16  C   LIG    1       -0.928  10.410  -2.461  0.00  0.00    -0.180 A 
ATOM     17  S   LIG    1       -1.917   8.961  -2.304  0.00  0.00    +0.110 S 
ENDBRANCH   6   9
BRANCH   1  23
ATOM     18  C   LIG    1       -1.814   2.188   1.448  0.00  0.00    -0.620 A 
ATOM     19  C   LIG    1       -2.238   1.193   2.304  0.00  0.00    +0.130 A 
ATOM     20  C   LIG    1       -1.786   1.163   3.612  0.00  0.00    +0.020 A 
ATOM     21  C   LIG    1       -0.916   2.134   4.073  0.00  0.00    +0.070 A 
ATOM     22  C   LIG    1       -0.488   3.138   3.228  0.00  0.00    +0.030 A 
ATOM     23  C   LIG    1       -0.936   3.172   1.907  0.00  0.00    -0.030 A 
BRANCH  18  25
ATOM     24  C   LIG    1       -3.369   3.741  -0.330  0.00  0.00    -0.270 C 
ATOM     25  S   LIG    1       -2.384   2.222  -0.218  0.00  0.00    +2.480 S 
ATOM     26  O   LIG    1       -1.199   2.338  -0.993  0.00  0.00    -0.890 OA
ATOM     27  O   LIG    1       -3.220   1.077  -0.326  0.00  0.00    -0.940 OA
ENDBRANCH  18  25
ENDBRANCH   1  23
TORSDOF 3
