REMARK  Name = ZINC9l0000002mVM.0
REMARK                            x       y       z     vdW  Elec       q    Type
REMARK                         _______ _______ _______ _____ _____    ______ ____
ROOT
ATOM      1  C   LIG    1       -0.013   1.086   0.008  0.00  0.00    -0.040 C 
ATOM      2  C   LIG    1       -1.150   1.781  -0.743  0.00  0.00    +0.010 C 
ATOM      3  C   LIG    1       -1.136   1.773   0.788  0.00  0.00    -0.120 C 
ENDROOT
BRANCH   3   4
ATOM      4  C   LIG    1       -2.136   0.891   1.489  0.00  0.00    +0.520 C 
ATOM      5  O   LIG    1       -2.539  -0.124   0.948  0.00  0.00    -0.700 OA
ATOM      6  O   LIG    1       -2.542   1.192   2.599  0.00  0.00    -0.700 OA
ENDBRANCH   3   4
BRANCH   1   7
ATOM      7  C   LIG    1        1.359   1.764  -0.001  0.00  0.00    +0.030 C 
BRANCH   7   9
ATOM      8  C   LIG    1        3.737   1.547  -0.734  0.00  0.00    +0.000 C 
ATOM      9  C   LIG    1        2.366   0.868  -0.724  0.00  0.00    +0.000 C 
ENDBRANCH   7   9
ENDBRANCH   1   7
TORSDOF 3
