REMARK  Name = ZINCpk00000y6tTz.0
REMARK                            x       y       z     vdW  Elec       q    Type
REMARK                         _______ _______ _______ _____ _____    ______ ____
ROOT
ATOM      1  C   LIG    1        6.048   6.975   0.758  0.00  0.00    -0.120 A 
ATOM      2  C   LIG    1        4.989   7.770   0.352  0.00  0.00    +0.190 A 
ATOM      3  C   LIG    1        3.749   7.179   0.169  0.00  0.00    -0.040 A 
ATOM      4  C   LIG    1        3.606   5.816   0.396  0.00  0.00    +0.380 A 
ATOM      5  N   LIG    1        4.638   5.084   0.788  0.00  0.00    -0.540 NA
ATOM      6  C   LIG    1        5.837   5.617   0.967  0.00  0.00    +0.400 A 
ENDROOT
BRANCH   4   7
ATOM      7  N   LIG    1        2.366   5.215   0.214  0.00  0.00    -0.470 N 
ATOM      8  C   LIG    1        1.858   5.455  -1.142  0.00  0.00    +0.200 C 
ATOM      9  C   LIG    1        0.434   4.906  -1.260  0.00  0.00    +0.040 C 
ATOM     10  C   LIG    1        0.444   3.405  -0.957  0.00  0.00    +0.020 C 
ATOM     11  C   LIG    1        1.022   3.179   0.442  0.00  0.00    +0.000 C 
ATOM     12  C   LIG    1        2.429   3.778   0.512  0.00  0.00    +0.220 C 
BRANCH  11  13
ATOM     13  C   LIG    1        1.091   1.678   0.730  0.00  0.00    +0.180 C 
BRANCH  13  14
ATOM     14  O   LIG    1       -0.232   1.141   0.778  0.00  0.00    -0.570 OA
ATOM     15  H   LIG    1       -0.265   0.191   0.957  0.00  0.00    +0.380 HD
ENDBRANCH  13  14
ENDBRANCH  11  13
ENDBRANCH   4   7
BRANCH   6  16
ATOM     16  N   LIG    1        6.894   4.812   1.374  0.00  0.00    -0.470 N 
ATOM     17  C   LIG    1        6.818   3.486   0.747  0.00  0.00    +0.190 C 
ATOM     18  C   LIG    1        8.069   2.680   1.101  0.00  0.00    +0.030 C 
ATOM     19  C   LIG    1        8.167   2.540   2.623  0.00  0.00    +0.030 C 
ATOM     20  C   LIG    1        8.197   3.935   3.255  0.00  0.00    +0.020 C 
ATOM     21  C   LIG    1        6.941   4.705   2.838  0.00  0.00    +0.200 C 
BRANCH  20  22
ATOM     22  C   LIG    1        8.234   3.805   4.779  0.00  0.00    +0.170 C 
BRANCH  22  23
ATOM     23  O   LIG    1        9.459   3.185   5.174  0.00  0.00    -0.570 OA
ATOM     24  H   LIG    1        9.551   3.070   6.130  0.00  0.00    +0.380 HD
ENDBRANCH  22  23
ENDBRANCH  20  22
ENDBRANCH   6  16
BRANCH   1  26
ATOM     25  O   LIG    1        7.545   8.770   0.880  0.00  0.00    -0.190 OA
ATOM     26  N   LIG    1        7.389   7.565   0.966  0.00  0.00    +0.040 N 
ATOM     27  O   LIG    1        8.338   6.845   1.224  0.00  0.00    -0.110 OA
ENDBRANCH   1  26
TORSDOF 7
