REMARK  Name = ZINCpe00000FUlIN.0
REMARK                            x       y       z     vdW  Elec       q    Type
REMARK                         _______ _______ _______ _____ _____    ______ ____
ROOT
ATOM      1  C   LIG    1        2.884   4.403  -1.368  0.00  0.00    +0.170 C 
ATOM      2  C   LIG    1        1.625   3.496  -1.327  0.00  0.00    +0.080 C 
ATOM      3  C   LIG    1        1.579   3.035   0.145  0.00  0.00    +0.350 C 
ATOM      4  N   LIG    1        2.938   3.174   0.689  0.00  0.00    -0.990 NA
ATOM      5  C   LIG    1        3.825   3.673  -0.378  0.00  0.00    +0.280 C 
ENDROOT
BRANCH   3   6
ATOM      6  C   LIG    1        1.143   1.594   0.217  0.00  0.00    +0.160 A 
ATOM      7  N   LIG    1        1.926   0.551   0.266  0.00  0.00    -0.260 NA
ATOM      8  N   LIG    1        1.216  -0.520   0.321  0.00  0.00    -0.280 NA
ATOM      9  C   LIG    1       -0.051  -0.209   0.309  0.00  0.00    +0.210 A 
ATOM     10  N   LIG    1       -0.134   1.142   0.243  0.00  0.00    -0.570 N 
ATOM     11  H   LIG    1       -0.943   1.677   0.216  0.00  0.00    +0.430 HD
BRANCH   9  12
ATOM     12  C   LIG    1       -1.208  -1.173   0.359  0.00  0.00    +0.060 C 
ATOM     13  C   LIG    1       -2.584  -0.607   0.715  0.00  0.00    +0.030 C 
ATOM     14  C   LIG    1       -1.825  -1.466   1.729  0.00  0.00    +0.060 C 
ENDBRANCH   9  12
ENDBRANCH   3   6
BRANCH   4  15
ATOM     15  S   LIG    1        3.396   2.829   2.242  0.00  0.00    +2.740 S 
ATOM     16  O   LIG    1        4.811   2.698   2.224  0.00  0.00    -0.950 OA
ATOM     17  O   LIG    1        2.527   1.801   2.697  0.00  0.00    -0.940 OA
BRANCH  15  18
ATOM     18  C   LIG    1        3.040   4.251   3.219  0.00  0.00    -0.830 A 
ATOM     19  C   LIG    1        3.640   5.459   3.115  0.00  0.00    +0.220 A 
ATOM     20  N   LIG    1        3.085   6.275   4.035  0.00  0.00    -0.360 N 
ATOM     21  N   LIG    1        2.117   5.541   4.734  0.00  0.00    -0.290 NA
ATOM     22  C   LIG    1        3.435   7.679   4.266  0.00  0.00    +0.360 C 
ATOM     23  C   LIG    1        4.730   5.829   2.142  0.00  0.00    +0.160 C 
ATOM     24  C   LIG    1        2.092   4.328   4.245  0.00  0.00    +0.340 A 
ENDBRANCH  15  18
ENDBRANCH   4  15
BRANCH   1  26
ATOM     25  C   LIG    1        3.383   6.743  -1.504  0.00  0.00    +0.210 C 
ATOM     26  O   LIG    1        2.580   5.722  -0.909  0.00  0.00    -0.370 OA
ENDBRANCH   1  26
TORSDOF 5
