REMARK  Name = ZINCpe00000FUlIN.1
REMARK                            x       y       z     vdW  Elec       q    Type
REMARK                         _______ _______ _______ _____ _____    ______ ____
ROOT
ATOM      1  C   LIG    1       -1.887   1.607  -0.963  0.00  0.00    +0.170 C 
ATOM      2  C   LIG    1       -0.414   1.274  -1.323  0.00  0.00    +0.090 C 
ATOM      3  C   LIG    1        0.210   0.940   0.048  0.00  0.00    +0.360 C 
ATOM      4  N   LIG    1       -0.624   1.577   1.078  0.00  0.00    -1.000 NA
ATOM      5  C   LIG    1       -1.720   2.307   0.409  0.00  0.00    +0.270 C 
ENDROOT
BRANCH   3   6
ATOM      6  C   LIG    1        1.614   1.482   0.117  0.00  0.00    +0.220 A 
ATOM      7  N   LIG    1        1.936   2.743   0.250  0.00  0.00    -0.300 NA
ATOM      8  N   LIG    1        3.339   2.803   0.273  0.00  0.00    -0.480 N 
ATOM      9  H   LIG    1        3.885   3.599   0.364  0.00  0.00    +0.440 HD
ATOM     10  C   LIG    1        3.774   1.538   0.140  0.00  0.00    +0.320 A 
ATOM     11  N   LIG    1        2.729   0.756   0.047  0.00  0.00    -0.520 NA
BRANCH  10  12
ATOM     12  C   LIG    1        5.215   1.097   0.103  0.00  0.00    +0.050 C 
ATOM     13  C   LIG    1        6.216   1.882   0.954  0.00  0.00    +0.050 C 
ATOM     14  C   LIG    1        6.223   2.032  -0.569  0.00  0.00    +0.050 C 
ENDBRANCH  10  12
ENDBRANCH   3   6
BRANCH   4  15
ATOM     15  S   LIG    1       -0.375   1.486   2.712  0.00  0.00    +2.740 S 
ATOM     16  O   LIG    1       -1.125   2.545   3.291  0.00  0.00    -0.960 OA
ATOM     17  O   LIG    1        1.026   1.335   2.897  0.00  0.00    -0.950 OA
BRANCH  15  18
ATOM     18  C   LIG    1       -1.115  -0.012   3.271  0.00  0.00    -0.820 A 
ATOM     19  C   LIG    1       -2.438  -0.298   3.261  0.00  0.00    +0.210 A 
ATOM     20  N   LIG    1       -2.594  -1.539   3.769  0.00  0.00    -0.360 N 
ATOM     21  N   LIG    1       -1.325  -2.031   4.102  0.00  0.00    -0.290 NA
ATOM     22  C   LIG    1       -3.865  -2.246   3.941  0.00  0.00    +0.360 C 
ATOM     23  C   LIG    1       -3.539   0.606   2.770  0.00  0.00    +0.160 C 
ATOM     24  C   LIG    1       -0.439  -1.117   3.797  0.00  0.00    +0.340 A 
ENDBRANCH  15  18
ENDBRANCH   4  15
BRANCH   1  26
ATOM     25  C   LIG    1       -4.043   0.584  -1.181  0.00  0.00    +0.200 C 
ATOM     26  O   LIG    1       -2.665   0.415  -0.840  0.00  0.00    -0.370 OA
ENDBRANCH   1  26
TORSDOF 5
