REMARK  Name = ZINCvU00000008aW.0
REMARK                            x       y       z     vdW  Elec       q    Type
REMARK                         _______ _______ _______ _____ _____    ______ ____
ROOT
ATOM      1  C   LIG    1       -3.690  -2.225   0.393  0.00  0.00    -0.070 A 
ATOM      2  C   LIG    1       -3.666  -0.852   0.207  0.00  0.00    -0.010 A 
ATOM      3  C   LIG    1       -2.469  -0.164   0.157  0.00  0.00    +0.080 A 
ATOM      4  C   LIG    1       -1.254  -0.835   0.294  0.00  0.00    -0.060 A 
ATOM      5  C   LIG    1        0.013  -0.089   0.240  0.00  0.00    +0.010 A 
ATOM      6  C   LIG    1        0.013   1.294   0.051  0.00  0.00    +0.010 A 
ATOM      7  C   LIG    1        1.207   1.980   0.002  0.00  0.00    +0.050 A 
ATOM      8  C   LIG    1        2.414   1.310   0.140  0.00  0.00    +0.000 A 
ATOM      9  C   LIG    1        2.439  -0.054   0.327  0.00  0.00    +0.090 A 
ATOM     10  C   LIG    1        1.240  -0.769   0.379  0.00  0.00    -0.160 A 
ATOM     11  C   LIG    1        1.246  -2.227   0.578  0.00  0.00    +0.440 C 
ATOM     12  C   LIG    1       -0.036  -2.945   0.628  0.00  0.00    -0.160 A 
ATOM     13  C   LIG    1       -0.066  -4.324   0.817  0.00  0.00    +0.120 A 
ATOM     14  C   LIG    1       -1.274  -4.999   0.863  0.00  0.00    +0.010 A 
ATOM     15  C   LIG    1       -2.468  -4.324   0.726  0.00  0.00    +0.080 A 
ATOM     16  O   LIG    1        2.297  -2.829   0.700  0.00  0.00    -0.450 OA
ATOM     17  C   LIG    1       -1.248  -2.232   0.485  0.00  0.00    +0.020 A 
ATOM     18  C   LIG    1       -2.475  -2.936   0.536  0.00  0.00    -0.050 A 
ENDROOT
BRANCH   1  19
ATOM     19  S   LIG    1       -5.228  -3.082   0.452  0.00  0.00    +0.010 S 
BRANCH  19  20
ATOM     20  C   LIG    1       -6.369  -1.697   0.219  0.00  0.00    +0.090 C 
BRANCH  20  23
ATOM     21  N   LIG    1       -8.814  -1.347   0.078  0.00  0.00    -0.670 N 
ATOM     22  H   LIG    1       -8.645  -0.393   0.032  0.00  0.00    +0.420 HD
ATOM     23  C   LIG    1       -7.787  -2.206   0.235  0.00  0.00    +0.530 C 
ATOM     24  O   LIG    1       -8.005  -3.389   0.389  0.00  0.00    -0.490 OA
BRANCH  21  28
ATOM     25  C   LIG    1      -12.713  -2.787  -0.207  0.00  0.00    -0.040 A 
ATOM     26  C   LIG    1      -12.464  -1.556   0.407  0.00  0.00    +0.090 A 
ATOM     27  C   LIG    1      -11.174  -1.083   0.499  0.00  0.00    +0.000 A 
ATOM     28  C   LIG    1      -10.120  -1.829  -0.017  0.00  0.00    +0.170 A 
ATOM     29  C   LIG    1      -10.364  -3.052  -0.633  0.00  0.00    +0.030 A 
ATOM     30  C   LIG    1      -11.651  -3.534  -0.724  0.00  0.00    +0.090 A 
BRANCH  25  32
ATOM     31  N   LIG    1      -15.117  -3.675  -0.384  0.00  0.00    -0.410 NA
ATOM     32  C   LIG    1      -14.053  -3.282  -0.305  0.00  0.00    +0.250 C 
ENDBRANCH  25  32
ENDBRANCH  21  28
ENDBRANCH  20  23
ENDBRANCH  19  20
ENDBRANCH   1  19
TORSDOF 5
