REMARK  Name = ZINCrH00000tj0z9.0
REMARK                            x       y       z     vdW  Elec       q    Type
REMARK                         _______ _______ _______ _____ _____    ______ ____
ROOT
ATOM      1  O   LIG    1        2.276  -4.215   0.046  0.00  0.00    -0.520 OA
ATOM      2  C   LIG    1        1.235  -4.832  -0.039  0.00  0.00    +0.510 C 
ATOM      3  N   LIG    1        0.058  -4.173  -0.023  0.00  0.00    -0.670 N 
ATOM      4  H   LIG    1       -0.775  -4.670  -0.011  0.00  0.00    +0.410 HD
ENDROOT
BRANCH   3   5
ATOM      5  C   LIG    1        0.039  -2.773  -0.024  0.00  0.00    +0.120 A 
ATOM      6  C   LIG    1       -0.949  -2.091   0.674  0.00  0.00    +0.020 A 
ATOM      7  C   LIG    1       -0.968  -0.711   0.672  0.00  0.00    +0.020 A 
ATOM      8  C   LIG    1        0.002  -0.004  -0.026  0.00  0.00    +0.150 A 
ATOM      9  C   LIG    1        0.987  -0.685  -0.728  0.00  0.00    -0.010 A 
ATOM     10  C   LIG    1        1.009  -2.066  -0.723  0.00  0.00    +0.050 A 
BRANCH   8  11
ATOM     11  N   LIG    1       -0.018   1.397  -0.028  0.00  0.00    -0.560 N 
ATOM     12  C   LIG    1        1.020   2.239  -0.635  0.00  0.00    +0.260 C 
ATOM     13  C   LIG    1        0.817   3.644  -0.028  0.00  0.00    +0.060 C 
ATOM     14  C   LIG    1       -0.683   3.613   0.347  0.00  0.00    +0.070 C 
ATOM     15  C   LIG    1       -0.993   2.142   0.521  0.00  0.00    +0.520 C 
ATOM     16  O   LIG    1       -1.976   1.700   1.077  0.00  0.00    -0.510 OA
ENDBRANCH   8  11
ENDBRANCH   3   5
BRANCH   2  17
ATOM     17  C   LIG    1        1.256  -6.333  -0.162  0.00  0.00    +0.300 C 
BRANCH  17  18
ATOM     18  N   LIG    1        2.644  -6.804  -0.155  0.00  0.00    -0.740 N 
ATOM     19  H   LIG    1        3.371  -6.167  -0.079  0.00  0.00    +0.410 HD
BRANCH  18  20
ATOM     20  C   LIG    1        2.918  -8.169  -0.259  0.00  0.00    +0.220 A 
ATOM     21  C   LIG    1        1.875  -9.076  -0.367  0.00  0.00    -0.090 A 
ATOM     22  C   LIG    1        2.150 -10.426  -0.470  0.00  0.00    +0.050 A 
ATOM     23  C   LIG    1        3.458 -10.863  -0.461  0.00  0.00    -0.060 A 
ATOM     24  C   LIG    1        4.508  -9.959  -0.349  0.00  0.00    -0.030 A 
ATOM     25  C   LIG    1        5.910 -10.511  -0.330  0.00  0.00    +0.070 C 
ATOM     26  C   LIG    1        6.923  -9.411  -0.656  0.00  0.00    +0.020 C 
ATOM     27  C   LIG    1        6.647  -8.220   0.269  0.00  0.00    +0.020 C 
ATOM     28  C   LIG    1        5.329  -7.576  -0.155  0.00  0.00    +0.060 C 
ATOM     29  C   LIG    1        4.242  -8.613  -0.258  0.00  0.00    -0.140 A 
ENDBRANCH  18  20
ENDBRANCH  17  18
ENDBRANCH   2  17
TORSDOF 5
