REMARK  Name = ZINCvU00000004WL.0
REMARK                            x       y       z     vdW  Elec       q    Type
REMARK                         _______ _______ _______ _____ _____    ______ ____
ROOT
ATOM      1  C   LIG    1        0.021   2.125   5.746  0.00  0.00    +0.490 A 
ATOM      2  C   LIG    1        1.123   2.979   5.994  0.00  0.00    -0.230 A 
ATOM      3  C   LIG    1        2.209   2.862   6.960  0.00  0.00    -0.020 A 
ATOM      4  C   LIG    1        3.090   3.860   6.921  0.00  0.00    -0.020 A 
ATOM      5  S   LIG    1        2.666   5.037   5.692  0.00  0.00    +0.180 S 
ATOM      6  C   LIG    1        1.236   4.133   5.217  0.00  0.00    +0.120 A 
ATOM      7  N   LIG    1        0.309   4.380   4.282  0.00  0.00    -0.510 NA
ATOM      8  C   LIG    1       -0.695   3.557   4.089  0.00  0.00    +0.390 A 
ATOM      9  N   LIG    1       -0.849   2.456   4.803  0.00  0.00    -0.580 NA
ENDROOT
BRANCH   3  10
ATOM     10  C   LIG    1        2.322   1.728   7.907  0.00  0.00    -0.040 A 
ATOM     11  C   LIG    1        2.358   1.964   9.281  0.00  0.00    +0.030 A 
ATOM     12  C   LIG    1        2.457   0.903  10.158  0.00  0.00    +0.020 A 
ATOM     13  C   LIG    1        2.534  -0.391   9.676  0.00  0.00    +0.020 A 
ATOM     14  C   LIG    1        2.505  -0.631   8.314  0.00  0.00    +0.020 A 
ATOM     15  C   LIG    1        2.399   0.421   7.428  0.00  0.00    +0.000 A 
ENDBRANCH   3  10
BRANCH   1  16
ATOM     16  N   LIG    1       -0.149   0.966   6.482  0.00  0.00    -0.700 N 
ATOM     17  H   LIG    1        0.438   0.776   7.230  0.00  0.00    +0.420 HD
BRANCH  16  18
ATOM     18  C   LIG    1       -1.217   0.026   6.132  0.00  0.00    +0.330 C 
BRANCH  18  24
ATOM     19 CL   LIG    1       -2.817  -2.130  10.591  0.00  0.00    -0.060 Cl
ATOM     20  C   LIG    1       -1.894  -2.180   9.121  0.00  0.00    -0.040 A 
ATOM     21  C   LIG    1       -1.131  -3.294   8.820  0.00  0.00    +0.040 A 
ATOM     22  C   LIG    1       -0.397  -3.332   7.650  0.00  0.00    +0.030 A 
ATOM     23  C   LIG    1       -0.428  -2.260   6.778  0.00  0.00    +0.040 A 
ATOM     24  C   LIG    1       -1.187  -1.145   7.081  0.00  0.00    -0.100 A 
ATOM     25  C   LIG    1       -1.922  -1.105   8.250  0.00  0.00    +0.040 A 
ENDBRANCH  18  24
ENDBRANCH  16  18
ENDBRANCH   1  16
BRANCH   8  26
ATOM     26  C   LIG    1       -1.710   3.883   3.024  0.00  0.00    +0.310 C 
BRANCH  26  27
ATOM     27  N   LIG    1       -1.289   3.288   1.748  0.00  0.00    -0.530 NA
ATOM     28  C   LIG    1       -1.320   1.820   1.815  0.00  0.00    +0.160 C 
ATOM     29  C   LIG    1       -0.819   1.243   0.489  0.00  0.00    +0.220 C 
ATOM     30  O   LIG    1       -1.619   1.754  -0.581  0.00  0.00    -0.380 OA
ATOM     31  C   LIG    1       -1.611   3.181  -0.676  0.00  0.00    +0.220 C 
ATOM     32  C   LIG    1       -2.121   3.777   0.639  0.00  0.00    +0.160 C 
ENDBRANCH  26  27
ENDBRANCH   8  26
TORSDOF 6
