REMARK  Name = ZINCpk000005bL8c.0
REMARK                            x       y       z     vdW  Elec       q    Type
REMARK                         _______ _______ _______ _____ _____    ______ ____
ROOT
ATOM      1  C   LIG    1        1.986   6.068   0.125  0.00  0.00    +0.310 C 
ATOM      2  N   LIG    1        1.042   7.188   0.136  0.00  0.00    -0.600 N 
ATOM      3  C   LIG    1       -0.250   6.984  -0.190  0.00  0.00    +0.590 C 
ATOM      4  O   LIG    1       -1.033   7.914  -0.182  0.00  0.00    -0.520 OA
ENDROOT
BRANCH   2   5
ATOM      5  C   LIG    1        1.502   8.530   0.502  0.00  0.00    +0.260 C 
ATOM      6  C   LIG    1        2.630   8.986  -0.445  0.00  0.00    +0.040 C 
ATOM      7  C   LIG    1        3.855   9.207   0.469  0.00  0.00    +0.200 C 
ATOM      8  N   LIG    1        3.595   8.354   1.657  0.00  0.00    -0.460 N 
ATOM      9  C   LIG    1        2.139   8.513   1.908  0.00  0.00    +0.190 C 
BRANCH   8  10
ATOM     10  C   LIG    1        4.340   8.784   2.752  0.00  0.00    +0.080 A 
ATOM     11  C   LIG    1        5.733   8.813   2.689  0.00  0.00    +0.060 A 
ATOM     12  C   LIG    1        6.433   9.246   3.800  0.00  0.00    +0.060 A 
ATOM     13  C   LIG    1        5.726   9.637   4.939  0.00  0.00    +0.170 A 
ATOM     14  N   LIG    1        4.398   9.595   4.962  0.00  0.00    -0.430 NA
ATOM     15  C   LIG    1        3.703   9.194   3.921  0.00  0.00    +0.240 A 
BRANCH  13  16
ATOM     16  C   LIG    1        6.441  10.087   6.096  0.00  0.00    +0.260 C 
ATOM     17  N   LIG    1        7.007  10.445   7.013  0.00  0.00    -0.390 NA
ENDBRANCH  13  16
ENDBRANCH   8  10
ENDBRANCH   2   5
BRANCH   3  18
ATOM     18  C   LIG    1       -0.712   5.635  -0.556  0.00  0.00    -0.240 A 
ATOM     19  C   LIG    1       -2.016   5.274  -0.741  0.00  0.00    +0.100 A 
ATOM     20  C   LIG    1       -2.204   3.963  -1.083  0.00  0.00    +0.090 A 
ATOM     21  C   LIG    1       -1.058   3.225  -1.175  0.00  0.00    -0.260 A 
ATOM     22  S   LIG    1        0.331   4.245  -0.822  0.00  0.00    +0.210 S 
BRANCH  21  23
ATOM     23  C   LIG    1       -0.994   1.797  -1.522  0.00  0.00    +0.590 C 
ATOM     24  O   LIG    1       -2.018   1.180  -1.749  0.00  0.00    -0.520 OA
ATOM     25  N   LIG    1        0.198   1.172  -1.588  0.00  0.00    -0.850 N 
ATOM     26  H   LIG    1        1.014   1.664  -1.410  0.00  0.00    +0.400 HD
ATOM     27  H   LIG    1        0.240   0.230  -1.817  0.00  0.00    +0.410 HD
ENDBRANCH  21  23
ENDBRANCH   3  18
TORSDOF 5
