REMARK  Name = ZINCvU0000000EPI.0
REMARK                            x       y       z     vdW  Elec       q    Type
REMARK                         _______ _______ _______ _____ _____    ______ ____
ROOT
ATOM      1  C   LIG    1        8.430   1.533   0.301  0.00  0.00    +0.170 A 
ATOM      2  C   LIG    1        8.506   2.918   0.297  0.00  0.00    -0.080 A 
ATOM      3  C   LIG    1        9.732   3.543   0.414  0.00  0.00    +0.120 A 
ATOM      4  C   LIG    1       10.890   2.784   0.525  0.00  0.00    -0.200 A 
ATOM      5  C   LIG    1       10.813   1.397   0.523  0.00  0.00    +0.120 A 
ATOM      6  C   LIG    1        9.586   0.774   0.411  0.00  0.00    -0.020 A 
ENDROOT
BRANCH   1   7
ATOM      7  O   LIG    1        7.222   0.918   0.190  0.00  0.00    -0.290 OA
BRANCH   7   8
ATOM      8  C   LIG    1        6.073   1.761   0.080  0.00  0.00    +0.180 C 
BRANCH   8   9
ATOM      9  C   LIG    1        4.816   0.897  -0.034  0.00  0.00    +0.230 C 
BRANCH   9  10
ATOM     10  O   LIG    1        4.858   0.153  -1.253  0.00  0.00    -0.540 OA
ATOM     11  H   LIG    1        4.899   0.703  -2.048  0.00  0.00    +0.380 HD
ENDBRANCH   9  10
BRANCH   9  12
ATOM     12  C   LIG    1        3.577   1.795  -0.027  0.00  0.00    +0.180 C 
BRANCH  12  13
ATOM     13  O   LIG    1        2.401   0.984  -0.015  0.00  0.00    -0.300 OA
BRANCH  13  14
ATOM     14  C   LIG    1        1.205   1.631  -0.008  0.00  0.00    +0.120 A 
ATOM     15  C   LIG    1        0.023   0.905   0.003  0.00  0.00    +0.020 A 
ATOM     16  C   LIG    1       -1.191   1.564   0.004  0.00  0.00    +0.040 A 
ATOM     17  C   LIG    1       -1.229   2.948   0.006  0.00  0.00    +0.060 A 
ATOM     18  C   LIG    1       -0.050   3.674  -0.004  0.00  0.00    +0.030 A 
ATOM     19  F   LIG    1       -2.417   3.591   0.012  0.00  0.00    -0.140 F 
ATOM     20  C   LIG    1        1.166   3.017  -0.012  0.00  0.00    -0.040 A 
ENDBRANCH  13  14
ENDBRANCH  12  13
ENDBRANCH   9  12
ENDBRANCH   8   9
ENDBRANCH   7   8
ENDBRANCH   1   7
BRANCH   4  21
ATOM     21  S   LIG    1       12.455   3.581   0.669  0.00  0.00    +0.040 S 
BRANCH  21  22
ATOM     22  C   LIG    1       12.953   3.584  -1.022  0.00  0.00    -0.050 A 
ATOM     23  C   LIG    1       12.096   3.145  -2.021  0.00  0.00    -0.040 A 
ATOM     24  C   LIG    1       12.516   3.165  -3.343  0.00  0.00    +0.310 A 
ATOM     25  N   LIG    1       13.713   3.581  -3.685  0.00  0.00    -0.480 NA
ATOM     26  C   LIG    1       14.594   4.014  -2.774  0.00  0.00    +0.150 A 
ATOM     27  C   LIG    1       15.872   4.454  -3.156  0.00  0.00    +0.070 A 
ATOM     28  C   LIG    1       16.749   4.889  -2.207  0.00  0.00    -0.010 A 
ATOM     29  C   LIG    1       16.398   4.903  -0.859  0.00  0.00    +0.030 A 
ATOM     30  C   LIG    1       15.167   4.483  -0.453  0.00  0.00    +0.060 A 
ATOM     31 CL   LIG    1       18.326   5.432  -2.686  0.00  0.00    -0.060 Cl
ATOM     32  C   LIG    1       14.242   4.030  -1.403  0.00  0.00    -0.090 A 
ENDBRANCH  21  22
ENDBRANCH   4  21
TORSDOF 9
