REMARK  Name = ZINCpk000000lmz7.0
REMARK                            x       y       z     vdW  Elec       q    Type
REMARK                         _______ _______ _______ _____ _____    ______ ____
ROOT
ATOM      1  C   LIG    1        4.034   6.269  -2.614  0.00  0.00    +0.500 C 
ATOM      2  N   LIG    1        3.538   5.819  -1.444  0.00  0.00    -0.720 N 
ATOM      3  H   LIG    1        3.910   6.135  -0.606  0.00  0.00    +0.410 HD
ATOM      4  O   LIG    1        3.568   5.874  -3.662  0.00  0.00    -0.520 OA
ENDROOT
BRANCH   1   5
ATOM      5  C   LIG    1        5.165   7.264  -2.619  0.00  0.00    +0.360 C 
BRANCH   5  10
ATOM      6  O   LIG    1        6.519   8.422  -7.717  0.00  0.00    -0.510 OA
ATOM      7  C   LIG    1        6.208   8.168  -6.567  0.00  0.00    +0.550 A 
ATOM      8  C   LIG    1        5.225   8.942  -5.905  0.00  0.00    -0.120 A 
ATOM      9  C   LIG    1        4.898   8.639  -4.631  0.00  0.00    +0.360 A 
ATOM     10  N   LIG    1        5.519   7.594  -4.002  0.00  0.00    -0.520 N 
ATOM     11  C   LIG    1        6.456   6.869  -4.641  0.00  0.00    +0.700 A 
ATOM     12  O   LIG    1        6.999   5.948  -4.062  0.00  0.00    -0.540 OA
ATOM     13  N   LIG    1        6.797   7.146  -5.913  0.00  0.00    -0.660 N 
ATOM     14  H   LIG    1        7.472   6.612  -6.360  0.00  0.00    +0.430 HD
ENDBRANCH   5  10
ENDBRANCH   1   5
BRANCH   2  15
ATOM     15  C   LIG    1        2.438   4.852  -1.439  0.00  0.00    +0.280 C 
BRANCH  15  16
ATOM     16  C   LIG    1        2.068   4.508   0.006  0.00  0.00    +0.150 C 
BRANCH  16  17
ATOM     17  C   LIG    1        0.936   3.513   0.011  0.00  0.00    +0.050 A 
ATOM     18  N   LIG    1        1.080   2.231   0.004  0.00  0.00    -0.460 NA
ATOM     19  C   LIG    1       -0.018   1.503   0.010  0.00  0.00    +0.080 A 
ATOM     20  C   LIG    1       -1.152   2.210   0.019  0.00  0.00    -0.070 A 
ATOM     21  S   LIG    1       -0.724   3.920   0.029  0.00  0.00    +0.130 S 
BRANCH  19  22
ATOM     22  C   LIG    1        0.002  -0.004   0.002  0.00  0.00    +0.080 C 
ATOM     23  C   LIG    1       -1.180  -0.526  -0.817  0.00  0.00    +0.020 C 
ATOM     24  C   LIG    1       -1.159  -2.055  -0.826  0.00  0.00    +0.010 C 
ATOM     25  C   LIG    1       -1.265  -2.575   0.609  0.00  0.00    +0.000 C 
ATOM     26  C   LIG    1       -0.083  -2.053   1.429  0.00  0.00    +0.000 C 
ATOM     27  C   LIG    1       -0.104  -0.523   1.437  0.00  0.00    +0.010 C 
ENDBRANCH  19  22
ENDBRANCH  16  17
ENDBRANCH  15  16
ENDBRANCH   2  15
TORSDOF 6
