REMARK  Name = ZINC660000003Zik.0
REMARK                            x       y       z     vdW  Elec       q    Type
REMARK                         _______ _______ _______ _____ _____    ______ ____
ROOT
ATOM      1  C   LIG    1       -0.718   1.572   1.248  0.00  0.00    +0.510 C 
ATOM      2  O   LIG    1       -1.085   2.725   1.324  0.00  0.00    -0.520 OA
ATOM      3  N   LIG    1       -0.941   0.725   2.272  0.00  0.00    -0.850 N 
ATOM      4  H   LIG    1       -1.395   1.038   3.070  0.00  0.00    +0.410 HD
ATOM      5  H   LIG    1       -0.647  -0.198   2.211  0.00  0.00    +0.400 HD
ENDROOT
BRANCH   1   7
ATOM      6  C   LIG    1       -0.753   1.593  -1.232  0.00  0.00    +0.090 C 
ATOM      7  C   LIG    1       -0.013   1.086   0.008  0.00  0.00    +0.090 C 
ATOM      8 CL   LIG    1        1.679   1.710  -0.005  0.00  0.00    -0.140 Cl
ENDBRANCH   1   7
TORSDOF 1
