REMARK  Name = ZINCvU0000000Cgs.0
REMARK                            x       y       z     vdW  Elec       q    Type
REMARK                         _______ _______ _______ _____ _____    ______ ____
ROOT
ATOM      1  C   LIG    1        0.335   8.149  -0.514  0.00  0.00    +0.510 C 
ATOM      2  N   LIG    1       -0.860   7.558  -0.314  0.00  0.00    -0.670 N 
ATOM      3  H   LIG    1       -1.661   8.100  -0.236  0.00  0.00    +0.410 HD
ATOM      4  O   LIG    1        1.347   7.479  -0.531  0.00  0.00    -0.500 OA
ENDROOT
BRANCH   2   5
ATOM      5  C   LIG    1       -0.945   6.163  -0.219  0.00  0.00    +0.110 A 
ATOM      6  C   LIG    1        0.080   5.444   0.382  0.00  0.00    +0.070 A 
ATOM      7  C   LIG    1       -0.005   4.069   0.475  0.00  0.00    +0.020 A 
ATOM      8  C   LIG    1       -1.113   3.406  -0.033  0.00  0.00    +0.120 A 
ATOM      9  C   LIG    1       -2.134   4.123  -0.638  0.00  0.00    -0.040 A 
ATOM     10  C   LIG    1       -2.054   5.499  -0.727  0.00  0.00    +0.030 A 
BRANCH   8  11
ATOM     11  O   LIG    1       -1.194   2.052   0.059  0.00  0.00    -0.250 OA
BRANCH  11  12
ATOM     12  C   LIG    1       -2.243   1.434  -0.546  0.00  0.00    +0.090 A 
ATOM     13  C   LIG    1       -3.345   1.045   0.202  0.00  0.00    +0.030 A 
ATOM     14  C   LIG    1       -4.408   0.412  -0.414  0.00  0.00    +0.040 A 
ATOM     15  C   LIG    1       -4.374   0.166  -1.774  0.00  0.00    +0.040 A 
ATOM     16  C   LIG    1       -3.277   0.552  -2.522  0.00  0.00    +0.040 A 
ATOM     17  C   LIG    1       -2.212   1.186  -1.912  0.00  0.00    -0.050 A 
ATOM     18 CL   LIG    1       -0.835   1.672  -2.852  0.00  0.00    -0.050 Cl
ENDBRANCH  11  12
ENDBRANCH   8  11
ENDBRANCH   2   5
BRANCH   1  19
ATOM     19  C   LIG    1        0.414   9.640  -0.717  0.00  0.00    +0.270 C 
BRANCH  19  20
ATOM     20  O   LIG    1        1.800  10.029  -0.910  0.00  0.00    -0.320 OA
BRANCH  20  21
ATOM     21  C   LIG    1        2.046  11.339  -1.106  0.00  0.00    +0.510 C 
ATOM     22  O   LIG    1        1.128  12.134  -1.116  0.00  0.00    -0.490 OA
BRANCH  21  28
ATOM     23  C   LIG    1        3.690  13.165  -1.514  0.00  0.00    -0.410 A 
ATOM     24  C   LIG    1        4.986  13.596  -1.703  0.00  0.00    +0.070 A 
ATOM     25  C   LIG    1        6.030  12.687  -1.692  0.00  0.00    +0.050 A 
ATOM     26  C   LIG    1        5.781  11.341  -1.491  0.00  0.00    +0.040 A 
ATOM     27  C   LIG    1        4.489  10.897  -1.295  0.00  0.00    +0.080 A 
ATOM     28  C   LIG    1        3.432  11.808  -1.310  0.00  0.00    -0.060 A 
BRANCH  23  29
ATOM     29  S   LIG    1        2.363  14.324  -1.528  0.00  0.00    +1.360 S 
ATOM     30  O   LIG    1        3.019  15.564  -1.304  0.00  0.00    -0.860 OA
BRANCH  29  32
ATOM     31  C   LIG    1        0.604  15.218  -3.423  0.00  0.00    +0.070 C 
ATOM     32  C   LIG    1        1.776  14.252  -3.243  0.00  0.00    -0.260 C 
ENDBRANCH  29  32
ENDBRANCH  23  29
ENDBRANCH  21  28
ENDBRANCH  20  21
ENDBRANCH  19  20
ENDBRANCH   1  19
TORSDOF 9
