REMARK  Name = ZINCnE000005uieO.0
REMARK                            x       y       z     vdW  Elec       q    Type
REMARK                         _______ _______ _______ _____ _____    ______ ____
ROOT
ATOM      1  N   LIG    1        1.813  -2.321  -1.404  0.00  0.00    -0.750 N 
ATOM      2  H   LIG    1        1.540  -1.742  -2.132  0.00  0.00    +0.400 HD
ENDROOT
BRANCH   1   6
ATOM      3  C   LIG    1        3.075  -6.209  -2.195  0.00  0.00    -0.080 A 
ATOM      4  C   LIG    1        2.685  -5.385  -3.235  0.00  0.00    +0.050 A 
ATOM      5  C   LIG    1        2.266  -4.095  -2.976  0.00  0.00    -0.070 A 
ATOM      6  C   LIG    1        2.236  -3.625  -1.669  0.00  0.00    +0.190 A 
ATOM      7  C   LIG    1        2.633  -4.454  -0.627  0.00  0.00    -0.070 A 
ATOM      8  C   LIG    1        3.046  -5.745  -0.892  0.00  0.00    +0.040 A 
BRANCH   3  11
ATOM      9  C   LIG    1        4.954  -7.996  -2.064  0.00  0.00    -0.100 C 
ATOM     10  C   LIG    1        3.756  -8.543  -1.285  0.00  0.00    +0.020 C 
ATOM     11  C   LIG    1        3.531  -7.616  -2.481  0.00  0.00    +0.010 C 
BRANCH   9  13
ATOM     12  O   LIG    1        6.891  -8.782  -3.171  0.00  0.00    -0.700 OA
ATOM     13  C   LIG    1        5.705  -8.957  -2.950  0.00  0.00    +0.520 C 
ATOM     14  O   LIG    1        5.127  -9.909  -3.445  0.00  0.00    -0.700 OA
ENDBRANCH   9  13
ENDBRANCH   3  11
ENDBRANCH   1   6
BRANCH   1  15
ATOM     15  C   LIG    1        1.782  -1.827  -0.025  0.00  0.00    +0.350 C 
BRANCH  15  16
ATOM     16  C   LIG    1        1.292  -0.402  -0.012  0.00  0.00    +0.070 A 
ATOM     17  C   LIG    1        2.066   0.708  -0.014  0.00  0.00    -0.090 A 
ATOM     18  C   LIG    1        1.220   1.822   0.000  0.00  0.00    +0.090 A 
ATOM     19  N   LIG    1       -0.017   1.397   0.010  0.00  0.00    -0.290 NA
ATOM     20  N   LIG    1        0.002  -0.004   0.002  0.00  0.00    -0.470 N 
ATOM     21  H   LIG    1       -0.774  -0.585   0.007  0.00  0.00    +0.440 HD
BRANCH  18  22
ATOM     22  C   LIG    1        1.659   3.264   0.004  0.00  0.00    +0.060 C 
ATOM     23  C   LIG    1        3.142   3.458  -0.354  0.00  0.00    +0.030 C 
ATOM     24  C   LIG    1        3.183   4.536   0.744  0.00  0.00    +0.010 C 
ATOM     25  C   LIG    1        2.005   3.799   1.403  0.00  0.00    +0.020 C 
ENDBRANCH  18  22
ENDBRANCH  15  16
ENDBRANCH   1  15
TORSDOF 6
