REMARK  Name = ZINCnE000005uieO.1
REMARK                            x       y       z     vdW  Elec       q    Type
REMARK                         _______ _______ _______ _____ _____    ______ ____
ROOT
ATOM      1  N   LIG    1       -6.112   5.852  -0.838  0.00  0.00    -0.750 N 
ATOM      2  H   LIG    1       -5.709   5.524  -1.657  0.00  0.00    +0.400 HD
ENDROOT
BRANCH   1   6
ATOM      3  C   LIG    1       -8.853   8.984  -0.975  0.00  0.00    -0.080 A 
ATOM      4  C   LIG    1       -8.279   8.518  -2.143  0.00  0.00    +0.050 A 
ATOM      5  C   LIG    1       -7.369   7.480  -2.101  0.00  0.00    -0.070 A 
ATOM      6  C   LIG    1       -7.031   6.903  -0.884  0.00  0.00    +0.200 A 
ATOM      7  C   LIG    1       -7.614   7.370   0.288  0.00  0.00    -0.070 A 
ATOM      8  C   LIG    1       -8.519   8.412   0.239  0.00  0.00    +0.040 A 
BRANCH   3  11
ATOM      9  C   LIG    1      -11.255   9.846  -0.496  0.00  0.00    -0.100 C 
ATOM     10  C   LIG    1      -10.293  10.723   0.308  0.00  0.00    +0.020 C 
ATOM     11  C   LIG    1       -9.845  10.117  -1.024  0.00  0.00    +0.010 C 
BRANCH   9  13
ATOM     12  O   LIG    1      -13.444   9.927  -1.389  0.00  0.00    -0.700 OA
ATOM     13  C   LIG    1      -12.402  10.530  -1.193  0.00  0.00    +0.520 C 
ATOM     14  O   LIG    1      -12.290  11.687  -1.561  0.00  0.00    -0.700 OA
ENDBRANCH   9  13
ENDBRANCH   3  11
ENDBRANCH   1   6
BRANCH   1  15
ATOM     15  C   LIG    1       -5.757   5.245   0.447  0.00  0.00    +0.360 C 
BRANCH  15  16
ATOM     16  C   LIG    1       -4.755   4.143   0.222  0.00  0.00    +0.060 A 
ATOM     17  N   LIG    1       -5.034   2.904  -0.093  0.00  0.00    -0.270 NA
ATOM     18  N   LIG    1       -3.829   2.200  -0.212  0.00  0.00    -0.470 N 
ATOM     19  H   LIG    1       -3.736   1.261  -0.438  0.00  0.00    +0.440 HD
ATOM     20  C   LIG    1       -2.819   3.058   0.043  0.00  0.00    +0.100 A 
ATOM     21  C   LIG    1       -3.365   4.266   0.319  0.00  0.00    -0.100 A 
BRANCH  20  22
ATOM     22  C   LIG    1       -1.349   2.730   0.028  0.00  0.00    +0.070 C 
ATOM     23  C   LIG    1       -0.959   1.695  -1.040  0.00  0.00    +0.020 C 
ATOM     24  C   LIG    1       -0.013   1.086   0.008  0.00  0.00    +0.020 C 
ATOM     25  C   LIG    1       -0.939   1.683   1.080  0.00  0.00    +0.030 C 
ENDBRANCH  20  22
ENDBRANCH  15  16
ENDBRANCH   1  15
TORSDOF 6
