REMARK  Name = ZINCqH0000007OLx.0
REMARK                            x       y       z     vdW  Elec       q    Type
REMARK                         _______ _______ _______ _____ _____    ______ ____
ROOT
ATOM      1  N   LIG    1       -1.191   1.867   0.018  0.00  0.00    -0.730 N 
ATOM      2  H   LIG    1       -1.204   2.837   0.023  0.00  0.00    +0.400 HD
ATOM      3  C   LIG    1       -0.014   1.209   0.009  0.00  0.00    +0.510 C 
ATOM      4  O   LIG    1        0.002  -0.004   0.002  0.00  0.00    -0.530 OA
ENDROOT
BRANCH   1   5
ATOM      5  C   LIG    1       -2.449   1.117   0.020  0.00  0.00    +0.270 C 
BRANCH   5   6
ATOM      6  C   LIG    1       -3.626   2.095   0.031  0.00  0.00    +0.080 C 
BRANCH   6  12
ATOM      7  C   LIG    1       -5.455   0.867   1.229  0.00  0.00    +0.130 A 
ATOM      8  C   LIG    1       -6.650   0.163   1.228  0.00  0.00    -0.080 A 
ATOM      9  C   LIG    1       -7.299  -0.092   0.035  0.00  0.00    +0.050 A 
ATOM     10  C   LIG    1       -6.761   0.359  -1.156  0.00  0.00    -0.030 A 
ATOM     11  C   LIG    1       -5.573   1.066  -1.157  0.00  0.00    +0.050 A 
ATOM     12  C   LIG    1       -4.920   1.324   0.033  0.00  0.00    -0.120 A 
BRANCH   7  14
ATOM     13  C   LIG    1       -5.420   0.615   3.593  0.00  0.00    +0.250 C 
ATOM     14  O   LIG    1       -4.811   1.115   2.400  0.00  0.00    -0.310 OA
ENDBRANCH   7  14
ENDBRANCH   6  12
ENDBRANCH   5   6
ENDBRANCH   1   5
BRANCH   3  15
ATOM     15  C   LIG    1        1.280   1.980   0.001  0.00  0.00    +0.120 C 
BRANCH  15  16
ATOM     16  C   LIG    1        2.439   1.016  -0.016  0.00  0.00    -0.120 A 
ATOM     17  C   LIG    1        2.979   0.577   1.159  0.00  0.00    -0.010 A 
ATOM     18  C   LIG    1        4.058  -0.326   1.098  0.00  0.00    -0.100 A 
ATOM     19  C   LIG    1        4.661  -0.824   2.263  0.00  0.00    +0.040 A 
ATOM     20  C   LIG    1        5.705  -1.692   2.162  0.00  0.00    +0.010 A 
ATOM     21  C   LIG    1        6.183  -2.093   0.916  0.00  0.00    +0.030 A 
ATOM     22  C   LIG    1        5.622  -1.630  -0.234  0.00  0.00    +0.040 A 
ATOM     23  C   LIG    1        4.542  -0.733  -0.170  0.00  0.00    +0.140 A 
ATOM     24  N   LIG    1        3.970  -0.261  -1.283  0.00  0.00    -0.480 NA
ATOM     25  C   LIG    1        2.433   1.043   2.484  0.00  0.00    +0.120 C 
ATOM     26  C   LIG    1        2.963   0.577  -1.230  0.00  0.00    +0.180 A 
ATOM     27  C   LIG    1        2.357   1.077  -2.515  0.00  0.00    +0.120 C 
ENDBRANCH  15  16
ENDBRANCH   3  15
TORSDOF 6
