REMARK  Name = ZINCrH000004nmZm.0
REMARK                            x       y       z     vdW  Elec       q    Type
REMARK                         _______ _______ _______ _____ _____    ______ ____
ROOT
ATOM      1  N   LIG    1       -0.528   1.446   4.891  0.00  0.00    -0.380 N 
ATOM      2  N   LIG    1       -1.449   2.079   5.735  0.00  0.00    -0.270 NA
ATOM      3  C   LIG    1       -2.337   2.689   4.992  0.00  0.00    +0.240 A 
ATOM      4  C   LIG    1       -2.013   2.471   3.651  0.00  0.00    -0.110 A 
ATOM      5  C   LIG    1       -0.894   1.696   3.613  0.00  0.00    +0.300 A 
ENDROOT
BRANCH   5   6
ATOM      6  N   LIG    1       -0.242   1.246   2.466  0.00  0.00    -0.650 N 
ATOM      7  H   LIG    1        0.555   0.699   2.544  0.00  0.00    +0.410 HD
ATOM      8  C   LIG    1       -0.718   1.572   1.248  0.00  0.00    +0.520 C 
ATOM      9  O   LIG    1       -1.715   2.256   1.150  0.00  0.00    -0.490 OA
BRANCH   8  10
ATOM     10  C   LIG    1       -0.013   1.086   0.008  0.00  0.00    +0.120 C 
BRANCH  10  11
ATOM     11  C   LIG    1       -0.742   1.585  -1.213  0.00  0.00    -0.070 A 
ATOM     12  C   LIG    1       -1.750   0.824  -1.775  0.00  0.00    +0.040 A 
ATOM     13  C   LIG    1       -2.422   1.284  -2.892  0.00  0.00    +0.030 A 
ATOM     14  C   LIG    1       -2.078   2.500  -3.454  0.00  0.00    -0.030 A 
ATOM     15  C   LIG    1       -1.065   3.259  -2.894  0.00  0.00    +0.030 A 
ATOM     16 CL   LIG    1       -2.917   3.075  -4.861  0.00  0.00    -0.070 Cl
ATOM     17  C   LIG    1       -0.398   2.801  -1.774  0.00  0.00    +0.040 A 
ENDBRANCH  10  11
ENDBRANCH   8  10
ENDBRANCH   5   6
BRANCH   1  18
ATOM     18  C   LIG    1        0.628   0.653   5.317  0.00  0.00    +0.390 C 
BRANCH  18  23
ATOM     19  C   LIG    1        3.145   3.076   6.774  0.00  0.00    +0.110 A 
ATOM     20  C   LIG    1        4.037   3.206   5.722  0.00  0.00    -0.050 A 
ATOM     21  C   LIG    1        3.824   2.511   4.545  0.00  0.00    +0.050 A 
ATOM     22  C   LIG    1        2.725   1.682   4.418  0.00  0.00    -0.010 A 
ATOM     23  C   LIG    1        1.828   1.553   5.462  0.00  0.00    -0.100 A 
ATOM     24  C   LIG    1        2.036   2.246   6.643  0.00  0.00    +0.100 A 
BRANCH  19  26
ATOM     25  C   LIG    1        4.512   4.592   7.994  0.00  0.00    +0.240 C 
ATOM     26  O   LIG    1        3.353   3.759   7.932  0.00  0.00    -0.300 OA
ENDBRANCH  19  26
BRANCH  24  27
ATOM     27  O   LIG    1        1.157   2.115   7.673  0.00  0.00    -0.310 OA
ATOM     28  C   LIG    1        1.415   1.076   8.619  0.00  0.00    +0.230 C 
ENDBRANCH  24  27
ENDBRANCH  18  23
ENDBRANCH   1  18
TORSDOF 7
