REMARK  Name = ZINCkj000005g16A.0
REMARK                            x       y       z     vdW  Elec       q    Type
REMARK                         _______ _______ _______ _____ _____    ______ ____
ROOT
ATOM      1  N   LIG    1       -0.142   1.025  -2.433  0.00  0.00    -0.730 N 
ATOM      2  H   LIG    1        0.616   0.425  -2.355  0.00  0.00    +0.400 HD
ATOM      3  C   LIG    1       -0.633   1.334  -3.650  0.00  0.00    +0.600 C 
ATOM      4  O   LIG    1       -1.585   2.086  -3.749  0.00  0.00    -0.510 OA
ENDROOT
BRANCH   3   5
ATOM      5  C   LIG    1       -0.021   0.764  -4.855  0.00  0.00    -0.290 A 
ATOM      6  C   LIG    1       -0.431   1.000  -6.118  0.00  0.00    +0.170 A 
ATOM      7  C   LIG    1        0.323   0.341  -7.081  0.00  0.00    -0.160 A 
ATOM      8  C   LIG    1        1.331  -0.428  -6.570  0.00  0.00    -0.010 A 
ATOM      9  S   LIG    1        1.353  -0.332  -4.867  0.00  0.00    +0.240 S 
BRANCH   7  10
ATOM     10  C   LIG    1        0.056   0.456  -8.526  0.00  0.00    +0.580 C 
ATOM     11  O   LIG    1       -0.856   1.156  -8.921  0.00  0.00    -0.530 OA
ATOM     12  N   LIG    1        0.823  -0.214  -9.408  0.00  0.00    -0.850 N 
ATOM     13  H   LIG    1        0.647  -0.139 -10.359  0.00  0.00    +0.410 HD
ATOM     14  H   LIG    1        1.551  -0.773  -9.092  0.00  0.00    +0.400 HD
ENDBRANCH   7  10
ENDBRANCH   3   5
BRANCH   1  15
ATOM     15  C   LIG    1       -0.754   1.593  -1.230  0.00  0.00    +0.290 C 
BRANCH  15  20
ATOM     16  N   LIG    1       -0.013   1.096   2.458  0.00  0.00    -0.380 N 
ATOM     17  C   LIG    1        1.343   1.659   2.492  0.00  0.00    +0.250 C 
ATOM     18  C   LIG    1        2.133   1.167   1.278  0.00  0.00    +0.060 C 
ATOM     19  C   LIG    1        1.424   1.617  -0.003  0.00  0.00    +0.040 C 
ATOM     20  C   LIG    1       -0.013   1.086   0.008  0.00  0.00    -0.020 C 
ATOM     21  C   LIG    1       -0.724   1.580   1.269  0.00  0.00    +0.270 C 
ATOM     22  H   LIG    1        0.043   0.089   2.429  0.00  0.00    +0.420 HD
BRANCH  16  24
ATOM     23  C   LIG    1       -0.077   0.891   4.898  0.00  0.00    +0.080 C 
ATOM     24  C   LIG    1       -0.742   1.507   3.665  0.00  0.00    +0.250 C 
ENDBRANCH  16  24
ENDBRANCH  15  20
ENDBRANCH   1  15
TORSDOF 5
