REMARK  Name = ZINCkj000005g16A.1
REMARK                            x       y       z     vdW  Elec       q    Type
REMARK                         _______ _______ _______ _____ _____    ______ ____
ROOT
ATOM      1  N   LIG    1       -1.050  -2.204  -0.000  0.00  0.00    -0.730 N 
ATOM      2  H   LIG    1       -0.166  -2.601  -0.011  0.00  0.00    +0.400 HD
ATOM      3  C   LIG    1       -1.188  -0.863   0.008  0.00  0.00    +0.600 C 
ATOM      4  O   LIG    1       -2.298  -0.365   0.021  0.00  0.00    -0.510 OA
ENDROOT
BRANCH   3   5
ATOM      5  C   LIG    1        0.002  -0.004   0.002  0.00  0.00    -0.280 A 
ATOM      6  C   LIG    1       -0.016   1.345   0.009  0.00  0.00    +0.170 A 
ATOM      7  C   LIG    1        1.249   1.919   0.000  0.00  0.00    -0.160 A 
ATOM      8  C   LIG    1        2.272   1.014  -0.014  0.00  0.00    -0.010 A 
ATOM      9  S   LIG    1        1.662  -0.579  -0.017  0.00  0.00    +0.240 S 
BRANCH   7  10
ATOM     10  C   LIG    1        1.467   3.376   0.006  0.00  0.00    +0.580 C 
ATOM     11  O   LIG    1        0.516   4.134   0.019  0.00  0.00    -0.530 OA
ATOM     12  N   LIG    1        2.721   3.870  -0.003  0.00  0.00    -0.850 N 
ATOM     13  H   LIG    1        2.865   4.829   0.001  0.00  0.00    +0.410 HD
ATOM     14  H   LIG    1        3.480   3.265  -0.014  0.00  0.00    +0.400 HD
ENDBRANCH   7  10
ENDBRANCH   3   5
BRANCH   1  15
ATOM     15  C   LIG    1       -2.238  -3.062   0.006  0.00  0.00    +0.290 C 
BRANCH  15  20
ATOM     16  N   LIG    1       -2.632  -6.833  -0.135  0.00  0.00    -0.380 N 
ATOM     17  C   LIG    1       -1.989  -7.173   1.140  0.00  0.00    +0.250 C 
ATOM     18  C   LIG    1       -0.713  -6.346   1.308  0.00  0.00    +0.050 C 
ATOM     19  C   LIG    1       -1.071  -4.857   1.296  0.00  0.00    +0.040 C 
ATOM     20  C   LIG    1       -1.807  -4.530  -0.006  0.00  0.00    -0.030 C 
ATOM     21  C   LIG    1       -3.043  -5.424  -0.126  0.00  0.00    +0.280 C 
ATOM     22  H   LIG    1       -3.444  -7.418  -0.267  0.00  0.00    +0.430 HD
BRANCH  16  24
ATOM     23  C   LIG    1       -1.351  -8.549  -1.323  0.00  0.00    +0.080 C 
ATOM     24  C   LIG    1       -1.684  -7.058  -1.234  0.00  0.00    +0.240 C 
ENDBRANCH  16  24
ENDBRANCH  15  20
ENDBRANCH   1  15
TORSDOF 5
