REMARK  Name = ZINCrH00000No4Dj.0
REMARK                            x       y       z     vdW  Elec       q    Type
REMARK                         _______ _______ _______ _____ _____    ______ ____
ROOT
ATOM      1  O   LIG    1        3.582   7.364   0.009  0.00  0.00    -0.330 OA
ENDROOT
BRANCH   1   2
ATOM      2  C   LIG    1        3.604   6.014   0.008  0.00  0.00    +0.510 C 
ATOM      3  O   LIG    1        4.668   5.424   0.003  0.00  0.00    -0.520 OA
BRANCH   2   5
ATOM      4  C   LIG    1        2.411   3.934   0.013  0.00  0.00    +0.170 C 
ATOM      5  C   LIG    1        2.389   5.285   0.013  0.00  0.00    -0.090 C 
BRANCH   4   9
ATOM      6  C   LIG    1       -1.226   1.753   0.022  0.00  0.00    +0.150 A 
ATOM      7  C   LIG    1       -0.012   1.075   0.023  0.00  0.00    -0.020 A 
ATOM      8  C   LIG    1        1.172   1.778   0.018  0.00  0.00    +0.100 A 
ATOM      9  C   LIG    1        1.151   3.178   0.018  0.00  0.00    -0.130 A 
ATOM     10  C   LIG    1       -0.074   3.856   0.023  0.00  0.00    +0.090 A 
ATOM     11  C   LIG    1       -1.252   3.143   0.028  0.00  0.00    -0.090 A 
BRANCH   6  12
ATOM     12  O   LIG    1       -2.390   1.054   0.021  0.00  0.00    -0.310 OA
BRANCH  12  14
ATOM     13  C   LIG    1       -4.799   0.860   0.020  0.00  0.00    +0.070 C 
ATOM     14  C   LIG    1       -3.601   1.812   0.021  0.00  0.00    +0.190 C 
ENDBRANCH  12  14
ENDBRANCH   6  12
ENDBRANCH   4   9
ENDBRANCH   2   5
ENDBRANCH   1   2
BRANCH   1  15
ATOM     15  C   LIG    1        4.844   8.034   0.003  0.00  0.00    +0.250 C 
BRANCH  15  16
ATOM     16  C   LIG    1        4.622   9.524   0.004  0.00  0.00    +0.520 C 
ATOM     17  N   LIG    1        5.677  10.363  -0.000  0.00  0.00    -0.670 N 
ATOM     18  H   LIG    1        6.578  10.009   0.064  0.00  0.00    +0.410 HD
ATOM     19  O   LIG    1        3.493   9.969   0.009  0.00  0.00    -0.490 OA
BRANCH  17  20
ATOM     20  C   LIG    1        5.472  11.744  -0.097  0.00  0.00    +0.140 A 
ATOM     21  C   LIG    1        4.367  12.328   0.508  0.00  0.00    +0.020 A 
ATOM     22  C   LIG    1        4.171  13.691   0.410  0.00  0.00    +0.040 A 
ATOM     23  C   LIG    1        5.071  14.478  -0.289  0.00  0.00    -0.110 A 
ATOM     24  C   LIG    1        5.078  15.972  -0.538  0.00  0.00    +0.080 C 
ATOM     25  C   LIG    1        6.053  16.180  -1.716  0.00  0.00    +0.030 C 
ATOM     26  C   LIG    1        6.994  14.964  -1.588  0.00  0.00    +0.080 C 
ATOM     27  C   LIG    1        6.173  13.899  -0.893  0.00  0.00    -0.080 A 
ATOM     28  C   LIG    1        6.376  12.534  -0.792  0.00  0.00    -0.010 A 
ENDBRANCH  17  20
ENDBRANCH  15  16
ENDBRANCH   1  15
TORSDOF 8
