REMARK  Name = ZINCrg000000sxGm.0
REMARK                            x       y       z     vdW  Elec       q    Type
REMARK                         _______ _______ _______ _____ _____    ______ ____
ROOT
ATOM      1  C   LIG    1        1.674  -0.479  -6.372  0.00  0.00    +0.130 C 
ATOM      2  C   LIG    1        0.282  -0.402  -7.002  0.00  0.00    +0.040 C 
ATOM      3  C   LIG    1       -0.778  -0.638  -5.921  0.00  0.00    +0.300 C 
ATOM      4  N   LIG    1       -0.557   0.316  -4.826  0.00  0.00    -0.630 N 
ATOM      5  C   LIG    1        0.776   0.392  -4.213  0.00  0.00    +0.290 C 
ATOM      6  C   LIG    1       -1.557   1.111  -4.396  0.00  0.00    +0.710 C 
ATOM      7  N   LIG    1       -1.316   2.051  -3.462  0.00  0.00    -0.730 N 
ATOM      8  H   LIG    1       -0.442   2.108  -3.045  0.00  0.00    +0.410 HD
ATOM      9  O   LIG    1       -2.677   0.980  -4.852  0.00  0.00    -0.590 OA
ATOM     10  C   LIG    1        1.816   0.613  -5.309  0.00  0.00    +0.040 C 
ENDROOT
BRANCH   7  11
ATOM     11  C   LIG    1       -2.374   2.989  -3.075  0.00  0.00    +0.270 C 
ATOM     12  C   LIG    1       -2.379   4.183  -4.037  0.00  0.00    +0.030 C 
ATOM     13  C   LIG    1       -0.961   4.755  -4.105  0.00  0.00    +0.070 C 
ATOM     14  C   LIG    1       -0.422   4.952  -2.717  0.00  0.00    +0.520 C 
ATOM     15  N   LIG    1       -0.937   4.362  -1.640  0.00  0.00    -0.710 N 
ATOM     16  H   LIG    1       -0.501   4.519  -0.788  0.00  0.00    +0.400 HD
ATOM     17  O   LIG    1        0.534   5.683  -2.570  0.00  0.00    -0.550 OA
ATOM     18  C   LIG    1       -2.113   3.501  -1.659  0.00  0.00    +0.240 C 
BRANCH  18  19
ATOM     19  C   LIG    1       -1.883   2.311  -0.725  0.00  0.00    +0.160 C 
ATOM     20  C   LIG    1       -1.556   2.807   0.707  0.00  0.00    +0.010 C 
ATOM     21  C   LIG    1       -0.759   1.594   1.265  0.00  0.00    +0.010 C 
ATOM     22  C   LIG    1       -0.018   1.086   0.010  0.00  0.00    +0.190 C 
ATOM     23  O   LIG    1       -0.725   1.569  -1.138  0.00  0.00    -0.370 OA
ENDBRANCH  18  19
ENDBRANCH   7  11
BRANCH   1  28
ATOM     24  C   LIG    1        5.536  -1.101  -9.498  0.00  0.00    +0.210 C 
ATOM     25  C   LIG    1        4.350  -0.530  -8.765  0.00  0.00    +0.170 A 
ATOM     26  N   LIG    1        3.806   0.632  -8.970  0.00  0.00    -0.380 NA
ATOM     27  O   LIG    1        2.864   0.792  -8.222  0.00  0.00    +0.080 OA
ATOM     28  C   LIG    1        2.720  -0.281  -7.439  0.00  0.00    +0.190 A 
ATOM     29  N   LIG    1        3.659  -1.130  -7.779  0.00  0.00    -0.480 NA
ENDBRANCH   1  28
TORSDOF 3
