REMARK  Name = ZINCpe000000UOY4.0
REMARK                            x       y       z     vdW  Elec       q    Type
REMARK                         _______ _______ _______ _____ _____    ______ ____
ROOT
ATOM      1  C   LIG    1       -0.019   1.526   0.010  0.00  0.00    -0.020 C 
ATOM      2  C   LIG    1        0.002  -0.004   0.002  0.00  0.00    +0.060 C 
ATOM      3  C   LIG    1        0.712  -0.513   1.258  0.00  0.00    +0.010 C 
ATOM      4  C   LIG    1        2.159  -0.010   1.262  0.00  0.00    +0.270 C 
ATOM      5  N   LIG    1        2.151   1.453   1.124  0.00  0.00    -0.610 N 
ATOM      6  C   LIG    1        2.803   2.229   2.011  0.00  0.00    +0.520 C 
ATOM      7  O   LIG    1        2.789   3.436   1.887  0.00  0.00    -0.530 OA
ATOM      8  C   LIG    1        1.420   2.052  -0.001  0.00  0.00    +0.290 C 
ENDROOT
BRANCH   1  11
ATOM      9  N   LIG    1       -0.889   3.351  -1.415  0.00  0.00    -0.720 N 
ATOM     10  H   LIG    1       -0.523   3.982  -0.776  0.00  0.00    +0.410 HD
ATOM     11  C   LIG    1       -0.746   2.026  -1.211  0.00  0.00    +0.530 C 
ATOM     12  O   LIG    1       -1.204   1.236  -2.010  0.00  0.00    -0.520 OA
BRANCH   9  16
ATOM     13  C   LIG    1       -2.557   7.192  -4.107  0.00  0.00    +0.300 C 
ATOM     14  N   LIG    1       -2.490   5.920  -3.383  0.00  0.00    -0.620 N 
ATOM     15  C   LIG    1       -1.248   5.314  -2.887  0.00  0.00    +0.270 C 
ATOM     16  C   LIG    1       -1.597   3.837  -2.603  0.00  0.00    +0.250 C 
ATOM     17  C   LIG    1       -3.119   3.915  -2.346  0.00  0.00    +0.050 C 
ATOM     18  C   LIG    1       -3.557   5.159  -3.088  0.00  0.00    +0.520 C 
ATOM     19  O   LIG    1       -4.704   5.428  -3.376  0.00  0.00    -0.520 OA
ENDBRANCH   9  16
ENDBRANCH   1  11
BRANCH   6  20
ATOM     20  C   LIG    1        3.550   1.599   3.159  0.00  0.00    +0.100 C 
BRANCH  20  21
ATOM     21  C   LIG    1        4.186   2.678   3.997  0.00  0.00    -0.070 A 
ATOM     22  C   LIG    1        5.467   3.110   3.711  0.00  0.00    +0.010 A 
ATOM     23  C   LIG    1        6.049   4.103   4.478  0.00  0.00    +0.000 A 
ATOM     24  C   LIG    1        5.353   4.656   5.536  0.00  0.00    +0.000 A 
ATOM     25  C   LIG    1        4.074   4.220   5.825  0.00  0.00    +0.000 A 
ATOM     26  C   LIG    1        3.490   3.231   5.056  0.00  0.00    +0.010 A 
ENDBRANCH  20  21
ENDBRANCH   6  20
TORSDOF 4
