REMARK  Name = ZINCrH00000tj1o0.0
REMARK                            x       y       z     vdW  Elec       q    Type
REMARK                         _______ _______ _______ _____ _____    ______ ____
ROOT
ATOM      1  C   LIG    1       -4.324   1.761   3.648  0.00  0.00    +0.210 C 
ATOM      2  C   LIG    1       -4.652   2.812   2.620  0.00  0.00    +0.220 A 
ATOM      3  N   LIG    1       -5.678   3.619   2.639  0.00  0.00    -0.280 NA
ATOM      4  N   LIG    1       -5.652   4.394   1.610  0.00  0.00    -0.250 NA
ATOM      5  C   LIG    1       -4.604   4.118   0.885  0.00  0.00    +0.130 A 
ATOM      6  S   LIG    1       -4.086   4.884  -0.620  0.00  0.00    +0.090 S 
ATOM      7  C   LIG    1       -2.835   3.658  -1.106  0.00  0.00    -0.020 C 
ATOM      8  C   LIG    1       -2.008   3.310   0.139  0.00  0.00    +0.270 C 
ATOM      9  N   LIG    1       -2.796   2.493   1.063  0.00  0.00    -0.430 N 
ATOM     10  H   LIG    1       -2.997   1.588   0.665  0.00  0.00    +0.370 HD
ATOM     11  N   LIG    1       -3.932   3.098   1.495  0.00  0.00    -0.300 N 
ENDROOT
BRANCH   8  12
ATOM     12  C   LIG    1       -0.778   2.546  -0.278  0.00  0.00    -0.080 A 
ATOM     13  C   LIG    1       -0.866   1.196  -0.562  0.00  0.00    +0.030 A 
ATOM     14  C   LIG    1        0.263   0.493  -0.939  0.00  0.00    +0.040 A 
ATOM     15  C   LIG    1        1.480   1.144  -1.040  0.00  0.00    -0.020 A 
ATOM     16  C   LIG    1        1.567   2.496  -0.760  0.00  0.00    +0.040 A 
ATOM     17 CL   LIG    1        2.898   0.264  -1.519  0.00  0.00    -0.060 Cl
ATOM     18  C   LIG    1        0.438   3.196  -0.380  0.00  0.00    +0.060 A 
ENDBRANCH   8  12
BRANCH   7  19
ATOM     19  C   LIG    1       -3.512   2.418  -1.631  0.00  0.00    +0.520 C 
ATOM     20  N   LIG    1       -3.134   1.893  -2.814  0.00  0.00    -0.590 N 
ATOM     21  C   LIG    1       -2.001   2.469  -3.542  0.00  0.00    +0.300 C 
ATOM     22  O   LIG    1       -4.398   1.893  -0.990  0.00  0.00    -0.530 OA
BRANCH  20  23
ATOM     23  C   LIG    1       -3.856   0.747  -3.370  0.00  0.00    +0.240 C 
ATOM     24  C   LIG    1       -2.892  -0.429  -3.543  0.00  0.00    +0.010 C 
ATOM     25  C   LIG    1       -3.647  -1.626  -4.124  0.00  0.00    +0.010 C 
ATOM     26  C   LIG    1       -4.235  -1.246  -5.484  0.00  0.00    +0.010 C 
ATOM     27  C   LIG    1       -5.199  -0.071  -5.312  0.00  0.00    +0.020 C 
ATOM     28  C   LIG    1       -4.445   1.126  -4.731  0.00  0.00    +0.010 C 
ENDBRANCH  20  23
ENDBRANCH   7  19
TORSDOF 3
