REMARK  Name = ZINCpe00000ySZSX.0
REMARK                            x       y       z     vdW  Elec       q    Type
REMARK                         _______ _______ _______ _____ _____    ______ ____
ROOT
ATOM      1  C   LIG    1       -0.019   1.526   0.010  0.00  0.00    +0.040 C 
ATOM      2  C   LIG    1        0.002  -0.004   0.002  0.00  0.00    +0.230 C 
ENDROOT
BRANCH   2   3
ATOM      3  N   LIG    1       -1.372  -0.511   0.012  0.00  0.00    -0.720 N 
ATOM      4  H   LIG    1       -1.794  -0.752   0.852  0.00  0.00    +0.400 HD
ATOM      5  C   LIG    1       -2.051  -0.643  -1.145  0.00  0.00    +0.490 C 
ATOM      6  O   LIG    1       -1.524  -0.341  -2.194  0.00  0.00    -0.520 OA
BRANCH   5   7
ATOM      7  C   LIG    1       -3.465  -1.164  -1.134  0.00  0.00    +0.280 C 
BRANCH   7   8
ATOM      8  C   LIG    1       -4.355  -0.188  -0.410  0.00  0.00    -0.110 A 
ATOM      9  C   LIG    1       -4.629  -0.367   0.933  0.00  0.00    +0.030 A 
ATOM     10  C   LIG    1       -5.445   0.529   1.598  0.00  0.00    +0.040 A 
ATOM     11  C   LIG    1       -5.987   1.605   0.921  0.00  0.00    +0.040 A 
ATOM     12  C   LIG    1       -5.713   1.785  -0.423  0.00  0.00    -0.030 A 
ATOM     13 CL   LIG    1       -6.395   3.135  -1.275  0.00  0.00    -0.060 Cl
ATOM     14  C   LIG    1       -4.893   0.891  -1.087  0.00  0.00    +0.030 A 
ENDBRANCH   7   8
BRANCH   7  15
ATOM     15  O   LIG    1       -3.924  -1.322  -2.478  0.00  0.00    -0.530 OA
ATOM     16  H   LIG    1       -3.926  -0.503  -2.991  0.00  0.00    +0.390 HD
ENDBRANCH   7  15
ENDBRANCH   5   7
ENDBRANCH   2   3
BRANCH   2  17
ATOM     17  C   LIG    1        0.742  -0.511   1.242  0.00  0.00    +0.280 C 
BRANCH  17  18
ATOM     18  N   LIG    1        0.659  -1.972   1.296  0.00  0.00    -0.730 N 
ATOM     19  H   LIG    1        0.184  -2.458   0.604  0.00  0.00    +0.400 HD
ATOM     20  C   LIG    1        1.243  -2.643   2.309  0.00  0.00    +0.520 C 
ATOM     21  O   LIG    1        1.837  -2.037   3.175  0.00  0.00    -0.540 OA
BRANCH  20  22
ATOM     22  C   LIG    1        1.158  -4.147   2.365  0.00  0.00    +0.060 C 
BRANCH  22  23
ATOM     23  C   LIG    1        1.898  -4.654   3.605  0.00  0.00    +0.190 C 
BRANCH  23  24
ATOM     24  O   LIG    1        1.817  -6.079   3.658  0.00  0.00    -0.380 OA
BRANCH  24  25
ATOM     25  C   LIG    1        2.480  -6.657   4.784  0.00  0.00    +0.120 C 
ATOM     26  C   LIG    1        3.736  -7.469   4.417  0.00  0.00    +0.210 C 
ATOM     27  O   LIG    1        3.245  -8.441   5.366  0.00  0.00    -0.370 OA
ATOM     28  C   LIG    1        1.878  -8.001   5.238  0.00  0.00    +0.230 C 
ENDBRANCH  24  25
ENDBRANCH  23  24
ENDBRANCH  22  23
ENDBRANCH  20  22
ENDBRANCH  17  18
ENDBRANCH   2  17
TORSDOF 10
