REMARK  Name = ZINCkj00000dCYIz.0
REMARK                            x       y       z     vdW  Elec       q    Type
REMARK                         _______ _______ _______ _____ _____    ______ ____
ROOT
ATOM      1  N   LIG    1       -3.150   3.374   0.064  0.00  0.00    -0.720 N 
ATOM      2  H   LIG    1       -3.779   2.636   0.069  0.00  0.00    +0.400 HD
ATOM      3  C   LIG    1       -1.825   3.131   0.044  0.00  0.00    +0.600 C 
ATOM      4  O   LIG    1       -1.037   4.056   0.037  0.00  0.00    -0.540 OA
ENDROOT
BRANCH   3   5
ATOM      5  C   LIG    1       -1.331   1.742   0.030  0.00  0.00    -0.310 A 
ATOM      6  C   LIG    1       -0.016   1.342   0.009  0.00  0.00    +0.170 A 
ATOM      7  C   LIG    1        1.214   2.214   0.002  0.00  0.00    +0.150 C 
ATOM      8  C   LIG    1        2.420   1.345   0.381  0.00  0.00    +0.030 C 
ATOM      9  C   LIG    1        2.397   0.063  -0.457  0.00  0.00    +0.040 C 
ATOM     10  C   LIG    1        1.223  -0.817  -0.015  0.00  0.00    +0.310 C 
ATOM     11  N   LIG    1        0.002  -0.004   0.002  0.00  0.00    -0.350 N 
ATOM     12  N   LIG    1       -1.317  -0.461   0.013  0.00  0.00    -0.290 NA
ATOM     13  C   LIG    1       -2.121   0.568   0.027  0.00  0.00    +0.260 A 
ENDBRANCH   3   5
BRANCH   1  19
ATOM     14  C   LIG    1       -5.394   3.798   1.691  0.00  0.00    +0.040 C 
ATOM     15  C   LIG    1       -5.042   4.904   0.694  0.00  0.00    -0.070 C 
ATOM     16  C   LIG    1       -5.603   4.662  -0.718  0.00  0.00    -0.040 C 
ATOM     17  C   LIG    1       -4.266   5.200  -1.255  0.00  0.00    +0.030 C 
ATOM     18  C   LIG    1       -5.327   6.306   1.236  0.00  0.00    +0.080 C 
ATOM     19  C   LIG    1       -3.641   4.755   0.078  0.00  0.00    +0.250 C 
BRANCH  16  20
ATOM     20  C   LIG    1       -6.802   5.549  -1.061  0.00  0.00    +0.280 C 
BRANCH  20  21
ATOM     21  N   LIG    1       -7.336   5.162  -2.374  0.00  0.00    -0.640 N 
ATOM     22  H   LIG    1       -7.628   4.197  -2.347  0.00  0.00    +0.430 HD
ATOM     23  H   LIG    1       -6.621   5.278  -3.075  0.00  0.00    +0.440 HD
ATOM     24  H   LIG    1       -8.127   5.747  -2.600  0.00  0.00    +0.440 HD
ENDBRANCH  20  21
ENDBRANCH  16  20
ENDBRANCH   1  19
TORSDOF 4
