REMARK  Name = ZINCrH000004sDDn.0
REMARK                            x       y       z     vdW  Elec       q    Type
REMARK                         _______ _______ _______ _____ _____    ______ ____
ROOT
ATOM      1  N   LIG    1        0.145   3.595  -3.462  0.00  0.00    -0.680 N 
ATOM      2  H   LIG    1       -0.674   3.964  -3.095  0.00  0.00    +0.410 HD
ATOM      3  C   LIG    1        0.413   2.281  -3.326  0.00  0.00    +0.530 C 
ATOM      4  O   LIG    1        1.394   1.804  -3.857  0.00  0.00    -0.500 OA
ENDROOT
BRANCH   3   5
ATOM      5  C   LIG    1       -0.508   1.403  -2.511  0.00  0.00    +0.010 C 
ATOM      6  C   LIG    1       -0.013  -0.024  -2.498  0.00  0.00    +0.080 C 
ATOM      7  C   LIG    1        0.743  -0.448  -1.251  0.00  0.00    -0.050 C 
ATOM      8  C   LIG    1        2.155   0.137  -1.233  0.00  0.00    +0.240 C 
ATOM      9  O   LIG    1        2.110   1.555  -1.115  0.00  0.00    -0.360 OA
ATOM     10  C   LIG    1        1.392   2.058   0.008  0.00  0.00    +0.220 C 
ATOM     11  C   LIG    1       -0.040   1.525   0.009  0.00  0.00    -0.050 C 
ATOM     12  C   LIG    1       -0.017  -0.005   0.001  0.00  0.00    +0.290 C 
ATOM     13  F   LIG    1       -1.325  -0.498  -0.040  0.00  0.00    -0.190 F 
ATOM     14  F   LIG    1        0.631  -0.478   1.145  0.00  0.00    -0.190 F 
ATOM     15  C   LIG    1       -0.824   2.046  -1.181  0.00  0.00    +0.060 C 
ENDBRANCH   3   5
BRANCH   1  19
ATOM     16  C   LIG    1        2.834   6.075  -5.462  0.00  0.00    +0.100 A 
ATOM     17  C   LIG    1        2.653   4.764  -5.883  0.00  0.00    +0.040 A 
ATOM     18  C   LIG    1        1.763   3.943  -5.221  0.00  0.00    +0.050 A 
ATOM     19  C   LIG    1        1.048   4.428  -4.134  0.00  0.00    +0.160 A 
ATOM     20  C   LIG    1        1.225   5.741  -3.716  0.00  0.00    +0.010 A 
ATOM     21  C   LIG    1        2.119   6.560  -4.376  0.00  0.00    +0.040 A 
BRANCH  16  25
ATOM     22  C   LIG    1        4.829   9.952  -7.831  0.00  0.00    +0.140 C 
ATOM     23  C   LIG    1        4.626   8.609  -7.178  0.00  0.00    +0.000 A 
ATOM     24  C   LIG    1        3.488   8.173  -6.605  0.00  0.00    -0.020 A 
ATOM     25  N   LIG    1        3.739   6.910  -6.136  0.00  0.00    -0.410 N 
ATOM     26  C   LIG    1        5.027   6.616  -6.450  0.00  0.00    +0.400 A 
ATOM     27  C   LIG    1        2.190   8.930  -6.497  0.00  0.00    +0.140 C 
ATOM     28  N   LIG    1        5.547   7.639  -7.073  0.00  0.00    -0.480 NA
ENDBRANCH  16  25
ENDBRANCH   1  19
TORSDOF 3
