REMARK  Name = ZINCtV000002KzfR.0
REMARK                            x       y       z     vdW  Elec       q    Type
REMARK                         _______ _______ _______ _____ _____    ______ ____
ROOT
ATOM      1  C   LIG    1       -0.775   9.313   1.482  0.00  0.00    +0.450 C 
ATOM      2  O   LIG    1       -1.272   9.168   2.580  0.00  0.00    -0.460 OA
ENDROOT
BRANCH   1   6
ATOM      3  C   LIG    1        0.967   6.351  -2.279  0.00  0.00    +0.140 C 
ATOM      4  C   LIG    1        0.373   6.846  -0.986  0.00  0.00    +0.020 A 
ATOM      5  C   LIG    1        0.206   8.136  -0.650  0.00  0.00    +0.010 A 
ATOM      6  C   LIG    1       -0.402   8.141   0.688  0.00  0.00    -0.260 A 
ATOM      7  C   LIG    1       -0.553   6.813   1.041  0.00  0.00    +0.130 A 
ATOM      8  C   LIG    1       -1.142   6.302   2.330  0.00  0.00    +0.150 C 
ATOM      9  N   LIG    1       -0.080   6.055   0.033  0.00  0.00    -0.400 N 
BRANCH   9  10
ATOM     10  C   LIG    1       -0.061   4.654   0.026  0.00  0.00    +0.120 A 
ATOM     11  C   LIG    1        1.150   3.975   0.011  0.00  0.00    +0.040 A 
ATOM     12  C   LIG    1        1.166   2.594   0.005  0.00  0.00    +0.070 A 
ATOM     13  C   LIG    1       -0.024   1.887   0.012  0.00  0.00    -0.080 A 
ATOM     14  C   LIG    1       -1.232   2.561   0.022  0.00  0.00    +0.070 A 
ATOM     15 BR   LIG    1        0.002  -0.004   0.002  0.00  0.00    -0.030 Br
ATOM     16  C   LIG    1       -1.253   3.942   0.034  0.00  0.00    +0.040 A 
ENDBRANCH   9  10
ENDBRANCH   1   6
BRANCH   1  17
ATOM     17  C   LIG    1       -0.544  10.699   0.937  0.00  0.00    +0.080 C 
BRANCH  17  18
ATOM     18  S   LIG    1       -1.105  11.924   2.144  0.00  0.00    +0.050 S 
BRANCH  18  19
ATOM     19  C   LIG    1       -0.727  13.408   1.273  0.00  0.00    +0.200 A 
ATOM     20  C   LIG    1       -1.009  14.674   1.848  0.00  0.00    -0.160 A 
ATOM     21  C   LIG    1       -0.678  15.810   1.105  0.00  0.00    +0.100 A 
ATOM     22  S   LIG    1       -1.106  17.254   2.011  0.00  0.00    +0.170 S 
ATOM     23  C   LIG    1       -1.723  16.310   3.354  0.00  0.00    -0.170 A 
ATOM     24  C   LIG    1       -2.307  16.901   4.611  0.00  0.00    +0.140 C 
ATOM     25  N   LIG    1       -0.127  15.658  -0.106  0.00  0.00    -0.500 NA
ATOM     26  C   LIG    1        0.110  14.464  -0.598  0.00  0.00    +0.540 A 
ATOM     27  C   LIG    1       -1.601  15.016   3.128  0.00  0.00    -0.070 A 
ATOM     28  C   LIG    1       -2.042  13.973   4.123  0.00  0.00    +0.140 C 
ATOM     29  N   LIG    1       -0.179  13.360   0.067  0.00  0.00    -0.530 NA
ENDBRANCH  18  19
ENDBRANCH  17  18
ENDBRANCH   1  17
TORSDOF 5
