REMARK  Name = ZINCrD0000075rZP.0
REMARK                            x       y       z     vdW  Elec       q    Type
REMARK                         _______ _______ _______ _____ _____    ______ ____
ROOT
ATOM      1  C   LIG    1       -7.239   1.975   0.465  0.00  0.00    +0.470 C 
ATOM      2  O   LIG    1       -7.379   0.775   0.472  0.00  0.00    -0.490 OA
ENDROOT
BRANCH   1   3
ATOM      3  C   LIG    1       -8.442   2.875   0.580  0.00  0.00    +0.040 C 
ATOM      4  C   LIG    1       -8.534   3.765  -0.662  0.00  0.00    +0.070 C 
ATOM      5  C   LIG    1       -9.595   4.849  -0.438  0.00  0.00    +0.140 C 
ATOM      6  C   LIG    1      -10.857   4.186   0.055  0.00  0.00    +0.100 A 
ATOM      7  C   LIG    1      -10.909   2.926   0.556  0.00  0.00    -0.200 A 
ATOM      8  C   LIG    1      -12.230   2.655   0.902  0.00  0.00    -0.000 A 
ATOM      9  N   LIG    1      -12.950   3.713   0.621  0.00  0.00    -0.230 NA
ATOM     10  N   LIG    1      -12.100   4.693   0.085  0.00  0.00    -0.440 N 
ATOM     11  H   LIG    1      -12.364   5.579  -0.210  0.00  0.00    +0.450 HD
ATOM     12  C   LIG    1       -9.711   2.020   0.693  0.00  0.00    +0.150 C 
BRANCH   8  13
ATOM     13  C   LIG    1      -12.744   1.368   1.496  0.00  0.00    +0.550 C 
ATOM     14  F   LIG    1      -11.956   0.302   1.050  0.00  0.00    -0.160 F 
ATOM     15  F   LIG    1      -14.070   1.167   1.097  0.00  0.00    -0.170 F 
ATOM     16  F   LIG    1      -12.682   1.441   2.892  0.00  0.00    -0.170 F 
ENDBRANCH   8  13
ENDBRANCH   1   3
BRANCH   1  17
ATOM     17  O   LIG    1       -6.011   2.507   0.355  0.00  0.00    -0.330 OA
BRANCH  17  18
ATOM     18  C   LIG    1       -4.899   1.580   0.248  0.00  0.00    +0.270 C 
BRANCH  18  20
ATOM     19  O   LIG    1       -3.628   3.566   0.141  0.00  0.00    -0.490 OA
ATOM     20  C   LIG    1       -3.610   2.353   0.133  0.00  0.00    +0.520 C 
ATOM     21  N   LIG    1       -2.438   1.698   0.022  0.00  0.00    -0.670 N 
ATOM     22  H   LIG    1       -2.429   0.731  -0.064  0.00  0.00    +0.420 HD
BRANCH  21  23
ATOM     23  C   LIG    1       -1.233   2.410   0.032  0.00  0.00    +0.160 A 
ATOM     24  C   LIG    1       -1.165   3.653   0.647  0.00  0.00    +0.030 A 
ATOM     25  C   LIG    1        0.024   4.357   0.650  0.00  0.00    +0.050 A 
ATOM     26  C   LIG    1        1.147   3.823   0.046  0.00  0.00    +0.020 A 
ATOM     27  C   LIG    1        1.085   2.583  -0.563  0.00  0.00    +0.050 A 
ATOM     28  C   LIG    1       -0.101   1.873  -0.569  0.00  0.00    -0.070 A 
ATOM     29 CL   LIG    1       -0.179   0.316  -1.334  0.00  0.00    -0.060 Cl
ENDBRANCH  21  23
ENDBRANCH  18  20
ENDBRANCH  17  18
ENDBRANCH   1  17
TORSDOF 6
