REMARK  Name = ZINCqH0000000k5t.0
REMARK                            x       y       z     vdW  Elec       q    Type
REMARK                         _______ _______ _______ _____ _____    ______ ____
ROOT
ATOM      1  N   LIG    1        4.454  -1.157  -1.150  0.00  0.00    -0.440 N 
ATOM      2  C   LIG    1        3.713  -0.860  -0.040  0.00  0.00    +0.180 A 
ATOM      3  N   LIG    1        4.441  -1.150   1.001  0.00  0.00    -0.250 NA
ATOM      4  N   LIG    1        5.584  -1.603   0.628  0.00  0.00    -0.290 NA
ATOM      5  C   LIG    1        5.648  -1.626  -0.683  0.00  0.00    +0.160 A 
ENDROOT
BRANCH   1   6
ATOM      6  C   LIG    1        4.050  -1.001  -2.550  0.00  0.00    +0.350 C 
BRANCH   6   8
ATOM      7  C   LIG    1        5.180   0.505  -4.104  0.00  0.00    +0.070 C 
ATOM      8  C   LIG    1        4.436   0.373  -3.034  0.00  0.00    -0.080 C 
ENDBRANCH   6   8
ENDBRANCH   1   6
BRANCH   2   9
ATOM      9  C   LIG    1        2.312  -0.304  -0.023  0.00  0.00    +0.350 C 
BRANCH   9  10
ATOM     10  O   LIG    1        2.365   1.123  -0.015  0.00  0.00    -0.300 OA
BRANCH  10  11
ATOM     11  C   LIG    1        1.178   1.786   0.000  0.00  0.00    +0.100 A 
ATOM     12  C   LIG    1       -0.013   1.076   0.008  0.00  0.00    -0.040 A 
ATOM     13  C   LIG    1       -1.219   1.751   0.017  0.00  0.00    +0.050 A 
ATOM     14  C   LIG    1       -1.239   3.133   0.031  0.00  0.00    +0.020 A 
ATOM     15  C   LIG    1       -0.054   3.845   0.023  0.00  0.00    +0.030 A 
ATOM     16  C   LIG    1        1.156   3.175   0.008  0.00  0.00    +0.070 A 
ATOM     17  F   LIG    1        2.314   3.870   0.001  0.00  0.00    -0.130 F 
ENDBRANCH  10  11
ENDBRANCH   9  10
ENDBRANCH   2   9
BRANCH   5  18
ATOM     18  S   LIG    1        7.014  -2.166  -1.657  0.00  0.00    +0.070 S 
BRANCH  18  19
ATOM     19  C   LIG    1        8.171  -2.629  -0.345  0.00  0.00    +0.150 C 
ATOM     20  C   LIG    1        8.569  -1.382   0.448  0.00  0.00    +0.110 C 
BRANCH  19  21
ATOM     21  C   LIG    1        9.401  -3.249  -0.956  0.00  0.00    +0.170 A 
ATOM     22  N   LIG    1       10.055  -2.806  -1.992  0.00  0.00    -0.260 NA
ATOM     23  N   LIG    1       11.053  -3.582  -2.231  0.00  0.00    -0.290 NA
ATOM     24  C   LIG    1       11.065  -4.551  -1.361  0.00  0.00    +0.170 A 
ATOM     25  C   LIG    1       12.066  -5.676  -1.293  0.00  0.00    +0.250 C 
ATOM     26  O   LIG    1       10.022  -4.364  -0.535  0.00  0.00    -0.220 OA
ENDBRANCH  19  21
ENDBRANCH  18  19
ENDBRANCH   5  18
TORSDOF 8
