REMARK  Name = ZINCAx0000000dGO.0
REMARK                            x       y       z     vdW  Elec       q    Type
REMARK                         _______ _______ _______ _____ _____    ______ ____
ROOT
ATOM      1  C   LIG    1       -0.019   1.526   0.010  0.00  0.00    +0.100 C 
ENDROOT
BRANCH   1   7
ATOM      2  N   LIG    1       -1.996   5.879   1.412  0.00  0.00    -0.490 N 
ATOM      3  C   LIG    1       -2.616   4.841   2.246  0.00  0.00    +0.190 C 
ATOM      4  C   LIG    1       -1.548   3.830   2.675  0.00  0.00    +0.290 C 
ATOM      5  N   LIG    1       -0.863   3.334   1.472  0.00  0.00    -0.620 N 
ATOM      6  C   LIG    1       -0.329   4.319   0.520  0.00  0.00    +0.280 C 
ATOM      7  C   LIG    1       -0.724   2.012   1.250  0.00  0.00    +0.520 C 
ATOM      8  O   LIG    1       -1.167   1.213   2.049  0.00  0.00    -0.540 OA
ATOM      9  C   LIG    1       -1.450   5.311   0.172  0.00  0.00    +0.200 C 
BRANCH   2  13
ATOM     10  C   LIG    1       -4.695   8.941   0.590  0.00  0.00    -0.170 A 
ATOM     11  C   LIG    1       -4.351   8.643   1.915  0.00  0.00    +0.100 A 
ATOM     12  C   LIG    1       -3.459   7.631   2.181  0.00  0.00    +0.010 A 
ATOM     13  C   LIG    1       -2.897   6.902   1.137  0.00  0.00    +0.120 A 
ATOM     14  C   LIG    1       -3.231   7.198  -0.184  0.00  0.00    +0.030 A 
ATOM     15  F   LIG    1       -2.679   6.491  -1.195  0.00  0.00    -0.130 F 
ATOM     16  C   LIG    1       -4.128   8.205  -0.460  0.00  0.00    +0.070 A 
BRANCH  10  18
ATOM     17  C   LIG    1       -6.015  10.339  -1.125  0.00  0.00    +0.080 C 
ATOM     18  C   LIG    1       -5.646  10.020   0.301  0.00  0.00    +0.400 C 
ATOM     19  O   LIG    1       -6.137  10.656   1.211  0.00  0.00    -0.450 OA
ENDBRANCH  10  18
ENDBRANCH   2  13
ENDBRANCH   1   7
BRANCH   1  20
ATOM     20  C   LIG    1        0.002  -0.004   0.002  0.00  0.00    +0.180 C 
BRANCH  20  21
ATOM     21  C   LIG    1        0.707  -0.490  -1.238  0.00  0.00    +0.440 A 
ATOM     22  N   LIG    1        1.171   0.392  -2.074  0.00  0.00    -0.530 NA
ATOM     23  C   LIG    1        1.810   0.036  -3.199  0.00  0.00    +0.350 A 
ATOM     24  C   LIG    1        1.986  -1.328  -3.483  0.00  0.00    -0.340 A 
ATOM     25  C   LIG    1        1.457  -2.304  -2.531  0.00  0.00    +0.580 A 
ATOM     26  O   LIG    1        1.578  -3.502  -2.721  0.00  0.00    -0.510 OA
ATOM     27  C   LIG    1        2.678  -1.414  -4.706  0.00  0.00    +0.340 A 
ATOM     28  N   LIG    1        2.907  -0.203  -5.135  0.00  0.00    -0.270 NA
ATOM     29  N   LIG    1        2.382   0.723  -4.224  0.00  0.00    -0.300 N 
ATOM     30  N   LIG    1        0.835  -1.828  -1.427  0.00  0.00    -0.650 N 
ATOM     31  H   LIG    1        0.475  -2.445  -0.771  0.00  0.00    +0.430 HD
BRANCH  29  32
ATOM     32  C   LIG    1        2.437   2.117  -4.349  0.00  0.00    +0.140 A 
ATOM     33  C   LIG    1        1.379   2.898  -3.902  0.00  0.00    +0.020 A 
ATOM     34  C   LIG    1        1.438   4.272  -4.020  0.00  0.00    +0.030 A 
ATOM     35  C   LIG    1        2.545   4.871  -4.594  0.00  0.00    +0.020 A 
ATOM     36  C   LIG    1        3.598   4.097  -5.044  0.00  0.00    +0.030 A 
ATOM     37  C   LIG    1        3.547   2.722  -4.923  0.00  0.00    +0.020 A 
ENDBRANCH  29  32
ENDBRANCH  20  21
ENDBRANCH   1  20
TORSDOF 6
