REMARK  Name = ZINCvU00000005oH.0
REMARK                            x       y       z     vdW  Elec       q    Type
REMARK                         _______ _______ _______ _____ _____    ______ ____
ROOT
ATOM      1  C   LIG    1        4.808   4.974  -1.676  0.00  0.00    -0.210 A 
ATOM      2  C   LIG    1        5.803   4.637  -0.779  0.00  0.00    +0.280 A 
ATOM      3  N   LIG    1        6.885   5.386  -1.063  0.00  0.00    -0.310 N 
ATOM      4  N   LIG    1        6.604   6.227  -2.144  0.00  0.00    -0.270 NA
ATOM      5  C   LIG    1        5.370   6.016  -2.545  0.00  0.00    +0.150 A 
ENDROOT
BRANCH   5   6
ATOM      6  C   LIG    1        4.678   6.698  -3.663  0.00  0.00    -0.020 A 
ATOM      7  C   LIG    1        4.941   8.031  -3.921  0.00  0.00    +0.060 A 
ATOM      8  C   LIG    1        4.282   8.673  -4.981  0.00  0.00    -0.050 A 
ATOM      9  C   LIG    1        4.524  10.026  -5.275  0.00  0.00    +0.030 A 
ATOM     10  C   LIG    1        3.869  10.618  -6.311  0.00  0.00    +0.000 A 
ATOM     11  C   LIG    1        2.960   9.902  -7.087  0.00  0.00    +0.010 A 
ATOM     12  C   LIG    1        2.701   8.589  -6.832  0.00  0.00    +0.020 A 
ATOM     13  C   LIG    1        3.358   7.944  -5.772  0.00  0.00    -0.040 A 
ATOM     14  C   LIG    1        3.112   6.589  -5.483  0.00  0.00    +0.030 A 
ATOM     15  C   LIG    1        3.764   5.985  -4.457  0.00  0.00    +0.040 A 
ENDBRANCH   5   6
BRANCH   3  16
ATOM     16  C   LIG    1        8.104   5.335  -0.377  0.00  0.00    +0.150 A 
ATOM     17  C   LIG    1        8.267   4.461   0.690  0.00  0.00    -0.010 A 
ATOM     18  C   LIG    1        9.472   4.410   1.362  0.00  0.00    +0.050 A 
ATOM     19  C   LIG    1       10.514   5.235   0.980  0.00  0.00    +0.010 A 
ATOM     20  C   LIG    1       10.354   6.111  -0.078  0.00  0.00    +0.040 A 
ATOM     21  C   LIG    1        9.152   6.163  -0.757  0.00  0.00    +0.020 A 
ENDBRANCH   3  16
BRANCH   1  23
ATOM     22  C   LIG    1        3.080   3.449  -0.869  0.00  0.00    -0.130 C 
ATOM     23  C   LIG    1        3.455   4.409  -1.743  0.00  0.00    +0.190 C 
BRANCH  22  25
ATOM     24  O   LIG    1        1.022   3.227  -1.834  0.00  0.00    -0.550 OA
ATOM     25  C   LIG    1        1.774   2.902  -0.933  0.00  0.00    +0.560 C 
ATOM     26  N   LIG    1        1.364   2.024   0.003  0.00  0.00    -0.610 N 
ATOM     27  C   LIG    1        2.294   1.537   1.031  0.00  0.00    +0.270 C 
ATOM     28  C   LIG    1        1.672   1.777   2.411  0.00  0.00    +0.010 C 
ATOM     29  C   LIG    1        0.286   1.131   2.461  0.00  0.00    +0.010 C 
ATOM     30  C   LIG    1       -0.617   1.774   1.406  0.00  0.00    +0.010 C 
ATOM     31  C   LIG    1       -0.022   1.535   0.015  0.00  0.00    +0.270 C 
ENDBRANCH  22  25
ENDBRANCH   1  23
TORSDOF 4
