REMARK  Name = ZINCpk00000HmEL4.0
REMARK                            x       y       z     vdW  Elec       q    Type
REMARK                         _______ _______ _______ _____ _____    ______ ____
ROOT
ATOM      1  N   LIG    1       -1.685   0.563   1.683  0.00  0.00    -0.540 NA
ATOM      2  C   LIG    1       -0.720   1.573   1.254  0.00  0.00    +0.170 C 
ATOM      3  C   LIG    1       -0.013   1.086   0.008  0.00  0.00    +0.040 C 
ATOM      4  C   LIG    1       -0.755   1.595  -1.239  0.00  0.00    +0.240 C 
ATOM      5  N   LIG    1       -2.219   1.527  -1.057  0.00  0.00    -0.600 N 
ATOM      6  C   LIG    1       -2.873   0.398  -0.427  0.00  0.00    +0.300 C 
ATOM      7  C   LIG    1       -2.974   2.555  -1.492  0.00  0.00    +0.510 C 
ATOM      8  O   LIG    1       -4.179   2.523  -1.354  0.00  0.00    -0.510 OA
ATOM      9  C   LIG    1       -2.971   0.636   1.099  0.00  0.00    +0.190 C 
ENDROOT
BRANCH   7  10
ATOM     10  C   LIG    1       -2.322   3.743  -2.151  0.00  0.00    +0.170 C 
ATOM     11  C   LIG    1       -1.522   4.572  -1.119  0.00  0.00    +0.100 C 
ATOM     12  C   LIG    1       -1.757   5.989  -1.604  0.00  0.00    -0.180 A 
ATOM     13  C   LIG    1       -1.122   7.179  -1.326  0.00  0.00    +0.060 A 
ATOM     14  C   LIG    1       -1.542   8.346  -1.939  0.00  0.00    -0.020 A 
ATOM     15  C   LIG    1       -2.599   8.312  -2.829  0.00  0.00    +0.050 A 
ATOM     16  C   LIG    1       -3.239   7.122  -3.107  0.00  0.00    +0.000 A 
ATOM     17  C   LIG    1       -2.825   5.943  -2.491  0.00  0.00    +0.110 A 
ATOM     18  O   LIG    1       -3.313   4.678  -2.610  0.00  0.00    -0.270 OA
ENDBRANCH   7  10
BRANCH   1  19
ATOM     19  C   LIG    1       -1.774   0.508   3.148  0.00  0.00    +0.350 C 
BRANCH  19  25
ATOM     20  C   LIG    1       -0.142   3.010   3.968  0.00  0.00    +0.330 C 
ATOM     21  N   LIG    1       -1.601   2.890   4.019  0.00  0.00    -0.460 N 
ATOM     22  C   LIG    1       -2.481   3.854   4.431  0.00  0.00    +0.110 A 
ATOM     23  C   LIG    1       -3.715   3.326   4.324  0.00  0.00    +0.140 A 
ATOM     24  N   LIG    1       -3.592   2.076   3.854  0.00  0.00    -0.480 NA
ATOM     25  C   LIG    1       -2.329   1.809   3.667  0.00  0.00    +0.170 A 
ENDBRANCH  19  25
ENDBRANCH   1  19
TORSDOF 3
