REMARK  Name = ZINCpk00000xQYbw.2
REMARK                            x       y       z     vdW  Elec       q    Type
REMARK                         _______ _______ _______ _____ _____    ______ ____
ROOT
ATOM      1  N   LIG    1       -4.455   4.552  -1.335  0.00  0.00    -0.520 NA
ATOM      2  C   LIG    1       -3.137   3.901  -1.369  0.00  0.00    +0.160 C 
ATOM      3  C   LIG    1       -2.553   3.869   0.045  0.00  0.00    +0.210 C 
ATOM      4  O   LIG    1       -3.466   3.196   0.917  0.00  0.00    -0.370 OA
ATOM      5  C   LIG    1       -4.759   3.804   0.975  0.00  0.00    +0.240 C 
ATOM      6  C   LIG    1       -5.366   3.836  -0.430  0.00  0.00    +0.070 C 
ATOM      7  C   LIG    1       -6.715   4.555  -0.388  0.00  0.00    +0.050 C 
ATOM      8  C   LIG    1       -5.565   2.405  -0.933  0.00  0.00    +0.010 C 
ENDROOT
BRANCH   3   9
ATOM      9  C   LIG    1       -1.238   3.133   0.030  0.00  0.00    -0.080 A 
ATOM     10  C   LIG    1       -1.219   1.751   0.017  0.00  0.00    +0.030 A 
ATOM     11  C   LIG    1       -0.013   1.076   0.008  0.00  0.00    +0.000 A 
ATOM     12  C   LIG    1        1.175   1.783   0.000  0.00  0.00    +0.000 A 
ATOM     13  C   LIG    1        1.156   3.165   0.008  0.00  0.00    +0.000 A 
ATOM     14  C   LIG    1       -0.050   3.840   0.022  0.00  0.00    +0.010 A 
ENDBRANCH   3   9
BRANCH   1  15
ATOM     15  C   LIG    1       -5.027   4.655  -2.684  0.00  0.00    +0.280 C 
BRANCH  15  19
ATOM     16  C   LIG    1       -1.485   3.859  -6.021  0.00  0.00    +0.340 C 
ATOM     17  N   LIG    1       -2.289   4.792  -5.227  0.00  0.00    -0.530 N 
ATOM     18  C   LIG    1       -3.234   4.309  -4.364  0.00  0.00    +0.340 A 
ATOM     19  C   LIG    1       -3.978   5.169  -3.636  0.00  0.00    -0.260 A 
ATOM     20  C   LIG    1       -3.755   6.560  -3.775  0.00  0.00    +0.550 A 
ATOM     21  N   LIG    1       -2.811   6.996  -4.633  0.00  0.00    -0.560 N 
ATOM     22  C   LIG    1       -2.571   8.434  -4.785  0.00  0.00    +0.330 C 
ATOM     23  O   LIG    1       -4.410   7.355  -3.126  0.00  0.00    -0.490 OA
ATOM     24  C   LIG    1       -2.087   6.117  -5.350  0.00  0.00    +0.690 A 
ATOM     25  O   LIG    1       -1.239   6.525  -6.120  0.00  0.00    -0.540 OA
ENDBRANCH  15  19
ENDBRANCH   1  15
TORSDOF 3
