REMARK  Name = ZINCrD000000CLhE.0
REMARK                            x       y       z     vdW  Elec       q    Type
REMARK                         _______ _______ _______ _____ _____    ______ ____
ROOT
ATOM      1  C   LIG    1        1.334  -4.763  -0.114  0.00  0.00    +0.250 C 
ENDROOT
BRANCH   1   2
ATOM      2  C   LIG    1        1.157  -6.260  -0.139  0.00  0.00    +0.520 C 
ATOM      3  N   LIG    1        2.238  -7.065  -0.145  0.00  0.00    -0.550 N 
ATOM      4  C   LIG    1        3.591  -6.501  -0.052  0.00  0.00    +0.270 C 
ATOM      5  C   LIG    1        4.468  -7.213  -1.091  0.00  0.00    +0.030 C 
ATOM      6  C   LIG    1        4.553  -8.696  -0.732  0.00  0.00    +0.090 C 
ATOM      7  C   LIG    1        3.176  -9.269  -0.524  0.00  0.00    -0.130 A 
ATOM      8  C   LIG    1        2.999 -10.639  -0.617  0.00  0.00    +0.070 A 
ATOM      9  C   LIG    1        1.749 -11.197  -0.411  0.00  0.00    -0.030 A 
ATOM     10  C   LIG    1        0.664 -10.386  -0.126  0.00  0.00    +0.120 A 
ATOM     11  C   LIG    1        0.832  -9.016  -0.038  0.00  0.00    -0.010 A 
ATOM     12  F   LIG    1       -0.557 -10.931   0.067  0.00  0.00    -0.140 F 
ATOM     13  C   LIG    1        2.089  -8.456  -0.236  0.00  0.00    +0.180 A 
ATOM     14  O   LIG    1        0.043  -6.739  -0.153  0.00  0.00    -0.480 OA
ENDBRANCH   1   2
BRANCH   1  15
ATOM     15  O   LIG    1        0.056  -4.135   0.006  0.00  0.00    -0.290 OA
BRANCH  15  19
ATOM     16  C   LIG    1       -0.000  -0.008   0.119  0.00  0.00    +0.130 A 
ATOM     17  C   LIG    1        1.207  -0.683  -0.002  0.00  0.00    +0.050 A 
ATOM     18  C   LIG    1        1.226  -2.064  -0.034  0.00  0.00    -0.050 A 
ATOM     19  C   LIG    1        0.037  -2.776   0.044  0.00  0.00    +0.100 A 
ATOM     20  C   LIG    1       -1.169  -2.102   0.159  0.00  0.00    +0.020 A 
ATOM     21  C   LIG    1       -1.189  -0.722   0.196  0.00  0.00    +0.020 A 
BRANCH  16  27
ATOM     22  O   LIG    1        2.219   1.751   0.220  0.00  0.00    -0.510 OA
ATOM     23  C   LIG    1        1.079   2.165   0.200  0.00  0.00    +0.520 C 
ATOM     24  C   LIG    1        0.688   3.626   0.218  0.00  0.00    +0.070 C 
ATOM     25  C   LIG    1       -0.792   3.629  -0.231  0.00  0.00    +0.060 C 
ATOM     26  C   LIG    1       -1.242   2.204   0.159  0.00  0.00    +0.260 C 
ATOM     27  N   LIG    1       -0.020   1.392   0.156  0.00  0.00    -0.560 N 
ENDBRANCH  16  27
ENDBRANCH  15  19
ENDBRANCH   1  15
TORSDOF 4
