REMARK  Name = ZINCrD0000073xkZ.0
REMARK                            x       y       z     vdW  Elec       q    Type
REMARK                         _______ _______ _______ _____ _____    ______ ____
ROOT
ATOM      1  C   LIG    1        2.491   1.310  -0.015  0.00  0.00    +0.270 C 
ATOM      2  C   LIG    1        3.500   2.478  -0.046  0.00  0.00    +0.050 C 
ATOM      3  C   LIG    1        2.658   3.649  -0.617  0.00  0.00    +0.040 C 
ATOM      4  C   LIG    1        1.269   3.367   0.002  0.00  0.00    +0.240 C 
ATOM      5  N   LIG    1        1.143   1.898   0.001  0.00  0.00    -0.610 N 
ATOM      6  C   LIG    1       -0.014   1.209   0.009  0.00  0.00    +0.540 C 
ATOM      7  O   LIG    1        0.002  -0.004   0.002  0.00  0.00    -0.520 OA
ENDROOT
BRANCH   1  11
ATOM      8  C   LIG    1        3.094  -1.037   3.505  0.00  0.00    +0.130 A 
ATOM      9  C   LIG    1        3.571  -1.485   2.281  0.00  0.00    -0.020 A 
ATOM     10  C   LIG    1        3.374  -0.724   1.145  0.00  0.00    +0.070 A 
ATOM     11  C   LIG    1        2.704   0.482   1.226  0.00  0.00    -0.130 A 
ATOM     12  C   LIG    1        2.233   0.933   2.446  0.00  0.00    +0.060 A 
ATOM     13  C   LIG    1        2.422   0.174   3.584  0.00  0.00    -0.080 A 
BRANCH   8  15
ATOM     14  C   LIG    1        2.768  -1.261   5.849  0.00  0.00    +0.250 C 
ATOM     15  O   LIG    1        3.286  -1.784   4.624  0.00  0.00    -0.320 OA
ENDBRANCH   8  15
ENDBRANCH   1  11
BRANCH   6  16
ATOM     16  C   LIG    1       -1.330   1.944   0.019  0.00  0.00    +0.040 C 
BRANCH  16  17
ATOM     17  C   LIG    1       -2.479   0.934   0.019  0.00  0.00    +0.360 C 
BRANCH  17  18
ATOM     18  N   LIG    1       -3.757   1.649   0.029  0.00  0.00    -0.550 N 
ATOM     19  C   LIG    1       -4.451   2.028   1.121  0.00  0.00    +0.630 A 
ATOM     20  O   LIG    1       -5.571   2.662   0.742  0.00  0.00    -0.240 OA
ATOM     21  C   LIG    1       -5.627   2.697  -0.612  0.00  0.00    +0.030 A 
ATOM     22  C   LIG    1       -6.549   3.216  -1.507  0.00  0.00    +0.060 A 
ATOM     23  C   LIG    1       -6.332   3.097  -2.866  0.00  0.00    +0.030 A 
ATOM     24  C   LIG    1       -5.197   2.463  -3.340  0.00  0.00    +0.040 A 
ATOM     25  C   LIG    1       -4.271   1.944  -2.455  0.00  0.00    +0.040 A 
ATOM     26  O   LIG    1       -4.112   1.828   2.272  0.00  0.00    -0.480 OA
ATOM     27  C   LIG    1       -4.482   2.058  -1.090  0.00  0.00    +0.070 A 
ENDBRANCH  17  18
ENDBRANCH  16  17
ENDBRANCH   6  16
TORSDOF 5
