REMARK  Name = ZINCrH000004nWIi.0
REMARK                            x       y       z     vdW  Elec       q    Type
REMARK                         _______ _______ _______ _____ _____    ______ ____
ROOT
ATOM      1  C   LIG    1       -2.393   8.072   0.701  0.00  0.00    +0.520 C 
ATOM      2  N   LIG    1       -1.779   7.291  -0.210  0.00  0.00    -0.610 N 
ATOM      3  C   LIG    1       -0.888   7.878  -1.220  0.00  0.00    +0.260 C 
ATOM      4  C   LIG    1        0.465   7.161  -1.160  0.00  0.00    +0.010 C 
ATOM      5  C   LIG    1        0.246   5.654  -1.315  0.00  0.00    +0.050 C 
ATOM      6  C   LIG    1       -0.623   5.142  -0.163  0.00  0.00    -0.030 C 
ATOM      7  C   LIG    1       -1.988   5.836  -0.212  0.00  0.00    +0.300 C 
ATOM      8  O   LIG    1       -3.126   7.575   1.530  0.00  0.00    -0.510 OA
ENDROOT
BRANCH   6   9
ATOM      9  C   LIG    1       -0.810   3.653  -0.298  0.00  0.00    -0.080 A 
ATOM     10  C   LIG    1        0.288   2.814  -0.282  0.00  0.00    +0.050 A 
ATOM     11  C   LIG    1        0.115   1.448  -0.406  0.00  0.00    +0.000 A 
ATOM     12  C   LIG    1       -1.155   0.921  -0.545  0.00  0.00    +0.000 A 
ATOM     13  C   LIG    1       -2.253   1.761  -0.566  0.00  0.00    +0.000 A 
ATOM     14  C   LIG    1       -2.081   3.127  -0.439  0.00  0.00    +0.000 A 
ENDBRANCH   6   9
BRANCH   1  15
ATOM     15  C   LIG    1       -2.169   9.562   0.690  0.00  0.00    +0.170 C 
ATOM     16  C   LIG    1       -2.735  10.153  -0.603  0.00  0.00    +0.060 C 
BRANCH  15  17
ATOM     17  O   LIG    1       -2.828  10.151   1.812  0.00  0.00    -0.280 OA
BRANCH  17  21
ATOM     18  C   LIG    1       -1.346  13.755   3.177  0.00  0.00    -0.120 A 
ATOM     19  C   LIG    1       -0.825  13.181   2.024  0.00  0.00    +0.070 A 
ATOM     20  C   LIG    1       -1.322  11.976   1.568  0.00  0.00    -0.060 A 
ATOM     21  C   LIG    1       -2.340  11.338   2.262  0.00  0.00    +0.130 A 
ATOM     22  C   LIG    1       -2.864  11.913   3.410  0.00  0.00    +0.010 A 
ATOM     23  C   LIG    1       -2.365  13.115   3.871  0.00  0.00    +0.040 A 
BRANCH  18  25
ATOM     24  C   LIG    1       -1.698  15.601   5.251  0.00  0.00    +0.130 C 
ATOM     25  S   LIG    1       -0.713  15.293   3.760  0.00  0.00    -0.120 S 
ENDBRANCH  18  25
ENDBRANCH  17  21
ENDBRANCH  15  17
ENDBRANCH   1  15
BRANCH   6  26
ATOM     26  C   LIG    1        0.061   5.452   1.170  0.00  0.00    +0.190 C 
BRANCH  26  27
ATOM     27  O   LIG    1        1.335   4.806   1.214  0.00  0.00    -0.560 OA
ATOM     28  H   LIG    1        1.825   4.959   2.033  0.00  0.00    +0.380 HD
ENDBRANCH  26  27
ENDBRANCH   6  26
TORSDOF 7
