REMARK  Name = ZINCrH000004jRF4.0
REMARK                            x       y       z     vdW  Elec       q    Type
REMARK                         _______ _______ _______ _____ _____    ______ ____
ROOT
ATOM      1  C   LIG    1        0.064   1.016   0.258  0.00  0.00    +0.520 C 
ATOM      2  N   LIG    1       -1.130   1.634   0.347  0.00  0.00    -0.580 N 
ATOM      3  O   LIG    1        0.126  -0.194   0.314  0.00  0.00    -0.490 OA
ENDROOT
BRANCH   2   4
ATOM      4  C   LIG    1       -2.300   0.879   0.504  0.00  0.00    +0.100 A 
ATOM      5  C   LIG    1       -2.760   0.566   1.775  0.00  0.00    +0.060 A 
ATOM      6  C   LIG    1       -3.914  -0.178   1.927  0.00  0.00    +0.020 A 
ATOM      7  C   LIG    1       -4.611  -0.612   0.815  0.00  0.00    +0.060 A 
ATOM      8  C   LIG    1       -4.157  -0.302  -0.454  0.00  0.00    -0.010 A 
ATOM      9  C   LIG    1       -3.006   0.447  -0.614  0.00  0.00    +0.110 A 
ATOM     10  F   LIG    1       -2.564   0.754  -1.853  0.00  0.00    -0.130 F 
ENDBRANCH   2   4
BRANCH   1  11
ATOM     11  C   LIG    1        1.321   1.828   0.083  0.00  0.00    +0.210 C 
BRANCH  11  13
ATOM     12  C   LIG    1        2.425   0.101  -1.207  0.00  0.00    +0.200 C 
ATOM     13  N   LIG    1        2.479   0.927   0.007  0.00  0.00    -0.520 NA
BRANCH  13  14
ATOM     14  C   LIG    1        3.738   1.681   0.074  0.00  0.00    +0.200 C 
BRANCH  14  15
ATOM     15  C   LIG    1        3.992   2.122   1.517  0.00  0.00    +0.190 C 
BRANCH  15  16
ATOM     16  O   LIG    1        4.183   0.970   2.341  0.00  0.00    -0.290 OA
BRANCH  16  17
ATOM     17  C   LIG    1        4.421   1.188   3.661  0.00  0.00    +0.140 A 
ATOM     18  C   LIG    1        4.476   2.484   4.152  0.00  0.00    -0.070 A 
ATOM     19  C   LIG    1        4.713   2.704   5.495  0.00  0.00    +0.060 A 
ATOM     20  C   LIG    1        4.907   1.632   6.349  0.00  0.00    -0.080 A 
ATOM     21  C   LIG    1        4.858   0.339   5.860  0.00  0.00    +0.070 A 
ATOM     22 CL   LIG    1        5.211   1.911   8.035  0.00  0.00    -0.070 Cl
ATOM     23  C   LIG    1        4.615   0.115   4.519  0.00  0.00    +0.000 A 
ENDBRANCH  16  17
ENDBRANCH  15  16
ENDBRANCH  14  15
ENDBRANCH  13  14
ENDBRANCH  11  13
ENDBRANCH   1  11
BRANCH   2  24
ATOM     24  C   LIG    1       -1.206   3.096   0.279  0.00  0.00    +0.310 C 
BRANCH  24  25
ATOM     25  C   LIG    1       -1.377   3.530  -1.178  0.00  0.00    +0.180 C 
BRANCH  25  26
ATOM     26  C   LIG    1       -1.452   4.999  -1.246  0.00  0.00    +0.200 C 
ATOM     27  N   LIG    1       -1.510   6.132  -1.298  0.00  0.00    -0.420 NA
ENDBRANCH  25  26
ENDBRANCH  24  25
ENDBRANCH   2  24
TORSDOF 10
