REMARK  Name = ZINCrD0000073vd3.0
REMARK                            x       y       z     vdW  Elec       q    Type
REMARK                         _______ _______ _______ _____ _____    ______ ____
ROOT
ATOM      1  N   LIG    1       -0.067   1.120  -2.437  0.00  0.00    -0.720 N 
ATOM      2  H   LIG    1        0.730   0.573  -2.358  0.00  0.00    +0.400 HD
ATOM      3  C   LIG    1       -0.543   1.446  -3.655  0.00  0.00    +0.570 C 
ATOM      4  O   LIG    1       -1.542   2.132  -3.753  0.00  0.00    -0.530 OA
ENDROOT
BRANCH   3   5
ATOM      5  C   LIG    1        0.148   0.970  -4.870  0.00  0.00    -0.210 A 
ATOM      6  C   LIG    1        1.299   0.179  -4.769  0.00  0.00    +0.370 A 
ATOM      7  N   LIG    1        1.930  -0.256  -5.837  0.00  0.00    -0.460 NA
ATOM      8  C   LIG    1        1.511   0.031  -7.059  0.00  0.00    +0.230 A 
ATOM      9  O   LIG    1        1.933  -0.261  -8.302  0.00  0.00    +0.090 OA
ATOM     10  N   LIG    1        1.235   0.218  -9.164  0.00  0.00    -0.310 NA
ATOM     11  C   LIG    1        0.234   0.906  -8.699  0.00  0.00    +0.080 A 
ATOM     12  C   LIG    1        0.356   0.824  -7.240  0.00  0.00    -0.220 A 
ATOM     13  C   LIG    1       -0.341   1.297  -6.140  0.00  0.00    +0.230 A 
BRANCH  11  14
ATOM     14  C   LIG    1       -0.823   1.631  -9.490  0.00  0.00    +0.080 C 
ATOM     15  C   LIG    1       -1.576   0.633 -10.371  0.00  0.00    +0.040 C 
ATOM     16  C   LIG    1       -0.162   2.692 -10.373  0.00  0.00    +0.040 C 
ENDBRANCH  11  14
ENDBRANCH   3   5
BRANCH   1  17
ATOM     17  C   LIG    1       -0.753   1.593  -1.232  0.00  0.00    +0.280 C 
BRANCH  17  18
ATOM     18  C   LIG    1       -0.013   1.086   0.008  0.00  0.00    +0.090 C 
BRANCH  18  23
ATOM     19  C   LIG    1       -0.945   3.175   3.016  0.00  0.00    +0.090 A 
ATOM     20  C   LIG    1       -2.017   2.461   3.528  0.00  0.00    -0.040 A 
ATOM     21  C   LIG    1       -2.440   1.304   2.902  0.00  0.00    -0.040 A 
ATOM     22  C   LIG    1       -1.791   0.858   1.760  0.00  0.00    +0.100 A 
ATOM     23  C   LIG    1       -0.718   1.572   1.248  0.00  0.00    -0.080 A 
ATOM     24  C   LIG    1       -0.292   2.725   1.877  0.00  0.00    +0.030 A 
BRANCH  19  26
ATOM     25  C   LIG    1       -1.243   4.715   4.804  0.00  0.00    +0.240 C 
ATOM     26  O   LIG    1       -0.529   4.313   3.633  0.00  0.00    -0.320 OA
ENDBRANCH  19  26
BRANCH  22  27
ATOM     27  O   LIG    1       -2.207  -0.281   1.143  0.00  0.00    -0.310 OA
ATOM     28  C   LIG    1       -3.318  -0.965   1.726  0.00  0.00    +0.240 C 
ENDBRANCH  22  27
ENDBRANCH  18  23
ENDBRANCH  17  18
ENDBRANCH   1  17
TORSDOF 7
