REMARK  Name = ZINCkj000005llqa.0
REMARK                            x       y       z     vdW  Elec       q    Type
REMARK                         _______ _______ _______ _____ _____    ______ ____
ROOT
ATOM      1  N   LIG    1       -2.506   5.520   0.051  0.00  0.00    -0.750 N 
ATOM      2  H   LIG    1       -1.667   6.007   0.045  0.00  0.00    +0.400 HD
ATOM      3  C   LIG    1       -2.503   4.172   0.045  0.00  0.00    +0.570 C 
ATOM      4  O   LIG    1       -3.554   3.562   0.053  0.00  0.00    -0.500 OA
ENDROOT
BRANCH   3   5
ATOM      5  C   LIG    1       -1.223   3.437   0.030  0.00  0.00    -0.150 A 
ATOM      6  C   LIG    1       -0.014   4.137   0.021  0.00  0.00    +0.050 A 
ATOM      7  C   LIG    1        1.182   3.451   0.007  0.00  0.00    +0.030 A 
ATOM      8  C   LIG    1        1.183   2.064   0.002  0.00  0.00    +0.110 A 
ATOM      9  O   LIG    1        2.363   1.381  -0.012  0.00  0.00    -0.320 OA
ATOM     10  C   LIG    1        2.676   0.650   1.175  0.00  0.00    +0.230 C 
ATOM     11  C   LIG    1        2.014  -0.719   1.157  0.00  0.00    +0.000 C 
ATOM     12  C   LIG    1        0.497  -0.629   1.188  0.00  0.00    +0.230 C 
ATOM     13  O   LIG    1        0.002  -0.004   0.002  0.00  0.00    -0.310 OA
ATOM     14  C   LIG    1       -0.016   1.361   0.009  0.00  0.00    +0.070 A 
ATOM     15  C   LIG    1       -1.218   2.039   0.019  0.00  0.00    +0.100 A 
ENDBRANCH   3   5
BRANCH   1  16
ATOM     16  C   LIG    1       -3.776   6.250   0.066  0.00  0.00    +0.270 C 
BRANCH  16  17
ATOM     17  C   LIG    1       -4.267   6.389   1.509  0.00  0.00    -0.070 C 
ATOM     18  C   LIG    1       -3.310   5.966   2.625  0.00  0.00    +0.030 C 
ATOM     19  C   LIG    1       -4.529   5.101   2.293  0.00  0.00    +0.050 C 
ENDBRANCH  16  17
BRANCH  16  20
ATOM     20  C   LIG    1       -3.573   7.640  -0.540  0.00  0.00    +0.280 C 
BRANCH  20  21
ATOM     21  N   LIG    1       -2.989   7.508  -1.881  0.00  0.00    -0.640 N 
ATOM     22  H   LIG    1       -3.612   6.973  -2.468  0.00  0.00    +0.440 HD
ATOM     23  H   LIG    1       -2.100   7.037  -1.816  0.00  0.00    +0.430 HD
ATOM     24  H   LIG    1       -2.856   8.425  -2.281  0.00  0.00    +0.440 HD
ENDBRANCH  20  21
ENDBRANCH  16  20
ENDBRANCH   1  16
TORSDOF 5
