REMARK  Name = ZINCqH0000032XaH.0
REMARK                            x       y       z     vdW  Elec       q    Type
REMARK                         _______ _______ _______ _____ _____    ______ ____
ROOT
ATOM      1  C   LIG    1        5.997   1.382   0.979  0.00  0.00    +0.380 C 
ENDROOT
BRANCH   1   5
ATOM      2  C   LIG    1        9.132   2.618  -1.645  0.00  0.00    -0.070 A 
ATOM      3  C   LIG    1        9.340   1.574  -0.764  0.00  0.00    +0.020 A 
ATOM      4  C   LIG    1        8.326   1.174   0.086  0.00  0.00    +0.030 A 
ATOM      5  C   LIG    1        7.103   1.818   0.054  0.00  0.00    -0.100 A 
ATOM      6  C   LIG    1        6.894   2.859  -0.831  0.00  0.00    +0.010 A 
ATOM      7  C   LIG    1        7.910   3.263  -1.677  0.00  0.00    +0.010 A 
BRANCH   2   8
ATOM      8  C   LIG    1       10.238   3.054  -2.571  0.00  0.00    +0.060 C 
BRANCH   8   9
ATOM      9  C   LIG    1       10.147   2.268  -3.881  0.00  0.00    +0.010 C 
BRANCH   9  11
ATOM     10  C   LIG    1       11.178   1.925  -6.130  0.00  0.00    +0.000 C 
ATOM     11  C   LIG    1       11.270   2.711  -4.821  0.00  0.00    -0.010 C 
ENDBRANCH   9  11
ENDBRANCH   8   9
ENDBRANCH   2   8
ENDBRANCH   1   5
BRANCH   1  12
ATOM     12  C   LIG    1        5.933   2.316   2.161  0.00  0.00    -0.190 A 
ATOM     13  C   LIG    1        6.443   2.065   3.368  0.00  0.00    +0.020 A 
ATOM     14  C   LIG    1        6.264   3.075   4.297  0.00  0.00    +0.010 A 
ATOM     15  C   LIG    1        5.602   4.142   3.848  0.00  0.00    -0.040 A 
ATOM     16  S   LIG    1        5.168   3.899   2.161  0.00  0.00    +0.100 S 
ENDBRANCH   1  12
BRANCH   1  17
ATOM     17  N   LIG    1        4.720   1.413   0.263  0.00  0.00    -0.720 N 
ATOM     18  H   LIG    1        4.606   1.999  -0.502  0.00  0.00    +0.400 HD
ATOM     19  C   LIG    1        3.702   0.626   0.665  0.00  0.00    +0.530 C 
ATOM     20  O   LIG    1        3.844  -0.107   1.621  0.00  0.00    -0.520 OA
BRANCH  19  21
ATOM     21  C   LIG    1        2.388   0.658  -0.072  0.00  0.00    +0.020 C 
ATOM     22  C   LIG    1        1.403  -0.326   0.583  0.00  0.00    +0.110 C 
ATOM     23  C   LIG    1        0.002  -0.004   0.002  0.00  0.00    -0.310 C 
ATOM     24  S   LIG    1       -0.023   1.829   0.012  0.00  0.00    +2.390 S 
ATOM     25  O   LIG    1       -0.550   2.286   1.250  0.00  0.00    -0.930 OA
ATOM     26  O   LIG    1       -0.573   2.299  -1.211  0.00  0.00    -0.930 OA
ATOM     27  C   LIG    1        1.789   2.077  -0.004  0.00  0.00    -0.310 C 
ENDBRANCH  19  21
ENDBRANCH   1  17
TORSDOF 7
