REMARK  Name = ZINCpe00000MJKeT.0
REMARK                            x       y       z     vdW  Elec       q    Type
REMARK                         _______ _______ _______ _____ _____    ______ ____
ROOT
ATOM      1  C   LIG    1       -3.482  -2.021  -2.777  0.00  0.00    +0.340 C 
ATOM      2  C   LIG    1       -2.775  -2.088  -1.405  0.00  0.00    +0.210 C 
ATOM      3  C   LIG    1       -2.348  -3.573  -1.343  0.00  0.00    +0.030 C 
ATOM      4  C   LIG    1       -2.256  -3.993  -2.793  0.00  0.00    +0.520 C 
ATOM      5  O   LIG    1       -1.689  -4.988  -3.193  0.00  0.00    -0.510 OA
ATOM      6  N   LIG    1       -2.894  -3.104  -3.574  0.00  0.00    -0.620 N 
ATOM      7  C   LIG    1       -2.990  -3.204  -5.032  0.00  0.00    +0.310 C 
ENDROOT
BRANCH   1  13
ATOM      8  C   LIG    1       -5.004  -4.705  -3.076  0.00  0.00    +0.340 C 
ATOM      9  N   LIG    1       -5.614  -3.415  -2.745  0.00  0.00    -0.360 N 
ATOM     10  N   LIG    1       -6.975  -3.183  -2.510  0.00  0.00    -0.290 NA
ATOM     11  C   LIG    1       -7.134  -1.911  -2.245  0.00  0.00    +0.240 A 
ATOM     12  C   LIG    1       -5.880  -1.294  -2.298  0.00  0.00    -0.110 A 
ATOM     13  C   LIG    1       -4.964  -2.240  -2.612  0.00  0.00    +0.070 A 
ENDBRANCH   1  13
BRANCH   2  14
ATOM     14  N   LIG    1       -1.604  -1.202  -1.373  0.00  0.00    -0.670 NA
ATOM     15  H   LIG    1       -0.838  -1.595  -1.899  0.00  0.00    +0.360 HD
BRANCH  14  16
ATOM     16  C   LIG    1       -1.199  -0.914   0.009  0.00  0.00    +0.320 C 
BRANCH  16  17
ATOM     17  C   LIG    1        0.002  -0.004   0.002  0.00  0.00    +0.170 A 
ATOM     18  N   LIG    1        1.253  -0.375  -0.012  0.00  0.00    -0.280 NA
ATOM     19  N   LIG    1        2.013   0.662  -0.014  0.00  0.00    -0.290 NA
ATOM     20  C   LIG    1        1.281   1.743  -0.001  0.00  0.00    +0.190 A 
ATOM     21  N   LIG    1       -0.016   1.351   0.009  0.00  0.00    -0.460 N 
ATOM     22  C   LIG    1       -1.198   2.216   0.020  0.00  0.00    +0.340 C 
BRANCH  20  23
ATOM     23  C   LIG    1        1.784   3.163   0.002  0.00  0.00    +0.070 C 
ATOM     24  C   LIG    1        3.036   3.375  -0.867  0.00  0.00    +0.050 C 
ATOM     25  C   LIG    1        3.557   4.298   0.247  0.00  0.00    +0.020 C 
ATOM     26  C   LIG    1        2.666   3.502   1.216  0.00  0.00    +0.040 C 
ENDBRANCH  20  23
ENDBRANCH  16  17
ENDBRANCH  14  16
ENDBRANCH   2  14
TORSDOF 5
