REMARK  Name = ZINCkj000005jGba.0
REMARK                            x       y       z     vdW  Elec       q    Type
REMARK                         _______ _______ _______ _____ _____    ______ ____
ROOT
ATOM      1  C   LIG    1        2.080   0.291  -1.214  0.00  0.00    +0.180 C 
ATOM      2  C   LIG    1        0.722  -0.413  -1.161  0.00  0.00    +0.150 C 
ATOM      3  N   LIG    1       -0.069   0.140  -0.052  0.00  0.00    -0.520 NA
ATOM      4  C   LIG    1       -0.258   1.588  -0.218  0.00  0.00    +0.160 C 
ATOM      5  C   LIG    1        1.110   2.272  -0.280  0.00  0.00    +0.250 C 
ATOM      6  O   LIG    1        1.876   1.701  -1.345  0.00  0.00    -0.390 OA
ENDROOT
BRANCH   1   8
ATOM      7  C   LIG    1        4.233   0.481  -2.467  0.00  0.00    +0.100 C 
ATOM      8  C   LIG    1        2.876  -0.223  -2.415  0.00  0.00    +0.190 C 
BRANCH   8   9
ATOM      9  N   LIG    1        2.132   0.056  -3.651  0.00  0.00    -0.640 N 
ATOM     10  H   LIG    1        1.991   1.051  -3.742  0.00  0.00    +0.440 HD
ATOM     11  H   LIG    1        1.237  -0.409  -3.617  0.00  0.00    +0.430 HD
ATOM     12  H   LIG    1        2.657  -0.283  -4.443  0.00  0.00    +0.440 HD
ENDBRANCH   8   9
ENDBRANCH   1   8
BRANCH   3  13
ATOM     13  C   LIG    1       -1.360  -0.549   0.069  0.00  0.00    +0.240 C 
BRANCH  13  14
ATOM     14  C   LIG    1       -1.928  -0.314   1.445  0.00  0.00    -0.090 A 
ATOM     15  C   LIG    1       -2.949   0.600   1.621  0.00  0.00    +0.010 A 
ATOM     16  C   LIG    1       -3.470   0.815   2.883  0.00  0.00    +0.010 A 
ATOM     17  C   LIG    1       -2.967   0.118   3.963  0.00  0.00    +0.030 A 
ATOM     18  C   LIG    1       -1.941  -0.797   3.789  0.00  0.00    -0.120 A 
ATOM     19  C   LIG    1       -1.411  -1.528   4.995  0.00  0.00    +0.280 C 
ATOM     20  O   LIG    1       -0.658  -2.673   4.585  0.00  0.00    -0.370 OA
ATOM     21  C   LIG    1        0.355  -2.357   3.623  0.00  0.00    +0.220 C 
ATOM     22  C   LIG    1       -0.325  -2.020   2.296  0.00  0.00    +0.060 C 
ATOM     23  C   LIG    1       -1.428  -1.019   2.528  0.00  0.00    -0.050 A 
ENDBRANCH  13  14
ENDBRANCH   3  13
TORSDOF 4
