REMARK  Name = ZINCrD000000Dc6H.0
REMARK                            x       y       z     vdW  Elec       q    Type
REMARK                         _______ _______ _______ _____ _____    ______ ____
ROOT
ATOM      1  S   LIG    1        1.889   2.992  -1.309  0.00  0.00    +2.690 S 
ATOM      2  O   LIG    1        1.274   2.897  -2.586  0.00  0.00    -0.950 OA
ATOM      3  O   LIG    1        3.279   2.784  -1.098  0.00  0.00    -0.950 OA
ENDROOT
BRANCH   1  10
ATOM      4  O   LIG    1        1.250  10.174   1.916  0.00  0.00    -0.530 OA
ATOM      5  C   LIG    1        1.527   9.058   1.512  0.00  0.00    +0.540 A 
ATOM      6  C   LIG    1        2.754   8.473   1.893  0.00  0.00    -0.050 A 
ATOM      7  C   LIG    1        3.084   7.233   1.457  0.00  0.00    +0.140 A 
ATOM      8  C   LIG    1        2.143   6.524   0.588  0.00  0.00    -0.150 A 
ATOM      9  C   LIG    1        2.429   5.242   0.107  0.00  0.00    +0.210 A 
ATOM     10  C   LIG    1        1.529   4.606  -0.702  0.00  0.00    -0.710 A 
ATOM     11  C   LIG    1        0.338   5.224  -1.055  0.00  0.00    +0.180 A 
ATOM     12  C   LIG    1        0.034   6.485  -0.589  0.00  0.00    -0.030 A 
ATOM     13  C   LIG    1        0.933   7.151   0.236  0.00  0.00    +0.240 A 
ATOM     14  N   LIG    1        0.657   8.415   0.714  0.00  0.00    -0.630 N 
ATOM     15  H   LIG    1       -0.177   8.846   0.471  0.00  0.00    +0.420 HD
ENDBRANCH   1  10
BRANCH   1  16
ATOM     16  N   LIG    1        1.101   1.914  -0.330  0.00  0.00    -0.990 NA
ATOM     17  C   LIG    1       -0.198   1.353  -0.726  0.00  0.00    +0.280 C 
ATOM     18  C   LIG    1       -0.115  -0.175  -0.664  0.00  0.00    +0.020 C 
ATOM     19  C   LIG    1        0.354  -0.601   0.729  0.00  0.00    +0.010 C 
ATOM     20  C   LIG    1        1.750  -0.031   0.995  0.00  0.00    +0.020 C 
ATOM     21  C   LIG    1        1.688   1.499   0.952  0.00  0.00    +0.240 C 
BRANCH  21  22
ATOM     22  C   LIG    1        3.100   2.073   1.079  0.00  0.00    +0.070 C 
BRANCH  22  23
ATOM     23  C   LIG    1        3.647   1.764   2.449  0.00  0.00    -0.080 A 
ATOM     24  C   LIG    1        3.346   2.589   3.516  0.00  0.00    +0.000 A 
ATOM     25  C   LIG    1        3.844   2.303   4.773  0.00  0.00    +0.000 A 
ATOM     26  C   LIG    1        4.651   1.197   4.962  0.00  0.00    +0.000 A 
ATOM     27  C   LIG    1        4.957   0.374   3.894  0.00  0.00    +0.000 A 
ATOM     28  C   LIG    1        4.455   0.658   2.637  0.00  0.00    +0.010 A 
ENDBRANCH  22  23
ENDBRANCH  21  22
ENDBRANCH   1  16
TORSDOF 4
