REMARK  Name = ZINCkj00000dDco3.0
REMARK                            x       y       z     vdW  Elec       q    Type
REMARK                         _______ _______ _______ _____ _____    ______ ____
ROOT
ATOM      1  N   LIG    1       -0.019   0.982   0.007  0.00  0.00    -0.670 N 
ATOM      2  H   LIG    1       -0.050   0.013  -0.018  0.00  0.00    +0.400 HD
ATOM      3  C   LIG    1       -1.165   1.692   0.020  0.00  0.00    +0.460 C 
ATOM      4  O   LIG    1       -1.129   2.902  -0.057  0.00  0.00    -0.460 OA
ENDROOT
BRANCH   1   9
ATOM      5  C   LIG    1        2.533   3.571   0.574  0.00  0.00    -0.060 A 
ATOM      6  C   LIG    1        3.656   2.954   0.055  0.00  0.00    +0.040 A 
ATOM      7  C   LIG    1        3.566   1.683  -0.481  0.00  0.00    +0.020 A 
ATOM      8  C   LIG    1        2.348   1.023  -0.500  0.00  0.00    +0.080 A 
ATOM      9  C   LIG    1        1.215   1.644   0.023  0.00  0.00    +0.100 A 
ATOM     10  C   LIG    1        1.312   2.921   0.555  0.00  0.00    +0.040 A 
BRANCH   5  12
ATOM     11  C   LIG    1        2.385   5.992   0.058  0.00  0.00    +0.030 C 
ATOM     12  C   LIG    1        2.638   4.957   1.157  0.00  0.00    +0.060 C 
ENDBRANCH   5  12
BRANCH   8  13
ATOM     13  O   LIG    1        2.258  -0.227  -1.027  0.00  0.00    -0.500 OA
ATOM     14  H   LIG    1        2.056  -0.241  -1.973  0.00  0.00    +0.390 HD
ENDBRANCH   8  13
ENDBRANCH   1   9
BRANCH   3  15
ATOM     15  C   LIG    1       -2.490   0.983   0.131  0.00  0.00    +0.240 C 
BRANCH  15  16
ATOM     16  C   LIG    1       -2.639   0.397   1.537  0.00  0.00    +0.140 C 
ATOM     17  C   LIG    1       -4.034  -0.214   1.689  0.00  0.00    +0.090 C 
ATOM     18  C   LIG    1       -4.178  -0.798   3.097  0.00  0.00    +0.040 C 
ATOM     19  C   LIG    1       -3.066  -1.825   3.329  0.00  0.00    +0.060 C 
ATOM     20  C   LIG    1       -1.707  -1.155   3.116  0.00  0.00    +0.260 C 
ATOM     21  N   LIG    1       -1.621  -0.640   1.744  0.00  0.00    -0.510 N 
ATOM     22  H   LIG    1       -0.705  -0.246   1.591  0.00  0.00    +0.420 HD
ATOM     23  H   LIG    1       -1.774  -1.395   1.093  0.00  0.00    +0.430 HD
ENDBRANCH  15  16
BRANCH  15  24
ATOM     24  O   LIG    1       -3.549   1.910  -0.113  0.00  0.00    -0.500 OA
ATOM     25  H   LIG    1       -3.571   2.654   0.505  0.00  0.00    +0.400 HD
ENDBRANCH  15  24
ENDBRANCH   3  15
TORSDOF 6
