REMARK  Name = ZINCqH0000034faR.0
REMARK                            x       y       z     vdW  Elec       q    Type
REMARK                         _______ _______ _______ _____ _____    ______ ____
ROOT
ATOM      1  N   LIG    1       -0.018   1.461   0.010  0.00  0.00    -0.740 N 
ATOM      2  H   LIG    1        0.816   1.957   0.005  0.00  0.00    +0.400 HD
ATOM      3  C   LIG    1       -1.194   2.119   0.019  0.00  0.00    +0.710 C 
ATOM      4  N   LIG    1       -1.212   3.466   0.027  0.00  0.00    -0.660 N 
ATOM      5  H   LIG    1       -0.379   3.963   0.025  0.00  0.00    +0.410 HD
ATOM      6  O   LIG    1       -2.239   1.496   0.021  0.00  0.00    -0.580 OA
ENDROOT
BRANCH   4   7
ATOM      7  C   LIG    1       -2.442   4.154   0.036  0.00  0.00    +0.020 A 
ATOM      8  C   LIG    1       -2.603   5.501   0.050  0.00  0.00    +0.190 A 
ATOM      9  N   LIG    1       -3.938   5.754   0.053  0.00  0.00    -0.370 N 
ATOM     10  N   LIG    1       -4.609   4.524   0.050  0.00  0.00    -0.280 NA
ATOM     11  C   LIG    1       -3.716   3.568   0.040  0.00  0.00    +0.260 A 
BRANCH   9  12
ATOM     12  C   LIG    1       -4.565   7.078   0.063  0.00  0.00    +0.400 C 
BRANCH  12  13
ATOM     13  C   LIG    1       -5.523   7.189  -1.095  0.00  0.00    -0.170 A 
ATOM     14  C   LIG    1       -6.850   6.818  -0.947  0.00  0.00    +0.100 A 
ATOM     15  C   LIG    1       -7.695   6.938  -2.040  0.00  0.00    -0.030 A 
ATOM     16  C   LIG    1       -7.190   7.419  -3.232  0.00  0.00    +0.270 A 
ATOM     17  N   LIG    1       -5.921   7.763  -3.337  0.00  0.00    -0.490 NA
ATOM     18  C   LIG    1       -5.090   7.667  -2.318  0.00  0.00    +0.270 A 
ENDBRANCH  12  13
ENDBRANCH   9  12
ENDBRANCH   4   7
BRANCH   1  19
ATOM     19  C   LIG    1        0.002  -0.004   0.002  0.00  0.00    +0.300 C 
ATOM     20  C   LIG    1       -0.103  -0.523   1.437  0.00  0.00    +0.040 C 
BRANCH  19  24
ATOM     21  C   LIG    1        3.655  -1.369  -1.743  0.00  0.00    -0.080 A 
ATOM     22  C   LIG    1        2.468  -2.018  -2.027  0.00  0.00    +0.010 A 
ATOM     23  C   LIG    1        1.286  -1.576  -1.463  0.00  0.00    +0.030 A 
ATOM     24  C   LIG    1        1.291  -0.486  -0.613  0.00  0.00    -0.100 A 
ATOM     25  C   LIG    1        2.477   0.167  -0.333  0.00  0.00    +0.010 A 
ATOM     26  C   LIG    1        3.659  -0.277  -0.894  0.00  0.00    +0.010 A 
BRANCH  21  28
ATOM     27  C   LIG    1        5.169  -1.135  -3.693  0.00  0.00    +0.030 C 
ATOM     28  C   LIG    1        4.943  -1.850  -2.359  0.00  0.00    +0.050 C 
ENDBRANCH  21  28
ENDBRANCH  19  24
ENDBRANCH   1  19
TORSDOF 6
