REMARK  Name = ZINCrD00000k50PL.0
REMARK                            x       y       z     vdW  Elec       q    Type
REMARK                         _______ _______ _______ _____ _____    ______ ____
ROOT
ATOM      1  O   LIG    1       -1.542   2.132  -3.753  0.00  0.00    -0.520 OA
ATOM      2  C   LIG    1       -0.543   1.446  -3.655  0.00  0.00    +0.560 C 
ATOM      3  N   LIG    1       -0.067   1.120  -2.437  0.00  0.00    -0.720 N 
ATOM      4  H   LIG    1        0.730   0.573  -2.358  0.00  0.00    +0.400 HD
ENDROOT
BRANCH   2   5
ATOM      5  C   LIG    1        0.149   0.969  -4.871  0.00  0.00    -0.120 A 
ATOM      6  C   LIG    1        1.295   0.182  -4.761  0.00  0.00    +0.060 A 
ATOM      7  C   LIG    1        1.938  -0.261  -5.905  0.00  0.00    +0.110 A 
ATOM      8  C   LIG    1        1.442   0.079  -7.156  0.00  0.00    +0.080 A 
ATOM      9  C   LIG    1        0.306   0.859  -7.267  0.00  0.00    -0.170 A 
ATOM     10  C   LIG    1       -0.346   1.300  -6.134  0.00  0.00    +0.130 A 
BRANCH   9  11
ATOM     11  C   LIG    1       -0.226   1.223  -8.629  0.00  0.00    +0.510 C 
ATOM     12  F   LIG    1       -0.235   2.615  -8.770  0.00  0.00    -0.170 F 
ATOM     13  F   LIG    1       -1.528   0.732  -8.768  0.00  0.00    -0.170 F 
ATOM     14  F   LIG    1        0.592   0.661  -9.615  0.00  0.00    -0.170 F 
ENDBRANCH   9  11
BRANCH   7  15
ATOM     15  O   LIG    1        3.055  -1.028  -5.803  0.00  0.00    -0.490 OA
ATOM     16  H   LIG    1        2.878  -1.978  -5.772  0.00  0.00    +0.400 HD
ENDBRANCH   7  15
ENDBRANCH   2   5
BRANCH   3  17
ATOM     17  C   LIG    1       -0.753   1.593  -1.232  0.00  0.00    +0.260 C 
BRANCH  17  18
ATOM     18  C   LIG    1       -0.013   1.086   0.008  0.00  0.00    +0.110 C 
BRANCH  18  19
ATOM     19  C   LIG    1       -0.718   1.572   1.248  0.00  0.00    -0.180 A 
ATOM     20  C   LIG    1       -0.420   2.672   1.957  0.00  0.00    +0.240 A 
ATOM     21  N   LIG    1       -1.277   2.791   3.017  0.00  0.00    -0.590 N 
ATOM     22  H   LIG    1       -1.257   3.506   3.672  0.00  0.00    +0.420 HD
ATOM     23  C   LIG    1       -2.171   1.743   3.016  0.00  0.00    +0.090 A 
ATOM     24  C   LIG    1       -3.228   1.385   3.846  0.00  0.00    +0.010 A 
ATOM     25  C   LIG    1       -3.964   0.255   3.567  0.00  0.00    -0.070 A 
ATOM     26  C   LIG    1       -3.655  -0.539   2.471  0.00  0.00    +0.000 A 
ATOM     27  C   LIG    1       -2.618  -0.208   1.645  0.00  0.00    +0.050 A 
ATOM     28  C   LIG    1       -1.863   0.937   1.904  0.00  0.00    -0.090 A 
BRANCH  25  29
ATOM     29  C   LIG    1       -5.112  -0.129   4.466  0.00  0.00    +0.230 C 
BRANCH  29  30
ATOM     30  O   LIG    1       -4.634  -0.976   5.513  0.00  0.00    -0.570 OA
ATOM     31  H   LIG    1       -5.321  -1.262   6.131  0.00  0.00    +0.380 HD
ENDBRANCH  29  30
ENDBRANCH  25  29
ENDBRANCH  18  19
ENDBRANCH  17  18
ENDBRANCH   3  17
TORSDOF 8
