REMARK  Name = ZINCvU0000000DyO.0
REMARK                            x       y       z     vdW  Elec       q    Type
REMARK                         _______ _______ _______ _____ _____    ______ ____
ROOT
ATOM      1  C   LIG    1       -1.701  -0.407  -0.220  0.00  0.00    -0.280 A 
ATOM      2  C   LIG    1       -2.779   0.445  -0.345  0.00  0.00    +0.290 A 
ATOM      3  N   LIG    1       -3.887  -0.304  -0.440  0.00  0.00    -0.350 N 
ATOM      4  N   LIG    1       -3.546  -1.659  -0.378  0.00  0.00    -0.260 NA
ATOM      5  C   LIG    1       -2.243  -1.768  -0.253  0.00  0.00    +0.160 A 
ENDROOT
BRANCH   5   6
ATOM      6  C   LIG    1       -1.469  -3.029  -0.158  0.00  0.00    -0.070 A 
ATOM      7  C   LIG    1       -2.001  -4.141   0.500  0.00  0.00    +0.100 A 
ATOM      8  C   LIG    1       -1.238  -5.295   0.561  0.00  0.00    -0.030 A 
ATOM      9  C   LIG    1        0.014  -5.310  -0.026  0.00  0.00    +0.270 A 
ATOM     10  N   LIG    1        0.490  -4.244  -0.640  0.00  0.00    -0.480 NA
ATOM     11  C   LIG    1       -0.201  -3.127  -0.729  0.00  0.00    +0.290 A 
ENDBRANCH   5   6
BRANCH   1  13
ATOM     12  N   LIG    1        0.272   0.821  -0.977  0.00  0.00    -0.600 N 
ATOM     13  C   LIG    1       -0.284  -0.024  -0.086  0.00  0.00    +0.600 C 
ATOM     14  O   LIG    1        0.383  -0.471   0.827  0.00  0.00    -0.520 OA
BRANCH  12  15
ATOM     15  C   LIG    1       -0.499   1.274  -2.137  0.00  0.00    +0.310 C 
BRANCH  15  17
ATOM     16  C   LIG    1       -0.921   3.626  -2.640  0.00  0.00    +0.040 C 
ATOM     17  C   LIG    1       -1.122   2.613  -1.834  0.00  0.00    -0.080 C 
ENDBRANCH  15  17
ENDBRANCH  12  15
BRANCH  12  18
ATOM     18  C   LIG    1        1.650   1.280  -0.788  0.00  0.00    +0.390 C 
BRANCH  18  19
ATOM     19  C   LIG    1        2.596   0.331  -1.478  0.00  0.00    -0.210 A 
ATOM     20  C   LIG    1        3.006   0.438  -2.742  0.00  0.00    +0.020 A 
ATOM     21  C   LIG    1        3.877  -0.553  -3.159  0.00  0.00    +0.020 A 
ATOM     22  C   LIG    1        4.174  -1.466  -2.232  0.00  0.00    -0.150 A 
ATOM     23 CL   LIG    1        5.236  -2.821  -2.464  0.00  0.00    -0.010 Cl
ATOM     24  S   LIG    1        3.333  -1.083  -0.736  0.00  0.00    +0.200 S 
ENDBRANCH  18  19
ENDBRANCH  12  18
ENDBRANCH   1  13
BRANCH   3  25
ATOM     25  C   LIG    1       -5.248   0.217  -0.587  0.00  0.00    +0.380 C 
BRANCH  25  26
ATOM     26  C   LIG    1       -5.890  -0.390  -1.808  0.00  0.00    -0.120 A 
ATOM     27  C   LIG    1       -5.771   0.237  -3.035  0.00  0.00    +0.020 A 
ATOM     28  C   LIG    1       -6.355  -0.322  -4.156  0.00  0.00    +0.000 A 
ATOM     29  C   LIG    1       -7.067  -1.502  -4.049  0.00  0.00    +0.010 A 
ATOM     30  C   LIG    1       -7.190  -2.126  -2.821  0.00  0.00    +0.010 A 
ATOM     31  C   LIG    1       -6.601  -1.570  -1.701  0.00  0.00    +0.040 A 
ENDBRANCH  25  26
ENDBRANCH   3  25
TORSDOF 8
