REMARK  Name = ZINCqH00000070wq.0
REMARK                            x       y       z     vdW  Elec       q    Type
REMARK                         _______ _______ _______ _____ _____    ______ ____
ROOT
ATOM      1  S   LIG    1       -2.689   0.748  -0.006  0.00  0.00    +0.130 S 
ENDROOT
BRANCH   1   6
ATOM      2  N   LIG    1       -5.376   1.502  -0.011  0.00  0.00    -0.300 N 
ATOM      3  N   LIG    1       -6.080   2.719  -0.009  0.00  0.00    -0.070 NA
ATOM      4  N   LIG    1       -5.199   3.659  -0.005  0.00  0.00    -0.020 NA
ATOM      5  N   LIG    1       -4.014   3.164   0.003  0.00  0.00    -0.330 NA
ATOM      6  C   LIG    1       -4.064   1.849  -0.006  0.00  0.00    +0.190 A 
BRANCH   2  10
ATOM      7  C   LIG    1       -6.976  -2.351  -0.025  0.00  0.00    +0.150 A 
ATOM      8  C   LIG    1       -7.621  -1.335   0.665  0.00  0.00    +0.020 A 
ATOM      9  C   LIG    1       -7.091  -0.060   0.670  0.00  0.00    +0.100 A 
ATOM     10  C   LIG    1       -5.914   0.205  -0.015  0.00  0.00    +0.070 A 
ATOM     11  C   LIG    1       -5.272  -0.810  -0.711  0.00  0.00    +0.070 A 
ATOM     12  C   LIG    1       -5.799  -2.086  -0.711  0.00  0.00    -0.040 A 
BRANCH   7  14
ATOM     13  C   LIG    1       -6.782  -4.604  -0.762  0.00  0.00    +0.250 C 
ATOM     14  O   LIG    1       -7.497  -3.607  -0.030  0.00  0.00    -0.310 OA
ENDBRANCH   7  14
ENDBRANCH   2  10
ENDBRANCH   1   6
BRANCH   1  15
ATOM     15  C   LIG    1       -1.330   1.944   0.001  0.00  0.00    +0.110 C 
BRANCH  15  16
ATOM     16  C   LIG    1       -0.014   1.208   0.002  0.00  0.00    +0.540 C 
ATOM     17  N   LIG    1        1.143   1.898   0.001  0.00  0.00    -0.660 N 
ATOM     18  H   LIG    1        1.131   2.866  -0.062  0.00  0.00    +0.420 HD
ATOM     19  O   LIG    1        0.003  -0.004  -0.001  0.00  0.00    -0.500 OA
BRANCH  17  20
ATOM     20  C   LIG    1        2.364   1.218   0.092  0.00  0.00    +0.160 A 
ATOM     21  C   LIG    1        2.513  -0.025  -0.507  0.00  0.00    +0.050 A 
ATOM     22  C   LIG    1        3.720  -0.692  -0.421  0.00  0.00    +0.070 A 
ATOM     23  C   LIG    1        4.776  -0.128   0.270  0.00  0.00    +0.040 A 
ATOM     24  C   LIG    1        4.630   1.109   0.874  0.00  0.00    -0.010 A 
ATOM     25 CL   LIG    1        5.959   1.813   1.741  0.00  0.00    -0.040 Cl
ATOM     26  C   LIG    1        3.426   1.784   0.786  0.00  0.00    -0.060 A 
ATOM     27 CL   LIG    1        3.242   3.335   1.544  0.00  0.00    -0.040 Cl
ENDBRANCH  17  20
ENDBRANCH  15  16
ENDBRANCH   1  15
TORSDOF 6
