REMARK  Name = ZINCrH000004ou61.0
REMARK                            x       y       z     vdW  Elec       q    Type
REMARK                         _______ _______ _______ _____ _____    ______ ____
ROOT
ATOM      1  N   LIG    1       -1.140  -6.680  -2.018  0.00  0.00    -0.630 N 
ATOM      2  C   LIG    1       -0.117  -5.863  -1.697  0.00  0.00    +0.710 C 
ATOM      3  N   LIG    1       -0.361  -4.675  -1.111  0.00  0.00    -0.740 N 
ATOM      4  H   LIG    1       -1.274  -4.407  -0.920  0.00  0.00    +0.400 HD
ATOM      5  O   LIG    1        1.027  -6.199  -1.937  0.00  0.00    -0.580 OA
ATOM      6  C   LIG    1       -2.518  -6.275  -1.729  0.00  0.00    +0.280 C 
ENDROOT
BRANCH   1   8
ATOM      7  C   LIG    1       -1.548  -9.085  -1.850  0.00  0.00    +0.050 C 
ATOM      8  C   LIG    1       -0.875  -7.972  -2.655  0.00  0.00    +0.310 C 
BRANCH   8   9
ATOM      9  C   LIG    1       -1.425  -7.963  -4.058  0.00  0.00    -0.100 A 
ATOM     10  C   LIG    1       -2.767  -7.715  -4.272  0.00  0.00    +0.080 A 
ATOM     11  C   LIG    1       -3.271  -7.702  -5.560  0.00  0.00    +0.030 A 
ATOM     12  C   LIG    1       -2.434  -7.947  -6.632  0.00  0.00    +0.100 A 
ATOM     13  C   LIG    1       -1.092  -8.200  -6.417  0.00  0.00    -0.040 A 
ATOM     14  C   LIG    1       -0.587  -8.208  -5.130  0.00  0.00    +0.120 A 
BRANCH  13  15
ATOM     15  N   LIG    1       -0.195  -8.463  -7.565  0.00  0.00    +0.030 N 
ATOM     16  O   LIG    1       -0.640  -8.456  -8.699  0.00  0.00    -0.160 OA
ATOM     17  O   LIG    1        0.987  -8.686  -7.376  0.00  0.00    -0.150 OA
ENDBRANCH  13  15
ENDBRANCH   8   9
ENDBRANCH   1   8
BRANCH   3  18
ATOM     18  C   LIG    1        0.751  -3.787  -0.763  0.00  0.00    +0.310 C 
ATOM     19  C   LIG    1        1.309  -4.182   0.606  0.00  0.00    +0.040 C 
BRANCH  18  20
ATOM     20  C   LIG    1        0.261  -2.363  -0.714  0.00  0.00    -0.080 A 
ATOM     21  C   LIG    1       -0.975  -2.077  -0.166  0.00  0.00    +0.030 A 
ATOM     22  C   LIG    1       -1.429  -0.772  -0.118  0.00  0.00    +0.040 A 
ATOM     23  C   LIG    1       -0.645   0.253  -0.622  0.00  0.00    +0.030 A 
ATOM     24  O   LIG    1       -0.854   1.600  -0.697  0.00  0.00    -0.310 OA
ATOM     25  C   LIG    1        0.444   2.179  -0.927  0.00  0.00    +0.430 C 
ATOM     26  O   LIG    1        1.172   1.132  -1.596  0.00  0.00    -0.310 OA
ATOM     27  C   LIG    1        0.601  -0.035  -1.175  0.00  0.00    +0.040 A 
ATOM     28  C   LIG    1        1.050  -1.345  -1.218  0.00  0.00    +0.050 A 
ENDBRANCH  18  20
ENDBRANCH   3  18
TORSDOF 5
