REMARK  Name = ZINCpk00000k5qVh.0
REMARK                            x       y       z     vdW  Elec       q    Type
REMARK                         _______ _______ _______ _____ _____    ______ ____
ROOT
ATOM      1  C   LIG    1       -2.811  -4.065   1.717  0.00  0.00    +0.050 C 
ATOM      2  C   LIG    1       -2.728  -2.925   0.687  0.00  0.00    +0.070 C 
ATOM      3  C   LIG    1       -3.117  -1.973   1.828  0.00  0.00    +0.130 C 
ATOM      4  N   LIG    1       -4.058  -0.936   1.423  0.00  0.00    -0.700 N 
ATOM      5  H   LIG    1       -4.957  -1.189   1.158  0.00  0.00    +0.410 HD
ATOM      6  C   LIG    1       -3.712   0.356   1.407  0.00  0.00    +0.520 C 
ATOM      7  C   LIG    1       -2.343   0.838   1.777  0.00  0.00    +0.260 C 
ATOM      8  N   LIG    1       -1.610  -0.145   2.559  0.00  0.00    -0.710 N 
ATOM      9  H   LIG    1       -0.849   0.153   3.082  0.00  0.00    +0.410 HD
ATOM     10  O   LIG    1       -4.546   1.173   1.079  0.00  0.00    -0.520 OA
ATOM     11  C   LIG    1       -1.937  -1.444   2.591  0.00  0.00    +0.530 C 
ATOM     12  O   LIG    1       -1.265  -2.209   3.249  0.00  0.00    -0.480 OA
ATOM     13  C   LIG    1       -3.789  -3.177   2.505  0.00  0.00    +0.140 C 
ENDROOT
BRANCH   1  14
ATOM     14  C   LIG    1       -3.447  -5.343   1.167  0.00  0.00    +0.440 C 
ATOM     15  F   LIG    1       -4.789  -5.099   0.855  0.00  0.00    -0.180 F 
ATOM     16  F   LIG    1       -3.369  -6.354   2.130  0.00  0.00    -0.170 F 
ATOM     17  F   LIG    1       -2.765  -5.744   0.013  0.00  0.00    -0.180 F 
ENDBRANCH   1  14
BRANCH   1  19
ATOM     18  C   LIG    1       -0.531  -4.787   1.558  0.00  0.00    +0.210 C 
ATOM     19  O   LIG    1       -1.580  -4.308   2.402  0.00  0.00    -0.300 OA
ENDBRANCH   1  19
BRANCH   7  20
ATOM     20  C   LIG    1       -1.560   1.139   0.497  0.00  0.00    +0.090 C 
BRANCH  20  21
ATOM     21  C   LIG    1       -0.239   1.769   0.854  0.00  0.00    -0.060 A 
ATOM     22  C   LIG    1       -0.137   3.143   0.970  0.00  0.00    +0.010 A 
ATOM     23  C   LIG    1        1.076   3.723   1.291  0.00  0.00    +0.050 A 
ATOM     24  C   LIG    1        2.187   2.930   1.502  0.00  0.00    -0.010 A 
ATOM     25  C   LIG    1        2.086   1.553   1.392  0.00  0.00    +0.100 A 
ATOM     26  F   LIG    1        3.172   0.776   1.598  0.00  0.00    -0.140 F 
ATOM     27  C   LIG    1        0.871   0.974   1.070  0.00  0.00    -0.020 A 
ENDBRANCH  20  21
ENDBRANCH   7  20
TORSDOF 4
