REMARK  Name = ZINCrH000004jOTG.0
REMARK                            x       y       z     vdW  Elec       q    Type
REMARK                         _______ _______ _______ _____ _____    ______ ____
ROOT
ATOM      1  C   LIG    1       -1.488  -5.103   0.221  0.00  0.00    +0.190 C 
ATOM      2  N   LIG    1       -2.307  -4.269  -0.668  0.00  0.00    -0.520 NA
ENDROOT
BRANCH   2   3
ATOM      3  C   LIG    1       -2.570  -2.956  -0.064  0.00  0.00    +0.220 C 
BRANCH   3   4
ATOM      4  C   LIG    1       -1.277  -2.191   0.057  0.00  0.00    +0.500 C 
ATOM      5  N   LIG    1       -1.274  -0.952   0.587  0.00  0.00    -0.680 N 
ATOM      6  H   LIG    1       -2.096  -0.572   0.938  0.00  0.00    +0.410 HD
ATOM      7  O   LIG    1       -0.239  -2.690  -0.323  0.00  0.00    -0.470 OA
BRANCH   5   8
ATOM      8  C   LIG    1       -0.087  -0.211   0.632  0.00  0.00    +0.170 A 
ATOM      9  C   LIG    1        0.768  -0.200  -0.464  0.00  0.00    -0.030 A 
ATOM     10  C   LIG    1        1.940   0.532  -0.416  0.00  0.00    +0.050 A 
ATOM     11  C   LIG    1        2.261   1.252   0.720  0.00  0.00    +0.030 A 
ATOM     12  C   LIG    1        1.413   1.243   1.812  0.00  0.00    +0.050 A 
ATOM     13 CL   LIG    1        0.368  -1.109  -1.887  0.00  0.00    -0.020 Cl
ATOM     14  C   LIG    1        0.240   0.513   1.771  0.00  0.00    -0.050 A 
ATOM     15 CL   LIG    1       -0.824   0.502   3.143  0.00  0.00    -0.050 Cl
ENDBRANCH   5   8
ENDBRANCH   3   4
ENDBRANCH   2   3
BRANCH   2  16
ATOM     16  C   LIG    1       -3.561  -4.947  -1.020  0.00  0.00    +0.210 C 
BRANCH  16  17
ATOM     17  C   LIG    1       -3.252  -6.185  -1.864  0.00  0.00    +0.070 C 
BRANCH  17  18
ATOM     18  C   LIG    1       -4.540  -6.881  -2.225  0.00  0.00    +0.520 C 
ATOM     19  N   LIG    1       -4.513  -8.003  -2.971  0.00  0.00    -0.670 N 
ATOM     20  H   LIG    1       -3.663  -8.399  -3.222  0.00  0.00    +0.410 HD
ATOM     21  O   LIG    1       -5.599  -6.431  -1.844  0.00  0.00    -0.510 OA
BRANCH  19  22
ATOM     22  C   LIG    1       -5.706  -8.596  -3.382  0.00  0.00    +0.200 A 
ATOM     23  C   LIG    1       -6.855  -8.452  -2.618  0.00  0.00    +0.030 A 
ATOM     24  C   LIG    1       -8.036  -9.040  -3.026  0.00  0.00    +0.070 A 
ATOM     25  C   LIG    1       -8.084  -9.775  -4.199  0.00  0.00    +0.000 A 
ATOM     26  C   LIG    1       -6.952  -9.929  -4.971  0.00  0.00    +0.090 A 
ATOM     27  C   LIG    1       -5.752  -9.335  -4.574  0.00  0.00    -0.060 A 
BRANCH  27  28
ATOM     28  C   LIG    1       -4.574  -9.485  -5.374  0.00  0.00    +0.250 C 
ATOM     29  N   LIG    1       -3.640  -9.604  -6.009  0.00  0.00    -0.410 NA
ENDBRANCH  27  28
ENDBRANCH  19  22
ENDBRANCH  17  18
ENDBRANCH  16  17
ENDBRANCH   2  16
TORSDOF 8
