REMARK  Name = ZINCrH000004uSeY.0
REMARK                            x       y       z     vdW  Elec       q    Type
REMARK                         _______ _______ _______ _____ _____    ______ ____
ROOT
ATOM      1  O   LIG    1       -5.983   2.551  -1.722  0.00  0.00    -0.580 OA
ATOM      2  C   LIG    1       -6.069   3.319  -0.783  0.00  0.00    +0.710 C 
ATOM      3  N   LIG    1       -7.265   3.840  -0.447  0.00  0.00    -0.630 N 
ATOM      4  C   LIG    1       -8.501   3.424  -1.130  0.00  0.00    +0.320 C 
ATOM      5  C   LIG    1       -9.393   2.731  -0.093  0.00  0.00    +0.060 C 
ATOM      6  C   LIG    1       -9.482   3.548   1.168  0.00  0.00    -0.010 A 
ATOM      7  C   LIG    1       -8.559   4.515   1.499  0.00  0.00    -0.100 A 
ATOM      8  C   LIG    1       -8.694   5.221   2.687  0.00  0.00    +0.060 A 
ATOM      9  C   LIG    1       -9.750   4.966   3.537  0.00  0.00    +0.020 A 
ATOM     10  C   LIG    1      -10.682   4.001   3.203  0.00  0.00    +0.070 A 
ATOM     11  C   LIG    1      -10.548   3.297   2.025  0.00  0.00    -0.190 A 
ATOM     12  C   LIG    1       -7.388   4.849   0.611  0.00  0.00    +0.340 C 
ATOM     13  N   LIG    1       -4.968   3.649  -0.079  0.00  0.00    -0.740 N 
ATOM     14  H   LIG    1       -5.023   4.317   0.622  0.00  0.00    +0.400 HD
ENDROOT
BRANCH  13  15
ATOM     15  C   LIG    1       -3.688   2.998  -0.373  0.00  0.00    +0.240 C 
ATOM     16  C   LIG    1       -3.583   1.684   0.412  0.00  0.00    +0.230 C 
ATOM     17  O   LIG    1       -2.376   1.025   0.027  0.00  0.00    -0.310 OA
ATOM     18  C   LIG    1       -1.229   1.752   0.021  0.00  0.00    +0.130 A 
ATOM     19  C   LIG    1       -0.014   1.075   0.013  0.00  0.00    -0.020 A 
ATOM     20  C   LIG    1        1.174   1.778   0.004  0.00  0.00    +0.050 A 
ATOM     21  C   LIG    1        1.157   3.160   0.007  0.00  0.00    -0.020 A 
ATOM     22  C   LIG    1       -0.047   3.836   0.023  0.00  0.00    +0.050 A 
ATOM     23  C   LIG    1       -1.242   3.136   0.034  0.00  0.00    -0.160 A 
ATOM     24  C   LIG    1       -2.536   3.909   0.057  0.00  0.00    +0.090 C 
ENDBRANCH  13  15
BRANCH  11  25
ATOM     25  C   LIG    1      -11.566   2.246   1.662  0.00  0.00    +0.510 C 
ATOM     26  F   LIG    1      -10.930   1.006   1.534  0.00  0.00    -0.170 F 
ATOM     27  F   LIG    1      -12.175   2.586   0.450  0.00  0.00    -0.170 F 
ATOM     28  F   LIG    1      -12.536   2.171   2.667  0.00  0.00    -0.180 F 
ENDBRANCH  11  25
TORSDOF 2
