REMARK  Name = ZINCnE00000dSRQ3.1
REMARK                            x       y       z     vdW  Elec       q    Type
REMARK                         _______ _______ _______ _____ _____    ______ ____
ROOT
ATOM      1  C   LIG    1       -1.268   2.106   0.020  0.00  0.00    +0.610 C 
ATOM      2  N   LIG    1       -2.455   1.468   0.022  0.00  0.00    -0.600 N 
ATOM      3  C   LIG    1       -2.644   0.006   0.009  0.00  0.00    +0.290 C 
ATOM      4  C   LIG    1       -4.048  -0.216   0.633  0.00  0.00    +0.010 C 
ATOM      5  C   LIG    1       -4.835   0.992   0.058  0.00  0.00    +0.040 C 
ATOM      6  C   LIG    1       -3.776   2.114   0.032  0.00  0.00    +0.250 C 
ATOM      7  O   LIG    1       -1.232   3.322   0.026  0.00  0.00    -0.550 OA
ENDROOT
BRANCH   1  10
ATOM      8  C   LIG    1        1.177  -0.549  -0.012  0.00  0.00    +0.360 A 
ATOM      9  N   LIG    1        0.002  -0.004   0.002  0.00  0.00    -0.530 NA
ATOM     10  C   LIG    1       -0.016   1.332   0.009  0.00  0.00    +0.030 A 
ATOM     11  C   LIG    1        1.199   1.919   0.001  0.00  0.00    -0.150 A 
ATOM     12  S   LIG    1        2.407   0.709  -0.017  0.00  0.00    +0.050 S 
BRANCH   8  15
ATOM     13  C   LIG    1        2.968  -3.850  -0.047  0.00  0.00    +0.060 C 
ATOM     14  C   LIG    1        2.696  -2.368  -0.036  0.00  0.00    +0.450 C 
ATOM     15  N   LIG    1        1.427  -1.915  -0.022  0.00  0.00    -0.660 NA
ATOM     16  O   LIG    1        3.620  -1.582  -0.041  0.00  0.00    -0.610 OA
ENDBRANCH   8  15
ENDBRANCH   1  10
BRANCH   6  17
ATOM     17  C   LIG    1       -3.946   2.951  -1.209  0.00  0.00    -0.030 C 
ATOM     18  C   LIG    1       -4.089   4.269  -1.108  0.00  0.00    +0.060 C 
BRANCH  18  19
ATOM     19  C   LIG    1       -4.255   5.086  -2.320  0.00  0.00    -0.130 A 
ATOM     20  C   LIG    1       -4.409   6.428  -2.342  0.00  0.00    +0.000 A 
ATOM     21  C   LIG    1       -4.546   6.971  -3.601  0.00  0.00    +0.010 A 
ATOM     22  C   LIG    1       -4.507   6.090  -4.606  0.00  0.00    -0.070 A 
ATOM     23  S   LIG    1       -4.278   4.468  -3.967  0.00  0.00    +0.110 S 
ENDBRANCH  18  19
ENDBRANCH   6  17
TORSDOF 4
