REMARK  Name = ZINCqH0000031ywh.0
REMARK                            x       y       z     vdW  Elec       q    Type
REMARK                         _______ _______ _______ _____ _____    ______ ____
ROOT
ATOM      1  C   LIG    1        3.565   3.591  -0.006  0.00  0.00    +0.100 A 
ATOM      2  C   LIG    1        2.357   4.256  -0.165  0.00  0.00    +0.020 A 
ATOM      3  C   LIG    1        1.172   3.548  -0.151  0.00  0.00    -0.050 A 
ATOM      4  C   LIG    1        1.189   2.170   0.020  0.00  0.00    +0.200 A 
ATOM      5  C   LIG    1        2.397   1.506   0.184  0.00  0.00    -0.060 A 
ATOM      6  C   LIG    1        3.582   2.214   0.165  0.00  0.00    +0.060 A 
ENDROOT
BRANCH   1  10
ATOM      7  N   LIG    1        7.062   4.399  -0.441  0.00  0.00    -0.740 N 
ATOM      8  H   LIG    1        7.107   5.269  -0.016  0.00  0.00    +0.400 HD
ATOM      9  C   LIG    1        5.884   3.750  -0.526  0.00  0.00    +0.700 C 
ATOM     10  N   LIG    1        4.768   4.311  -0.019  0.00  0.00    -0.680 N 
ATOM     11  H   LIG    1        4.797   5.213   0.337  0.00  0.00    +0.400 HD
ATOM     12  O   LIG    1        5.827   2.659  -1.059  0.00  0.00    -0.570 OA
BRANCH   7  13
ATOM     13  C   LIG    1        8.275   3.789  -0.992  0.00  0.00    +0.320 C 
BRANCH  13  15
ATOM     14  C   LIG    1       10.514   4.275  -0.148  0.00  0.00    +0.040 C 
ATOM     15  C   LIG    1        9.446   4.711  -0.770  0.00  0.00    -0.060 C 
ENDBRANCH  13  15
ENDBRANCH   7  13
ENDBRANCH   1  10
BRANCH   4  16
ATOM     16  N   LIG    1       -0.012   1.451   0.034  0.00  0.00    -0.750 N 
ATOM     17  H   LIG    1       -0.856   1.915  -0.081  0.00  0.00    +0.400 HD
BRANCH  16  18
ATOM     18  C   LIG    1        0.006  -0.002   0.215  0.00  0.00    +0.310 C 
BRANCH  18  19
ATOM     19  C   LIG    1       -1.405  -0.529   0.192  0.00  0.00    -0.080 A 
ATOM     20  C   LIG    1       -1.978  -0.917  -1.005  0.00  0.00    +0.020 A 
ATOM     21  C   LIG    1       -3.273  -1.402  -1.030  0.00  0.00    +0.050 A 
ATOM     22  C   LIG    1       -3.998  -1.499   0.141  0.00  0.00    +0.000 A 
ATOM     23  C   LIG    1       -3.426  -1.110   1.344  0.00  0.00    +0.160 A 
ATOM     24  C   LIG    1       -2.124  -0.629   1.367  0.00  0.00    +0.040 A 
BRANCH  23  25
ATOM     25  N   LIG    1       -4.160  -1.207   2.535  0.00  0.00    -0.330 N 
ATOM     26  C   LIG    1       -5.392  -1.748   2.668  0.00  0.00    +0.230 A 
ATOM     27  C   LIG    1       -5.747  -1.649   3.970  0.00  0.00    -0.100 A 
ATOM     28  C   LIG    1       -4.697  -1.027   4.656  0.00  0.00    +0.250 A 
ATOM     29  N   LIG    1       -3.744  -0.767   3.798  0.00  0.00    -0.290 NA
ENDBRANCH  23  25
ENDBRANCH  18  19
ENDBRANCH  16  18
ENDBRANCH   4  16
TORSDOF 7
