REMARK  Name = ZINCvU0000000FcW.0
REMARK                            x       y       z     vdW  Elec       q    Type
REMARK                         _______ _______ _______ _____ _____    ______ ____
ROOT
ATOM      1  C   LIG    1        0.186   4.277   1.825  0.00  0.00    +0.290 A 
ATOM      2  N   LIG    1       -0.145   5.523   1.648  0.00  0.00    -0.480 NA
ATOM      3  C   LIG    1       -1.327   5.591   0.982  0.00  0.00    +0.050 A 
ATOM      4  C   LIG    1       -2.126   6.650   0.545  0.00  0.00    +0.070 A 
ATOM      5  C   LIG    1       -3.294   6.393  -0.116  0.00  0.00    +0.000 A 
ATOM      6  C   LIG    1       -3.697   5.088  -0.360  0.00  0.00    +0.030 A 
ATOM      7  C   LIG    1       -2.923   4.027   0.062  0.00  0.00    +0.010 A 
ATOM      8  C   LIG    1       -1.734   4.269   0.735  0.00  0.00    +0.050 A 
ATOM      9  N   LIG    1       -0.754   3.461   1.277  0.00  0.00    -0.480 N 
ENDROOT
BRANCH   1  12
ATOM     10  N   LIG    1        2.968   4.682   4.151  0.00  0.00    -0.570 N 
ATOM     11  C   LIG    1        1.537   4.429   3.940  0.00  0.00    +0.300 C 
ATOM     12  C   LIG    1        1.432   3.807   2.531  0.00  0.00    +0.090 C 
ATOM     13  C   LIG    1        2.700   4.364   1.844  0.00  0.00    +0.090 C 
ATOM     14  C   LIG    1        3.644   4.656   2.990  0.00  0.00    +0.530 C 
ATOM     15  O   LIG    1        4.838   4.842   2.877  0.00  0.00    -0.510 OA
BRANCH  10  21
ATOM     16  C   LIG    1        5.129   2.941   8.210  0.00  0.00    +0.090 C 
ATOM     17  C   LIG    1        4.608   4.093   7.389  0.00  0.00    -0.080 A 
ATOM     18  C   LIG    1        4.708   5.385   7.870  0.00  0.00    +0.020 A 
ATOM     19  C   LIG    1        4.232   6.445   7.120  0.00  0.00    +0.020 A 
ATOM     20  C   LIG    1        3.655   6.215   5.886  0.00  0.00    +0.020 A 
ATOM     21  C   LIG    1        3.552   4.918   5.400  0.00  0.00    +0.140 A 
ATOM     22  C   LIG    1        4.026   3.856   6.159  0.00  0.00    -0.080 A 
ATOM     23  C   LIG    1        3.911   2.446   5.638  0.00  0.00    +0.090 C 
ENDBRANCH  10  21
ENDBRANCH   1  12
BRANCH   9  24
ATOM     24  C   LIG    1       -0.735   1.996   1.269  0.00  0.00    +0.310 C 
BRANCH  24  25
ATOM     25  C   LIG    1       -0.018   1.503   0.010  0.00  0.00    +0.060 C 
BRANCH  25  26
ATOM     26  C   LIG    1        0.002  -0.004   0.002  0.00  0.00    -0.090 A 
ATOM     27  C   LIG    1        1.057  -0.684   0.582  0.00  0.00    +0.010 A 
ATOM     28  C   LIG    1        1.073  -2.066   0.578  0.00  0.00    +0.000 A 
ATOM     29  C   LIG    1        0.040  -2.768  -0.013  0.00  0.00    +0.000 A 
ATOM     30  C   LIG    1       -1.012  -2.088  -0.598  0.00  0.00    +0.000 A 
ATOM     31  C   LIG    1       -1.031  -0.706  -0.591  0.00  0.00    +0.010 A 
ENDBRANCH  25  26
ENDBRANCH  24  25
ENDBRANCH   9  24
TORSDOF 5
