REMARK  Name = ZINCqH0000006LJz.0
REMARK                            x       y       z     vdW  Elec       q    Type
REMARK                         _______ _______ _______ _____ _____    ______ ____
ROOT
ATOM      1  C   LIG    1       -4.666   8.080  -1.394  0.00  0.00    +0.070 C 
ENDROOT
BRANCH   1   2
ATOM      2  C   LIG    1       -3.929   6.997  -0.648  0.00  0.00    +0.510 C 
ATOM      3  N   LIG    1       -3.279   6.033  -1.329  0.00  0.00    -0.670 N 
ATOM      4  H   LIG    1       -3.220   6.077  -2.296  0.00  0.00    +0.410 HD
ATOM      5  O   LIG    1       -3.922   6.994   0.564  0.00  0.00    -0.520 OA
BRANCH   3   6
ATOM      6  C   LIG    1       -2.689   4.967  -0.641  0.00  0.00    +0.140 A 
ATOM      7  C   LIG    1       -3.271   4.482   0.523  0.00  0.00    +0.020 A 
ATOM      8  C   LIG    1       -2.684   3.431   1.199  0.00  0.00    +0.030 A 
ATOM      9  C   LIG    1       -1.518   2.857   0.721  0.00  0.00    -0.110 A 
ATOM     10  C   LIG    1       -0.691   1.712   1.274  0.00  0.00    +0.080 C 
ATOM     11  C   LIG    1        0.678   1.831   0.572  0.00  0.00    +0.030 C 
ATOM     12  C   LIG    1        0.319   2.548  -0.747  0.00  0.00    +0.080 C 
ATOM     13  C   LIG    1       -0.936   3.338  -0.439  0.00  0.00    -0.080 A 
ATOM     14  C   LIG    1       -1.520   4.391  -1.119  0.00  0.00    -0.010 A 
ENDBRANCH   3   6
ENDBRANCH   1   2
BRANCH   1  15
ATOM     15  C   LIG    1       -5.312   9.040  -0.393  0.00  0.00    +0.110 C 
BRANCH  15  18
ATOM     16  C   LIG    1       -8.059  10.940  -2.162  0.00  0.00    +0.150 A 
ATOM     17  C   LIG    1       -7.377   9.946  -1.476  0.00  0.00    -0.090 A 
ATOM     18  C   LIG    1       -6.048  10.123  -1.139  0.00  0.00    -0.010 A 
ATOM     19  C   LIG    1       -5.395  11.292  -1.480  0.00  0.00    -0.090 A 
ATOM     20  C   LIG    1       -6.067  12.288  -2.171  0.00  0.00    +0.150 A 
ATOM     21  C   LIG    1       -7.404  12.115  -2.511  0.00  0.00    +0.020 A 
BRANCH  16  23
ATOM     22  C   LIG    1       -9.976   9.534  -2.101  0.00  0.00    +0.240 C 
ATOM     23  O   LIG    1       -9.367  10.765  -2.492  0.00  0.00    -0.300 OA
ENDBRANCH  16  23
BRANCH  20  24
ATOM     24  O   LIG    1       -5.422  13.436  -2.510  0.00  0.00    -0.300 OA
ATOM     25  C   LIG    1       -4.049  13.546  -2.128  0.00  0.00    +0.240 C 
ENDBRANCH  20  24
BRANCH  21  26
ATOM     26  O   LIG    1       -8.069  13.093  -3.184  0.00  0.00    -0.310 OA
ATOM     27  C   LIG    1       -8.736  14.083  -2.398  0.00  0.00    +0.210 C 
ENDBRANCH  21  26
ENDBRANCH  15  18
ENDBRANCH   1  15
TORSDOF 7
