REMARK  Name = ZINCqH0000007CDj.0
REMARK                            x       y       z     vdW  Elec       q    Type
REMARK                         _______ _______ _______ _____ _____    ______ ____
ROOT
ATOM      1  C   LIG    1        0.020   5.621  -0.258  0.00  0.00    +0.320 A 
ATOM      2  C   LIG    1       -1.057   6.452  -0.179  0.00  0.00    -0.230 A 
ATOM      3  C   LIG    1       -2.570   6.460  -0.179  0.00  0.00    +0.130 C 
ATOM      4  C   LIG    1       -2.970   7.829   0.409  0.00  0.00    +0.030 C 
ATOM      5  C   LIG    1       -1.753   8.714   0.065  0.00  0.00    +0.140 C 
ATOM      6  C   LIG    1       -0.582   7.759  -0.032  0.00  0.00    +0.070 A 
ATOM      7  N   LIG    1        0.729   7.724  -0.030  0.00  0.00    -0.260 NA
ATOM      8  N   LIG    1        1.137   6.392  -0.170  0.00  0.00    -0.340 N 
ENDROOT
BRANCH   8   9
ATOM      9  C   LIG    1        2.462   5.935  -0.213  0.00  0.00    +0.160 A 
ATOM     10  C   LIG    1        2.816   4.767   0.448  0.00  0.00    -0.030 A 
ATOM     11  C   LIG    1        4.120   4.316   0.400  0.00  0.00    +0.050 A 
ATOM     12  C   LIG    1        5.076   5.033  -0.297  0.00  0.00    +0.010 A 
ATOM     13  C   LIG    1        4.727   6.200  -0.952  0.00  0.00    +0.050 A 
ATOM     14  C   LIG    1        3.423   6.653  -0.912  0.00  0.00    +0.030 A 
ENDBRANCH   8   9
BRANCH   1  16
ATOM     15  C   LIG    1       -1.073   3.650  -1.003  0.00  0.00    +0.560 C 
ATOM     16  N   LIG    1       -0.017   4.236  -0.406  0.00  0.00    -0.650 N 
ATOM     17  H   LIG    1        0.718   3.694  -0.079  0.00  0.00    +0.410 HD
ATOM     18  O   LIG    1       -2.031   4.320  -1.339  0.00  0.00    -0.470 OA
BRANCH  15  23
ATOM     19  C   LIG    1       -2.147   0.215  -2.098  0.00  0.00    +0.090 A 
ATOM     20  C   LIG    1       -1.050  -0.541  -1.712  0.00  0.00    +0.000 A 
ATOM     21  C   LIG    1        0.034   0.063  -1.099  0.00  0.00    +0.050 A 
ATOM     22  C   LIG    1        0.032   1.422  -0.867  0.00  0.00    +0.030 A 
ATOM     23  C   LIG    1       -1.067   2.194  -1.251  0.00  0.00    -0.140 A 
ATOM     24  C   LIG    1       -2.160   1.584  -1.871  0.00  0.00    +0.140 A 
ATOM     25  F   LIG    1       -3.227   2.323  -2.247  0.00  0.00    -0.100 F 
BRANCH  19  27
ATOM     26  C   LIG    1       -3.126  -1.797  -2.904  0.00  0.00    +0.250 C 
ATOM     27  O   LIG    1       -3.208  -0.385  -2.700  0.00  0.00    -0.300 OA
ENDBRANCH  19  27
ENDBRANCH  15  23
ENDBRANCH   1  16
TORSDOF 4
