REMARK  Name = ZINCrD0000073lIO.0
REMARK                            x       y       z     vdW  Elec       q    Type
REMARK                         _______ _______ _______ _____ _____    ______ ____
ROOT
ATOM      1  C   LIG    1        1.199  -2.513  -2.883  0.00  0.00    +0.150 C 
ENDROOT
BRANCH   1   4
ATOM      2  C   LIG    1        3.291  -3.320  -5.753  0.00  0.00    +0.130 A 
ATOM      3  N   LIG    1        2.328  -2.777  -5.064  0.00  0.00    -0.440 NA
ATOM      4  C   LIG    1        2.263  -3.080  -3.787  0.00  0.00    +0.090 A 
ATOM      5  C   LIG    1        3.196  -3.927  -3.341  0.00  0.00    -0.070 A 
ATOM      6  S   LIG    1        4.243  -4.356  -4.692  0.00  0.00    +0.080 S 
BRANCH   2  10
ATOM      7  C   LIG    1        4.008  -2.708  -9.896  0.00  0.00    +0.150 A 
ATOM      8  C   LIG    1        4.835  -3.552  -9.167  0.00  0.00    -0.010 A 
ATOM      9  C   LIG    1        4.606  -3.753  -7.823  0.00  0.00    +0.070 A 
ATOM     10  C   LIG    1        3.540  -3.107  -7.194  0.00  0.00    -0.070 A 
ATOM     11  C   LIG    1        2.708  -2.262  -7.931  0.00  0.00    +0.120 A 
ATOM     12  C   LIG    1        2.947  -2.062  -9.274  0.00  0.00    -0.070 A 
BRANCH   7  14
ATOM     13  C   LIG    1        3.348  -1.631 -11.909  0.00  0.00    +0.240 C 
ATOM     14  O   LIG    1        4.237  -2.512 -11.220  0.00  0.00    -0.310 OA
ENDBRANCH   7  14
ENDBRANCH   2  10
ENDBRANCH   1   4
BRANCH   1  15
ATOM     15  C   LIG    1        1.228  -1.008  -2.956  0.00  0.00    +0.520 C 
ATOM     16  N   LIG    1        0.360  -0.281  -2.226  0.00  0.00    -0.720 N 
ATOM     17  H   LIG    1       -0.285  -0.726  -1.654  0.00  0.00    +0.410 HD
ATOM     18  O   LIG    1        2.034  -0.451  -3.671  0.00  0.00    -0.520 OA
BRANCH  16  19
ATOM     19  C   LIG    1        0.388   1.182  -2.296  0.00  0.00    +0.280 C 
BRANCH  19  20
ATOM     20  C   LIG    1       -0.603   1.761  -1.285  0.00  0.00    +0.270 C 
BRANCH  20  21
ATOM     21  C   LIG    1       -0.480   3.263  -1.264  0.00  0.00    -0.050 A 
ATOM     22  C   LIG    1       -1.377   4.133  -1.764  0.00  0.00    -0.040 A 
ATOM     23  C   LIG    1       -0.865   5.429  -1.528  0.00  0.00    -0.060 A 
ATOM     24  C   LIG    1        0.318   5.274  -0.906  0.00  0.00    +0.160 A 
ATOM     25  O   LIG    1        0.546   3.960  -0.749  0.00  0.00    -0.170 OA
ENDBRANCH  20  21
BRANCH  20  26
ATOM     26  N   LIG    1       -0.308   1.227   0.051  0.00  0.00    -0.530 NA
ATOM     27  C   LIG    1       -1.318   1.660   1.026  0.00  0.00    +0.190 C 
ATOM     28  C   LIG    1        1.042   1.611   0.485  0.00  0.00    +0.200 C 
ENDBRANCH  20  26
ENDBRANCH  19  20
ENDBRANCH  16  19
ENDBRANCH   1  15
TORSDOF 8
