REMARK  Name = ZINCpe00000MJLqP.0
REMARK                            x       y       z     vdW  Elec       q    Type
REMARK                         _______ _______ _______ _____ _____    ______ ____
ROOT
ATOM      1  C   LIG    1       -2.636   8.874  -3.067  0.00  0.00    +0.200 C 
ATOM      2  C   LIG    1       -3.007   7.375  -2.949  0.00  0.00    +0.200 C 
ATOM      3  N   LIG    1       -2.183   6.737  -4.008  0.00  0.00    -0.470 N 
ATOM      4  C   LIG    1       -0.877   7.430  -3.974  0.00  0.00    +0.180 C 
ATOM      5  C   LIG    1       -1.125   8.832  -3.389  0.00  0.00    +0.180 C 
ENDROOT
BRANCH   3   6
ATOM      6  C   LIG    1       -2.031   5.379  -3.768  0.00  0.00    +0.360 A 
ATOM      7  C   LIG    1       -1.474   4.931  -2.575  0.00  0.00    -0.120 A 
ATOM      8  C   LIG    1       -1.343   3.559  -2.384  0.00  0.00    +0.370 A 
ATOM      9  N   LIG    1       -1.748   2.731  -3.345  0.00  0.00    -0.560 NA
ATOM     10  C   LIG    1       -2.275   3.195  -4.459  0.00  0.00    +0.540 A 
ATOM     11  N   LIG    1       -2.416   4.486  -4.678  0.00  0.00    -0.520 NA
BRANCH   8  12
ATOM     12  N   LIG    1       -0.793   3.061  -1.212  0.00  0.00    -0.470 N 
ATOM     13  C   LIG    1       -0.754   1.594  -1.231  0.00  0.00    +0.210 C 
ATOM     14  C   LIG    1       -0.013   1.086   0.008  0.00  0.00    +0.030 C 
ATOM     15  C   LIG    1       -0.731   1.580   1.267  0.00  0.00    +0.000 C 
ATOM     16  C   LIG    1       -0.801   3.110   1.237  0.00  0.00    +0.040 C 
ATOM     17  C   LIG    1       -1.520   3.559  -0.037  0.00  0.00    +0.190 C 
ENDBRANCH   8  12
ENDBRANCH   3   6
BRANCH   5  18
ATOM     18  O   LIG    1       -0.794   9.837  -4.350  0.00  0.00    -0.550 OA
ATOM     19  H   LIG    1        0.134   9.830  -4.623  0.00  0.00    +0.390 HD
ENDBRANCH   5  18
BRANCH   1  20
ATOM     20  O   LIG    1       -2.872   9.556  -1.833  0.00  0.00    -0.290 OA
BRANCH  20  24
ATOM     21  C   LIG    1       -6.519  12.243  -0.009  0.00  0.00    +0.370 C 
ATOM     22  N   LIG    1       -5.700  11.420  -0.903  0.00  0.00    -0.370 N 
ATOM     23  C   LIG    1       -4.470  10.915  -0.622  0.00  0.00    +0.210 A 
ATOM     24  C   LIG    1       -4.056  10.217  -1.708  0.00  0.00    -0.030 A 
ATOM     25  C   LIG    1       -5.066  10.290  -2.678  0.00  0.00    +0.190 A 
ATOM     26  N   LIG    1       -6.048  11.009  -2.196  0.00  0.00    -0.270 NA
ENDBRANCH  20  24
ENDBRANCH   1  20
TORSDOF 5
