REMARK  Name = ZINCnE000001HF5X.0
REMARK                            x       y       z     vdW  Elec       q    Type
REMARK                         _______ _______ _______ _____ _____    ______ ____
ROOT
ATOM      1  C   LIG    1       -2.164   1.050   1.278  0.00  0.00    +0.220 C 
ENDROOT
BRANCH   1   2
ATOM      2  N   LIG    1       -2.907   1.630   0.156  0.00  0.00    -0.740 N 
ATOM      3  H   LIG    1       -3.446   2.425   0.291  0.00  0.00    +0.390 HD
ATOM      4  C   LIG    1       -2.843   1.058  -1.062  0.00  0.00    +0.570 C 
ATOM      5  O   LIG    1       -2.168   0.061  -1.232  0.00  0.00    -0.510 OA
BRANCH   4   6
ATOM      6  C   LIG    1       -3.591   1.643  -2.192  0.00  0.00    -0.300 A 
ATOM      7  C   LIG    1       -4.372   2.785  -2.001  0.00  0.00    +0.070 A 
ATOM      8  C   LIG    1       -5.064   3.330  -3.061  0.00  0.00    -0.170 A 
ATOM      9  C   LIG    1       -4.999   2.744  -4.314  0.00  0.00    +0.060 A 
ATOM     10  C   LIG    1       -4.235   1.610  -4.516  0.00  0.00    -0.170 A 
ATOM     11 CL   LIG    1       -4.161   0.884  -6.091  0.00  0.00    -0.110 Cl
ATOM     12  C   LIG    1       -3.527   1.052  -3.461  0.00  0.00    +0.310 A 
ATOM     13  O   LIG    1       -2.777  -0.061  -3.657  0.00  0.00    -0.650 OA
ENDBRANCH   4   6
ENDBRANCH   1   2
BRANCH   1  15
ATOM     14  C   LIG    1       -0.013   1.086   0.008  0.00  0.00    +0.030 C 
ATOM     15  C   LIG    1       -0.729   1.579   1.267  0.00  0.00    -0.020 C 
ENDBRANCH   1  15
BRANCH   1  16
ATOM     16  C   LIG    1       -2.841   1.438   2.594  0.00  0.00    +0.260 C 
BRANCH  16  17
ATOM     17  C   LIG    1       -2.151   0.742   3.738  0.00  0.00    -0.140 A 
ATOM     18  C   LIG    1       -1.154   1.391   4.442  0.00  0.00    +0.050 A 
ATOM     19  C   LIG    1       -0.521   0.753   5.492  0.00  0.00    +0.000 A 
ATOM     20  C   LIG    1       -0.883  -0.535   5.839  0.00  0.00    +0.040 A 
ATOM     21  C   LIG    1       -1.880  -1.186   5.137  0.00  0.00    -0.010 A 
ATOM     22  C   LIG    1       -2.519  -0.546   4.089  0.00  0.00    +0.110 A 
ATOM     23  F   LIG    1       -3.498  -1.179   3.406  0.00  0.00    -0.130 F 
ENDBRANCH  16  17
BRANCH  16  24
ATOM     24  O   LIG    1       -2.755   2.853   2.775  0.00  0.00    -0.550 OA
ATOM     25  H   LIG    1       -1.849   3.190   2.809  0.00  0.00    +0.370 HD
ENDBRANCH  16  24
ENDBRANCH   1  16
TORSDOF 6
