REMARK  Name = ZINCrD0000072pKM.0
REMARK                            x       y       z     vdW  Elec       q    Type
REMARK                         _______ _______ _______ _____ _____    ______ ____
ROOT
ATOM      1  C   LIG    1       -5.754   3.905   5.727  0.00  0.00    +0.510 C 
ATOM      2  N   LIG    1       -6.991   4.079   6.232  0.00  0.00    -0.670 N 
ATOM      3  H   LIG    1       -7.767   3.980   5.659  0.00  0.00    +0.420 HD
ATOM      4  O   LIG    1       -4.781   4.122   6.418  0.00  0.00    -0.480 OA
ENDROOT
BRANCH   2   5
ATOM      5  C   LIG    1       -7.156   4.402   7.584  0.00  0.00    +0.140 A 
ATOM      6  C   LIG    1       -8.207   5.219   7.979  0.00  0.00    +0.010 A 
ATOM      7  C   LIG    1       -8.375   5.541   9.314  0.00  0.00    +0.040 A 
ATOM      8  C   LIG    1       -7.499   5.052  10.261  0.00  0.00    +0.030 A 
ATOM      9  C   LIG    1       -6.439   4.229   9.874  0.00  0.00    -0.120 A 
ATOM     10  C   LIG    1       -6.274   3.901   8.529  0.00  0.00    +0.090 A 
BRANCH   9  11
ATOM     11  C   LIG    1       -5.499   3.704  10.887  0.00  0.00    +0.560 C 
ATOM     12  N   LIG    1       -5.665   4.020  12.187  0.00  0.00    -0.700 N 
ATOM     13  H   LIG    1       -6.400   4.591  12.458  0.00  0.00    +0.400 HD
ATOM     14  O   LIG    1       -4.577   2.989  10.548  0.00  0.00    -0.530 OA
BRANCH  12  15
ATOM     15  C   LIG    1       -4.733   3.499  13.191  0.00  0.00    +0.220 C 
ATOM     16  C   LIG    1       -5.327   2.961  14.494  0.00  0.00    +0.010 C 
ATOM     17  C   LIG    1       -4.577   4.295  14.489  0.00  0.00    +0.020 C 
ENDBRANCH  12  15
ENDBRANCH   9  11
ENDBRANCH   2   5
BRANCH   1  18
ATOM     18  C   LIG    1       -5.579   3.442   4.303  0.00  0.00    +0.270 C 
BRANCH  18  19
ATOM     19  O   LIG    1       -4.163   3.332   4.000  0.00  0.00    -0.330 OA
BRANCH  19  20
ATOM     20  C   LIG    1       -3.833   2.926   2.757  0.00  0.00    +0.550 C 
ATOM     21  O   LIG    1       -4.705   2.671   1.949  0.00  0.00    -0.500 OA
BRANCH  20  25
ATOM     22  C   LIG    1        0.051   2.713   2.195  0.00  0.00    -0.190 A 
ATOM     23  C   LIG    1       -0.593   2.356   1.077  0.00  0.00    -0.130 A 
ATOM     24  C   LIG    1       -1.964   2.398   1.155  0.00  0.00    +0.130 A 
ATOM     25  C   LIG    1       -2.424   2.793   2.381  0.00  0.00    -0.280 A 
ATOM     26  C   LIG    1        0.133   1.944  -0.178  0.00  0.00    +0.120 C 
ATOM     27  S   LIG    1       -1.052   3.122   3.430  0.00  0.00    +0.260 S 
BRANCH  22  29
ATOM     28  C   LIG    1        2.068   4.133   1.948  0.00  0.00    +0.040 C 
ATOM     29  C   LIG    1        1.550   2.749   2.342  0.00  0.00    +0.110 C 
ENDBRANCH  22  29
ENDBRANCH  20  25
ENDBRANCH  19  20
ENDBRANCH  18  19
ENDBRANCH   1  18
TORSDOF 8
