REMARK  Name = ZINCtV000002OkoB.0
REMARK                            x       y       z     vdW  Elec       q    Type
REMARK                         _______ _______ _______ _____ _____    ______ ____
ROOT
ATOM      1  C   LIG    1        3.641   2.154  -0.007  0.00  0.00    -0.070 A 
ATOM      2  C   LIG    1        4.805   1.398  -0.025  0.00  0.00    +0.020 A 
ATOM      3  C   LIG    1        4.717  -0.002  -0.023  0.00  0.00    +0.200 A 
ATOM      4  N   LIG    1        3.562  -0.634  -0.005  0.00  0.00    -0.450 NA
ATOM      5  C   LIG    1        2.396   0.012   0.012  0.00  0.00    +0.130 A 
ATOM      6  C   LIG    1        1.177  -0.691   0.031  0.00  0.00    +0.050 A 
ATOM      7  C   LIG    1        0.002  -0.004   0.047  0.00  0.00    +0.030 A 
ATOM      8  C   LIG    1       -0.017   1.389   0.047  0.00  0.00    +0.020 A 
ATOM      9  C   LIG    1        1.145   2.103   0.030  0.00  0.00    +0.060 A 
ATOM     10  C   LIG    1        2.370   1.429   0.012  0.00  0.00    -0.060 A 
ENDROOT
BRANCH   3  11
ATOM     11  C   LIG    1        5.968  -0.798  -0.041  0.00  0.00    -0.060 A 
ATOM     12  C   LIG    1        7.205  -0.156  -0.066  0.00  0.00    +0.020 A 
ATOM     13  C   LIG    1        8.366  -0.901  -0.078  0.00  0.00    +0.010 A 
ATOM     14  C   LIG    1        8.304  -2.283  -0.076  0.00  0.00    +0.030 A 
ATOM     15  C   LIG    1        7.079  -2.926  -0.057  0.00  0.00    +0.010 A 
ATOM     16  C   LIG    1        5.912  -2.191  -0.039  0.00  0.00    +0.070 A 
ENDBRANCH   3  11
BRANCH   1  18
ATOM     17  O   LIG    1        2.652   4.270  -0.089  0.00  0.00    -0.500 OA
ATOM     18  C   LIG    1        3.684   3.632  -0.008  0.00  0.00    +0.570 C 
ATOM     19  N   LIG    1        4.867   4.272   0.081  0.00  0.00    -0.670 N 
ATOM     20  H   LIG    1        5.694   3.766   0.067  0.00  0.00    +0.410 HD
BRANCH  19  21
ATOM     21  C   LIG    1        4.901   5.667   0.194  0.00  0.00    +0.150 A 
ATOM     22  C   LIG    1        5.930   6.387  -0.398  0.00  0.00    +0.010 A 
ATOM     23  C   LIG    1        5.961   7.763  -0.292  0.00  0.00    +0.030 A 
ATOM     24  C   LIG    1        4.969   8.427   0.419  0.00  0.00    -0.110 A 
ATOM     25  C   LIG    1        3.942   7.706   1.016  0.00  0.00    +0.070 A 
ATOM     26  C   LIG    1        3.908   6.331   0.904  0.00  0.00    +0.040 A 
BRANCH  24  27
ATOM     27  S   LIG    1        5.013  10.182   0.562  0.00  0.00    -0.090 S 
BRANCH  27  28
ATOM     28  C   LIG    1        6.506  10.631  -0.366  0.00  0.00    +0.430 C 
ATOM     29  F   LIG    1        6.377  10.203  -1.691  0.00  0.00    -0.180 F 
ATOM     30  F   LIG    1        7.619  10.016   0.217  0.00  0.00    -0.180 F 
ENDBRANCH  27  28
ENDBRANCH  24  27
ENDBRANCH  19  21
ENDBRANCH   1  18
TORSDOF 5
