REMARK  Name = ZINCpk00000xIWdN.0
REMARK                            x       y       z     vdW  Elec       q    Type
REMARK                         _______ _______ _______ _____ _____    ______ ____
ROOT
ATOM      1  C   LIG    1        6.609   4.271   0.494  0.00  0.00    +0.190 C 
ATOM      2  C   LIG    1        5.201   4.191  -0.037  0.00  0.00    +0.130 A 
ATOM      3  N   LIG    1        4.390   3.179   0.081  0.00  0.00    -0.230 NA
ATOM      4  N   LIG    1        3.170   3.464  -0.539  0.00  0.00    -0.340 N 
ATOM      5  C   LIG    1        3.215   4.726  -1.067  0.00  0.00    +0.340 A 
ATOM      6  N   LIG    1        2.339   5.465  -1.739  0.00  0.00    -0.500 NA
ATOM      7  C   LIG    1        2.625   6.678  -2.149  0.00  0.00    +0.410 A 
ATOM      8  C   LIG    1        3.876   7.257  -1.897  0.00  0.00    -0.220 A 
ATOM      9  C   LIG    1        4.835   6.525  -1.195  0.00  0.00    +0.200 A 
ATOM     10  C   LIG    1        4.497   5.238  -0.774  0.00  0.00    -0.230 A 
ENDROOT
BRANCH   4  11
ATOM     11  C   LIG    1        2.071   2.597  -0.604  0.00  0.00    +0.150 A 
ATOM     12  C   LIG    1        2.272   1.229  -0.731  0.00  0.00    +0.060 A 
ATOM     13  C   LIG    1        1.188   0.376  -0.794  0.00  0.00    +0.010 A 
ATOM     14  C   LIG    1       -0.099   0.885  -0.736  0.00  0.00    +0.100 A 
ATOM     15  C   LIG    1       -0.301   2.248  -0.604  0.00  0.00    +0.020 A 
ATOM     16  F   LIG    1       -1.159   0.049  -0.805  0.00  0.00    -0.130 F 
ATOM     17  C   LIG    1        0.780   3.105  -0.540  0.00  0.00    +0.070 A 
ENDBRANCH   4  11
BRANCH   8  18
ATOM     18  C   LIG    1        4.176   8.624  -2.367  0.00  0.00    +0.580 C 
ATOM     19  N   LIG    1        4.900   9.459  -1.595  0.00  0.00    -0.600 N 
ATOM     20  C   LIG    1        5.479   8.978  -0.339  0.00  0.00    +0.300 C 
ATOM     21  O   LIG    1        3.770   8.996  -3.451  0.00  0.00    -0.520 OA
BRANCH  19  22
ATOM     22  C   LIG    1        5.108  10.848  -2.013  0.00  0.00    +0.320 C 
BRANCH  22  23
ATOM     23  C   LIG    1        3.999  11.708  -1.466  0.00  0.00    +0.500 C 
ATOM     24  O   LIG    1        3.121  11.211  -0.793  0.00  0.00    -0.530 OA
ATOM     25  N   LIG    1        3.982  13.031  -1.724  0.00  0.00    -0.850 N 
ATOM     26  H   LIG    1        3.268  13.585  -1.372  0.00  0.00    +0.400 HD
ATOM     27  H   LIG    1        4.684  13.429  -2.263  0.00  0.00    +0.400 HD
ENDBRANCH  22  23
ENDBRANCH  19  22
ENDBRANCH   8  18
TORSDOF 4
