REMARK  Name = ZINCrH00000tj1hX.0
REMARK                            x       y       z     vdW  Elec       q    Type
REMARK                         _______ _______ _______ _____ _____    ______ ____
ROOT
ATOM      1  C   LIG    1       -2.511   1.666   0.013  0.00  0.00    +0.510 C 
ATOM      2  O   LIG    1       -2.500   0.451  -0.002  0.00  0.00    -0.470 OA
ENDROOT
BRANCH   1   5
ATOM      3  C   LIG    1       -0.059   4.507   0.034  0.00  0.00    -0.690 A 
ATOM      4  C   LIG    1       -1.250   3.812   0.038  0.00  0.00    +0.250 A 
ATOM      5  C   LIG    1       -1.240   2.415   0.015  0.00  0.00    -0.140 A 
ATOM      6  C   LIG    1       -0.022   1.731  -0.002  0.00  0.00    +0.080 A 
ATOM      7  C   LIG    1        1.164   2.439  -0.006  0.00  0.00    +0.040 A 
ATOM      8 CL   LIG    1        0.002  -0.005  -0.024  0.00  0.00    +0.010 Cl
ATOM      9  C   LIG    1        1.146   3.823   0.012  0.00  0.00    +0.100 A 
ATOM     10 CL   LIG    1        2.640   4.707   0.007  0.00  0.00    -0.010 Cl
BRANCH   3  11
ATOM     11  S   LIG    1       -0.070   6.269   0.056  0.00  0.00    +2.700 S 
ATOM     12  O   LIG    1       -1.435   6.661   0.111  0.00  0.00    -0.940 OA
ATOM     13  O   LIG    1        0.819   6.689  -0.970  0.00  0.00    -0.940 OA
BRANCH  11  14
ATOM     14  N   LIG    1        0.612   6.745   1.489  0.00  0.00    -1.240 NA
ATOM     15  H   LIG    1        0.530   6.183   2.275  0.00  0.00    +0.420 HD
ATOM     16  H   LIG    1        1.092   7.586   1.541  0.00  0.00    +0.430 HD
ENDBRANCH  11  14
ENDBRANCH   3  11
ENDBRANCH   1   5
BRANCH   1  17
ATOM     17  O   LIG    1       -3.684   2.328   0.029  0.00  0.00    -0.330 OA
BRANCH  17  18
ATOM     18  C   LIG    1       -4.895   1.526   0.027  0.00  0.00    +0.270 C 
BRANCH  18  19
ATOM     19  C   LIG    1       -6.098   2.433   0.046  0.00  0.00    +0.520 C 
ATOM     20  N   LIG    1       -7.339   1.906   0.047  0.00  0.00    -0.670 N 
ATOM     21  H   LIG    1       -7.459   0.947  -0.032  0.00  0.00    +0.420 HD
ATOM     22  O   LIG    1       -5.951   3.636   0.060  0.00  0.00    -0.480 OA
BRANCH  20  23
ATOM     23  C   LIG    1       -8.454   2.743   0.163  0.00  0.00    +0.170 A 
ATOM     24  C   LIG    1       -9.577   2.313   0.857  0.00  0.00    +0.020 A 
ATOM     25  C   LIG    1      -10.676   3.144   0.974  0.00  0.00    -0.010 A 
ATOM     26  C   LIG    1      -10.661   4.399   0.391  0.00  0.00    +0.040 A 
ATOM     27  C   LIG    1       -9.545   4.827  -0.306  0.00  0.00    -0.000 A 
ATOM     28 CL   LIG    1       -9.531   6.402  -1.037  0.00  0.00    -0.040 Cl
ATOM     29 CL   LIG    1      -12.078   2.610   1.847  0.00  0.00    -0.050 Cl
ATOM     30  C   LIG    1       -8.442   4.003  -0.422  0.00  0.00    +0.050 A 
ENDBRANCH  20  23
ENDBRANCH  18  19
ENDBRANCH  17  18
ENDBRANCH   1  17
TORSDOF 7
