REMARK  Name = ZINCrg00000fSaLv.0
REMARK                            x       y       z     vdW  Elec       q    Type
REMARK                         _______ _______ _______ _____ _____    ______ ____
ROOT
ATOM      1  N   LIG    1        0.277   8.037   1.744  0.00  0.00    -0.720 N 
ATOM      2  H   LIG    1       -0.654   8.266   1.888  0.00  0.00    +0.400 HD
ATOM      3  C   LIG    1        0.666   6.747   1.777  0.00  0.00    +0.530 C 
ATOM      4  O   LIG    1        1.831   6.460   1.597  0.00  0.00    -0.530 OA
ENDROOT
BRANCH   3   5
ATOM      5  C   LIG    1       -0.346   5.661   2.037  0.00  0.00    -0.010 C 
ATOM      6  C   LIG    1       -1.431   5.641   0.935  0.00  0.00    +0.080 C 
ATOM      7  C   LIG    1       -1.731   4.171   0.736  0.00  0.00    +0.520 C 
ATOM      8  N   LIG    1       -0.754   3.423   1.277  0.00  0.00    -0.620 N 
ATOM      9  O   LIG    1       -2.709   3.732   0.170  0.00  0.00    -0.520 OA
ATOM     10  C   LIG    1        0.287   4.262   1.882  0.00  0.00    +0.300 C 
BRANCH   8  11
ATOM     11  C   LIG    1       -0.734   1.958   1.269  0.00  0.00    +0.300 C 
BRANCH  11  12
ATOM     12  C   LIG    1       -0.018   1.465   0.010  0.00  0.00    +0.160 C 
BRANCH  12  13
ATOM     13  N   LIG    1        0.002  -0.004   0.002  0.00  0.00    -0.530 NA
ATOM     14  C   LIG    1        0.833  -0.526   1.097  0.00  0.00    +0.150 C 
ATOM     15  C   LIG    1        0.778  -2.056   1.087  0.00  0.00    +0.220 C 
ATOM     16  O   LIG    1        1.203  -2.535  -0.191  0.00  0.00    -0.390 OA
ATOM     17  C   LIG    1        0.415  -2.048  -1.280  0.00  0.00    +0.220 C 
ATOM     18  C   LIG    1        0.466  -0.517  -1.295  0.00  0.00    +0.150 C 
ENDBRANCH  12  13
ENDBRANCH  11  12
ENDBRANCH   8  11
ENDBRANCH   3   5
BRANCH   1  20
ATOM     19  C   LIG    1        1.939   9.482   2.806  0.00  0.00    +0.030 C 
ATOM     20  C   LIG    1        1.261   9.092   1.492  0.00  0.00    +0.240 C 
BRANCH  20  21
ATOM     21  C   LIG    1        0.557  10.314   0.898  0.00  0.00    +0.090 C 
BRANCH  21  22
ATOM     22  C   LIG    1       -0.006   9.962  -0.454  0.00  0.00    -0.120 A 
ATOM     23  C   LIG    1        0.717  10.242  -1.598  0.00  0.00    +0.040 A 
ATOM     24  C   LIG    1        0.203   9.913  -2.839  0.00  0.00    +0.010 A 
ATOM     25  C   LIG    1       -1.040   9.316  -2.938  0.00  0.00    +0.040 A 
ATOM     26  C   LIG    1       -1.767   9.040  -1.795  0.00  0.00    -0.010 A 
ATOM     27  C   LIG    1       -1.251   9.363  -0.552  0.00  0.00    +0.100 A 
ATOM     28  F   LIG    1       -1.961   9.094   0.565  0.00  0.00    -0.140 F 
ENDBRANCH  21  22
ENDBRANCH  20  21
ENDBRANCH   1  20
TORSDOF 7
