REMARK  Name = ZINCrH000004umjL.0
REMARK                            x       y       z     vdW  Elec       q    Type
REMARK                         _______ _______ _______ _____ _____    ______ ____
ROOT
ATOM      1  C   LIG    1       -0.747   0.882   4.977  0.00  0.00    -0.010 C 
ATOM      2  C   LIG    1       -0.716  -0.648   4.970  0.00  0.00    +0.030 C 
ATOM      3  C   LIG    1        0.375  -1.136   5.928  0.00  0.00    +0.280 C 
ATOM      4  N   LIG    1        0.142  -0.543   7.252  0.00  0.00    -0.610 N 
ATOM      5  C   LIG    1        0.004   0.916   7.359  0.00  0.00    +0.280 C 
ATOM      6  C   LIG    1        0.055  -1.323   8.348  0.00  0.00    +0.560 C 
ATOM      7  O   LIG    1       -0.070  -0.816   9.446  0.00  0.00    -0.520 OA
ATOM      8  C   LIG    1       -1.082   1.381   6.384  0.00  0.00    +0.060 C 
ENDROOT
BRANCH   6   9
ATOM      9  C   LIG    1        0.111  -2.794   8.215  0.00  0.00    -0.110 A 
ATOM     10  C   LIG    1       -0.864  -3.590   8.820  0.00  0.00    +0.080 A 
ATOM     11  C   LIG    1       -0.808  -4.962   8.689  0.00  0.00    +0.050 A 
ATOM     12  C   LIG    1        0.217  -5.550   7.967  0.00  0.00    -0.070 A 
ATOM     13  C   LIG    1        1.189  -4.766   7.369  0.00  0.00    +0.050 A 
ATOM     14 BR   LIG    1        0.289  -7.432   7.798  0.00  0.00    -0.040 Br
ATOM     15  C   LIG    1        1.142  -3.393   7.489  0.00  0.00    +0.050 A 
ENDBRANCH   6   9
BRANCH   1  17
ATOM     16  O   LIG    1       -2.721   2.044   4.407  0.00  0.00    -0.530 OA
ATOM     17  C   LIG    1       -1.796   1.367   4.010  0.00  0.00    +0.520 C 
ATOM     18  N   LIG    1       -1.707   1.048   2.703  0.00  0.00    -0.730 N 
ATOM     19  H   LIG    1       -0.968   0.506   2.385  0.00  0.00    +0.400 HD
BRANCH  18  20
ATOM     20  C   LIG    1       -2.727   1.519   1.763  0.00  0.00    +0.260 C 
BRANCH  20  21
ATOM     21  C   LIG    1       -2.392   1.021   0.355  0.00  0.00    +0.080 C 
BRANCH  21  22
ATOM     22  C   LIG    1       -3.441   1.506  -0.612  0.00  0.00    -0.120 A 
ATOM     23  C   LIG    1       -3.192   2.609  -1.406  0.00  0.00    +0.040 A 
ATOM     24  C   LIG    1       -4.154   3.053  -2.294  0.00  0.00    +0.000 A 
ATOM     25  C   LIG    1       -5.367   2.396  -2.388  0.00  0.00    +0.040 A 
ATOM     26  C   LIG    1       -5.618   1.293  -1.593  0.00  0.00    -0.010 A 
ATOM     27  C   LIG    1       -4.653   0.843  -0.709  0.00  0.00    +0.100 A 
ATOM     28  F   LIG    1       -4.895  -0.239   0.063  0.00  0.00    -0.140 F 
ENDBRANCH  21  22
ENDBRANCH  20  21
ENDBRANCH  18  20
ENDBRANCH   1  17
TORSDOF 5
