REMARK  Name = ZINCkj000005g0Zg.1
REMARK                            x       y       z     vdW  Elec       q    Type
REMARK                         _______ _______ _______ _____ _____    ______ ____
ROOT
ATOM      1  N   LIG    1       -0.223   0.951   0.519  0.00  0.00    -0.740 N 
ATOM      2  H   LIG    1       -0.220  -0.012   0.635  0.00  0.00    +0.400 HD
ATOM      3  C   LIG    1        0.919   1.651   0.670  0.00  0.00    +0.610 C 
ATOM      4  O   LIG    1        0.917   2.859   0.525  0.00  0.00    -0.510 OA
ENDROOT
BRANCH   3   5
ATOM      5  C   LIG    1        2.170   0.953   1.011  0.00  0.00    +0.010 A 
ATOM      6  C   LIG    1        3.342   1.603   1.169  0.00  0.00    -0.060 A 
ATOM      7  S   LIG    1        4.563   0.471   1.561  0.00  0.00    +0.320 S 
ATOM      8  C   LIG    1        3.398  -0.846   1.478  0.00  0.00    +0.250 A 
ATOM      9  N   LIG    1        2.231  -0.371   1.182  0.00  0.00    -0.500 NA
BRANCH   8  10
ATOM     10  N   LIG    1        3.687  -2.186   1.698  0.00  0.00    -0.620 N 
ATOM     11  H   LIG    1        2.983  -2.851   1.632  0.00  0.00    +0.430 HD
ATOM     12  C   LIG    1        4.945  -2.564   2.001  0.00  0.00    +0.510 C 
ATOM     13  O   LIG    1        5.824  -1.733   2.083  0.00  0.00    -0.500 OA
ATOM     14  C   LIG    1        5.258  -4.019   2.239  0.00  0.00    +0.140 C 
ENDBRANCH   8  10
ENDBRANCH   3   5
BRANCH   1  15
ATOM     15  C   LIG    1       -1.466   1.645   0.174  0.00  0.00    +0.320 C 
BRANCH  15  20
ATOM     16  N   LIG    1       -2.213  -0.201  -1.278  0.00  0.00    -0.400 N 
ATOM     17  C   LIG    1       -3.495  -0.483  -1.972  0.00  0.00    +0.270 C 
ATOM     18  C   LIG    1       -4.272   0.851  -1.839  0.00  0.00    +0.080 C 
ATOM     19  C   LIG    1       -3.888   1.334  -0.422  0.00  0.00    +0.080 C 
ATOM     20  C   LIG    1       -2.566   0.616  -0.096  0.00  0.00    +0.170 C 
ATOM     21  H   LIG    1       -1.595   0.316  -1.886  0.00  0.00    +0.430 HD
BRANCH  16  23
ATOM     22  C   LIG    1       -1.128  -2.241  -2.089  0.00  0.00    +0.090 C 
ATOM     23  C   LIG    1       -1.578  -1.456  -0.855  0.00  0.00    +0.240 C 
ENDBRANCH  16  23
ENDBRANCH  15  20
ENDBRANCH   1  15
TORSDOF 5
