REMARK  Name = ZINCkj000005g0Zg.0
REMARK                            x       y       z     vdW  Elec       q    Type
REMARK                         _______ _______ _______ _____ _____    ______ ____
ROOT
ATOM      1  N   LIG    1        4.006  -1.053   0.065  0.00  0.00    -0.720 N 
ATOM      2  H   LIG    1        3.367  -1.778  -0.008  0.00  0.00    +0.420 HD
ATOM      3  C   LIG    1        3.574   0.223   0.119  0.00  0.00    +0.610 C 
ATOM      4  O   LIG    1        4.375   1.133   0.210  0.00  0.00    -0.520 OA
ENDROOT
BRANCH   3   5
ATOM      5  C   LIG    1        2.132   0.514   0.069  0.00  0.00    +0.010 A 
ATOM      6  C   LIG    1        1.644   1.771   0.120  0.00  0.00    -0.070 A 
ATOM      7  S   LIG    1       -0.063   1.715   0.038  0.00  0.00    +0.310 S 
ATOM      8  C   LIG    1       -0.021  -0.041  -0.063  0.00  0.00    +0.250 A 
ATOM      9  N   LIG    1        1.208  -0.447  -0.030  0.00  0.00    -0.490 NA
BRANCH   8  10
ATOM     10  N   LIG    1       -1.135  -0.865  -0.163  0.00  0.00    -0.620 N 
ATOM     11  H   LIG    1       -1.024  -1.827  -0.214  0.00  0.00    +0.430 HD
ATOM     12  C   LIG    1       -2.371  -0.328  -0.189  0.00  0.00    +0.510 C 
ATOM     13  O   LIG    1       -2.511   0.875  -0.126  0.00  0.00    -0.500 OA
ATOM     14  C   LIG    1       -3.579  -1.222  -0.298  0.00  0.00    +0.140 C 
ENDBRANCH   8  10
ENDBRANCH   3   5
BRANCH   1  15
ATOM     15  C   LIG    1        5.441  -1.343   0.115  0.00  0.00    +0.280 C 
BRANCH  15  20
ATOM     16  N   LIG    1        7.095  -3.159   0.232  0.00  0.00    -0.380 N 
ATOM     17  C   LIG    1        7.474  -3.937  -0.967  0.00  0.00    +0.260 C 
ATOM     18  C   LIG    1        6.160  -4.610  -1.433  0.00  0.00    +0.080 C 
ATOM     19  C   LIG    1        5.117  -3.502  -1.135  0.00  0.00    +0.080 C 
ATOM     20  C   LIG    1        5.654  -2.857   0.160  0.00  0.00    +0.160 C 
ATOM     21  H   LIG    1        7.288  -3.699   1.062  0.00  0.00    +0.430 HD
BRANCH  16  23
ATOM     22  C   LIG    1        9.348  -2.222   0.451  0.00  0.00    +0.080 C 
ATOM     23  C   LIG    1        7.862  -1.906   0.271  0.00  0.00    +0.250 C 
ENDBRANCH  16  23
ENDBRANCH  15  20
ENDBRANCH   1  15
TORSDOF 5
