REMARK  Name = ZINCnE00000fiMUp.0
REMARK                            x       y       z     vdW  Elec       q    Type
REMARK                         _______ _______ _______ _____ _____    ______ ____
ROOT
ATOM      1  C   LIG    1       -0.201  -5.838   1.436  0.00  0.00    -0.020 A 
ATOM      2  C   LIG    1       -0.274  -5.944   2.824  0.00  0.00    -0.040 A 
ATOM      3  C   LIG    1       -0.231  -7.186   3.425  0.00  0.00    +0.020 A 
ATOM      4  C   LIG    1       -0.104  -8.326   2.654  0.00  0.00    -0.020 A 
ATOM      5  C   LIG    1       -0.025  -8.230   1.271  0.00  0.00    +0.170 A 
ATOM      6  C   LIG    1       -0.073  -6.988   0.660  0.00  0.00    -0.040 A 
ENDROOT
BRANCH   1  12
ATOM      7  C   LIG    1       -0.641   1.462   0.404  0.00  0.00    +0.350 C 
ATOM      8  N   LIG    1       -0.536   0.002   0.347  0.00  0.00    -0.330 N 
ATOM      9  C   LIG    1       -0.547  -0.811   1.412  0.00  0.00    +0.250 A 
ATOM     10  C   LIG    1       -0.428  -2.112   0.954  0.00  0.00    -0.200 A 
ATOM     11  C   LIG    1       -0.379  -3.378   1.570  0.00  0.00    +0.090 A 
ATOM     12  C   LIG    1       -0.253  -4.505   0.788  0.00  0.00    -0.060 A 
ATOM     13  C   LIG    1       -0.171  -4.416  -0.614  0.00  0.00    +0.070 A 
ATOM     14  C   LIG    1       -0.213  -3.225  -1.255  0.00  0.00    +0.020 A 
ATOM     15  C   LIG    1       -0.342  -2.030  -0.513  0.00  0.00    +0.100 A 
ATOM     16  N   LIG    1       -0.417  -0.750  -0.827  0.00  0.00    -0.320 NA
ENDBRANCH   1  12
BRANCH   5  17
ATOM     17  O   LIG    1        0.099  -9.354   0.518  0.00  0.00    -0.300 OA
BRANCH  17  18
ATOM     18  C   LIG    1        0.267 -10.588   1.217  0.00  0.00    +0.030 C 
ATOM     19  C   LIG    1        1.514 -10.509   2.100  0.00  0.00    +0.010 C 
ATOM     20  C   LIG    1        0.428 -11.728   0.209  0.00  0.00    +0.070 C 
BRANCH  18  21
ATOM     21  C   LIG    1       -0.942 -10.847   2.078  0.00  0.00    +0.480 C 
ATOM     22  O   LIG    1       -1.000 -11.855   2.761  0.00  0.00    -0.690 OA
ATOM     23  O   LIG    1       -1.863 -10.048   2.092  0.00  0.00    -0.670 OA
ENDBRANCH  18  21
ENDBRANCH  17  18
ENDBRANCH   5  17
TORSDOF 4
