REMARK  Name = ZINCpe000000UMks.0
REMARK                            x       y       z     vdW  Elec       q    Type
REMARK                         _______ _______ _______ _____ _____    ______ ____
ROOT
ATOM      1  C   LIG    1        1.720  -0.447   5.811  0.00  0.00    +0.320 C 
ENDROOT
BRANCH   1   5
ATOM      2  C   LIG    1       -0.099   1.061   2.358  0.00  0.00    +0.500 A 
ATOM      3  N   LIG    1        0.952   0.264   2.240  0.00  0.00    -0.550 NA
ATOM      4  C   LIG    1        1.554  -0.225   3.311  0.00  0.00    +0.370 A 
ATOM      5  C   LIG    1        1.065   0.096   4.568  0.00  0.00    -0.250 A 
ATOM      6  C   LIG    1       -0.040   0.928   4.655  0.00  0.00    +0.370 A 
ATOM      7  N   LIG    1       -0.592   1.388   3.545  0.00  0.00    -0.530 NA
BRANCH   2  12
ATOM      8  C   LIG    1       -1.445   3.591  -2.413  0.00  0.00    +0.190 C 
ATOM      9  N   LIG    1       -0.806   3.062  -1.200  0.00  0.00    -0.550 NA
ATOM     10  C   LIG    1       -0.754   1.593  -1.231  0.00  0.00    +0.190 C 
ATOM     11  C   LIG    1       -0.013   1.086   0.008  0.00  0.00    +0.220 C 
ATOM     12  N   LIG    1       -0.701   1.560   1.216  0.00  0.00    -0.460 N 
ATOM     13  C   LIG    1       -0.754   3.029   1.247  0.00  0.00    +0.220 C 
ATOM     14  C   LIG    1       -1.495   3.536   0.008  0.00  0.00    +0.190 C 
ENDBRANCH   2  12
ENDBRANCH   1   5
BRANCH   1  15
ATOM     15  N   LIG    1        1.100  -1.725   6.171  0.00  0.00    -0.740 N 
ATOM     16  H   LIG    1        0.381  -2.085   5.628  0.00  0.00    +0.390 HD
BRANCH  15  17
ATOM     17  C   LIG    1        1.543  -2.424   7.297  0.00  0.00    +0.230 A 
ATOM     18  C   LIG    1        2.571  -1.909   8.075  0.00  0.00    -0.080 A 
ATOM     19  C   LIG    1        3.007  -2.602   9.187  0.00  0.00    +0.050 A 
ATOM     20  C   LIG    1        2.420  -3.808   9.526  0.00  0.00    -0.060 A 
ATOM     21  C   LIG    1        1.396  -4.323   8.753  0.00  0.00    +0.060 A 
ATOM     22  C   LIG    1        0.952  -3.632   7.643  0.00  0.00    -0.150 A 
BRANCH  22  23
ATOM     23  C   LIG    1       -0.169  -4.191   6.805  0.00  0.00    +0.090 C 
BRANCH  23  24
ATOM     24  C   LIG    1        0.408  -4.970   5.650  0.00  0.00    +0.510 C 
ATOM     25  O   LIG    1        1.610  -5.062   5.521  0.00  0.00    -0.530 OA
ATOM     26  N   LIG    1       -0.413  -5.564   4.761  0.00  0.00    -0.860 N 
ATOM     27  H   LIG    1       -0.042  -6.065   4.019  0.00  0.00    +0.400 HD
ATOM     28  H   LIG    1       -1.375  -5.491   4.865  0.00  0.00    +0.400 HD
ENDBRANCH  23  24
ENDBRANCH  22  23
ENDBRANCH  15  17
ENDBRANCH   1  15
TORSDOF 6
