REMARK  Name = ZINCkj00000MTiVK.0
REMARK                            x       y       z     vdW  Elec       q    Type
REMARK                         _______ _______ _______ _____ _____    ______ ____
ROOT
ATOM      1  C   LIG    1        0.010  -0.023  -0.184  0.00  0.00    -0.060 A 
ATOM      2  C   LIG    1        1.281  -0.418   0.041  0.00  0.00    +0.270 A 
ATOM      3  N   LIG    1        2.072   0.675  -0.151  0.00  0.00    -0.340 N 
ATOM      4  N   LIG    1        1.212   1.727  -0.499  0.00  0.00    -0.070 NA
ATOM      5  N   LIG    1        0.007   1.271  -0.507  0.00  0.00    -0.200 NA
ENDROOT
BRANCH   3   6
ATOM      6  C   LIG    1        3.461   0.735  -0.028  0.00  0.00    +0.290 C 
ATOM      7  C   LIG    1        4.082   1.894  -0.127  0.00  0.00    -0.170 C 
ATOM      8  C   LIG    1        3.313   3.199  -0.121  0.00  0.00    +0.120 C 
ATOM      9  C   LIG    1        3.993   4.145   0.882  0.00  0.00    +0.270 C 
ATOM     10  N   LIG    1        5.414   4.278   0.540  0.00  0.00    -0.510 N 
ATOM     11  C   LIG    1        6.107   3.001   0.750  0.00  0.00    +0.270 C 
ATOM     12  H   LIG    1        5.499   4.549  -0.428  0.00  0.00    +0.430 HD
ATOM     13  H   LIG    1        5.834   4.986   1.123  0.00  0.00    +0.430 HD
ATOM     14  C   LIG    1        5.590   1.967  -0.257  0.00  0.00    +0.140 C 
ENDBRANCH   3   6
BRANCH   1  15
ATOM     15  C   LIG    1       -1.210  -0.903  -0.088  0.00  0.00    +0.450 C 
BRANCH  15  22
ATOM     16  C   LIG    1       -3.450   1.092  -0.873  0.00  0.00    +0.140 C 
ATOM     17  C   LIG    1       -3.153   0.568   0.509  0.00  0.00    +0.100 A 
ATOM     18  C   LIG    1       -3.821   0.884   1.643  0.00  0.00    -0.120 A 
ATOM     19  C   LIG    1       -3.230   0.184   2.700  0.00  0.00    +0.080 A 
ATOM     20  N   LIG    1       -2.246  -0.530   2.217  0.00  0.00    -0.300 NA
ATOM     21  C   LIG    1       -3.656   0.240   4.144  0.00  0.00    +0.150 C 
ATOM     22  N   LIG    1       -2.174  -0.301   0.837  0.00  0.00    -0.370 N 
ENDBRANCH  15  22
ENDBRANCH   1  15
TORSDOF 3
