REMARK  Name = ZINCpk00000eahJD.0
REMARK                            x       y       z     vdW  Elec       q    Type
REMARK                         _______ _______ _______ _____ _____    ______ ____
ROOT
ATOM      1  C   LIG    1       -0.018   1.503   0.010  0.00  0.00    +0.520 C 
ATOM      2  N   LIG    1        1.139   2.192   0.003  0.00  0.00    -0.720 N 
ATOM      3  H   LIG    1        1.986   1.719  -0.008  0.00  0.00    +0.410 HD
ATOM      4  O   LIG    1       -1.077   2.095   0.018  0.00  0.00    -0.510 OA
ENDROOT
BRANCH   1   5
ATOM      5  C   LIG    1        0.002  -0.004   0.002  0.00  0.00    +0.270 C 
BRANCH   5   6
ATOM      6  O   LIG    1       -1.360  -0.507   0.012  0.00  0.00    -0.310 OA
BRANCH   6   7
ATOM      7  C   LIG    1       -1.519  -1.845   0.007  0.00  0.00    +0.550 C 
ATOM      8  O   LIG    1       -0.545  -2.572  -0.007  0.00  0.00    -0.500 OA
BRANCH   7  11
ATOM      9  C   LIG    1       -5.090  -2.342   0.038  0.00  0.00    +0.020 A 
ATOM     10  N   LIG    1       -3.983  -1.687   0.030  0.00  0.00    -0.400 NA
ATOM     11  C   LIG    1       -2.870  -2.426   0.016  0.00  0.00    +0.020 A 
ATOM     12  C   LIG    1       -3.103  -3.759   0.006  0.00  0.00    -0.020 A 
ATOM     13  S   LIG    1       -4.792  -4.024   0.026  0.00  0.00    +0.270 S 
BRANCH   9  14
ATOM     14  C   LIG    1       -6.459  -1.714   0.054  0.00  0.00    +0.310 C 
BRANCH  14  16
ATOM     15  C   LIG    1       -8.201  -0.913  -1.385  0.00  0.00    +0.220 C 
ATOM     16  O   LIG    1       -6.905  -1.508  -1.288  0.00  0.00    -0.380 OA
ENDBRANCH  14  16
ENDBRANCH   9  14
ENDBRANCH   7  11
ENDBRANCH   6   7
ENDBRANCH   5   6
ENDBRANCH   1   5
BRANCH   2  17
ATOM     17  C   LIG    1        1.120   3.657   0.011  0.00  0.00    +0.340 C 
BRANCH  17  18
ATOM     18  C   LIG    1        2.534   4.179   0.000  0.00  0.00    -0.100 A 
ATOM     19  C   LIG    1        3.190   4.417   1.193  0.00  0.00    +0.050 A 
ATOM     20  C   LIG    1        4.489   4.890   1.188  0.00  0.00    +0.040 A 
ATOM     21  C   LIG    1        5.132   5.138  -0.013  0.00  0.00    +0.040 A 
ATOM     22  O   LIG    1        6.385   5.603  -0.290  0.00  0.00    -0.310 OA
ATOM     23  C   LIG    1        6.339   6.038  -1.661  0.00  0.00    +0.430 C 
ATOM     24  O   LIG    1        5.306   5.223  -2.245  0.00  0.00    -0.310 OA
ATOM     25  C   LIG    1        4.468   4.904  -1.215  0.00  0.00    +0.030 A 
ATOM     26  C   LIG    1        3.169   4.424  -1.203  0.00  0.00    +0.060 A 
ENDBRANCH  17  18
ENDBRANCH   2  17
TORSDOF 8
