REMARK  Name = ZINCqH0000006gah.0
REMARK                            x       y       z     vdW  Elec       q    Type
REMARK                         _______ _______ _______ _____ _____    ______ ____
ROOT
ATOM      1  C   LIG    1        2.409   4.221   0.002  0.00  0.00    +0.420 C 
ATOM      2  O   LIG    1        3.471   3.636  -0.011  0.00  0.00    -0.410 OA
ENDROOT
BRANCH   1   7
ATOM      3  C   LIG    1       -0.016   1.355   0.009  0.00  0.00    +0.120 A 
ATOM      4  C   LIG    1       -1.228   2.032   0.019  0.00  0.00    -0.030 A 
ATOM      5  C   LIG    1       -1.255   3.415   0.032  0.00  0.00    +0.050 A 
ATOM      6  C   LIG    1       -0.077   4.132   0.024  0.00  0.00    +0.030 A 
ATOM      7  C   LIG    1        1.149   3.460   0.009  0.00  0.00    -0.130 A 
ATOM      8  C   LIG    1        1.173   2.063   0.002  0.00  0.00    +0.060 A 
BRANCH   3   9
ATOM      9  O   LIG    1        0.002  -0.004   0.002  0.00  0.00    -0.300 OA
BRANCH   9  10
ATOM     10  C   LIG    1       -1.262  -0.670   0.011  0.00  0.00    +0.210 C 
BRANCH  10  11
ATOM     11  C   LIG    1       -1.041  -2.184   0.000  0.00  0.00    +0.190 C 
BRANCH  11  13
ATOM     12  C   LIG    1       -0.143  -3.983   1.305  0.00  0.00    +0.200 C 
ATOM     13  O   LIG    1       -0.397  -2.580   1.213  0.00  0.00    -0.390 OA
ENDBRANCH  11  13
ENDBRANCH  10  11
ENDBRANCH   9  10
ENDBRANCH   3   9
ENDBRANCH   1   7
BRANCH   1  14
ATOM     14  C   LIG    1        2.379   5.728   0.010  0.00  0.00    +0.180 C 
BRANCH  14  15
ATOM     15  C   LIG    1        3.593   6.258  -0.709  0.00  0.00    +0.170 A 
ATOM     16  N   LIG    1        3.498   6.569  -1.979  0.00  0.00    -0.460 NA
ATOM     17  C   LIG    1        4.546   7.043  -2.659  0.00  0.00    +0.130 A 
ATOM     18  C   LIG    1        4.438   7.376  -4.020  0.00  0.00    +0.050 A 
ATOM     19  C   LIG    1        5.524   7.856  -4.687  0.00  0.00    +0.030 A 
ATOM     20  C   LIG    1        6.747   8.025  -4.041  0.00  0.00    +0.020 A 
ATOM     21  C   LIG    1        6.890   7.714  -2.723  0.00  0.00    +0.030 A 
ATOM     22  C   LIG    1        5.791   7.217  -2.004  0.00  0.00    -0.100 A 
ATOM     23  C   LIG    1        5.897   6.884  -0.641  0.00  0.00    +0.100 A 
ATOM     24  C   LIG    1        4.786   6.409  -0.005  0.00  0.00    -0.010 A 
ENDBRANCH  14  15
BRANCH  14  25
ATOM     25  C   LIG    1        2.382   6.211   1.400  0.00  0.00    +0.210 C 
ATOM     26  N   LIG    1        2.384   6.584   2.473  0.00  0.00    -0.380 NA
ENDBRANCH  14  25
ENDBRANCH   1  14
TORSDOF 8
