REMARK  Name = ZINCpe000000TauI.0
REMARK                            x       y       z     vdW  Elec       q    Type
REMARK                         _______ _______ _______ _____ _____    ______ ____
ROOT
ATOM      1  N   LIG    1        5.583   1.123  -1.414  0.00  0.00    -0.540 NA
ATOM      2  C   LIG    1        6.150  -0.121  -0.914  0.00  0.00    +0.230 C 
ATOM      3  C   LIG    1        5.566  -0.473   0.457  0.00  0.00    +0.240 C 
ATOM      4  N   LIG    1        6.350   0.219   1.492  0.00  0.00    -0.730 N 
ATOM      5  H   LIG    1        6.934  -0.288   2.078  0.00  0.00    +0.400 HD
ATOM      6  C   LIG    1        6.260   1.546   1.627  0.00  0.00    +0.520 C 
ATOM      7  C   LIG    1        5.351   2.338   0.709  0.00  0.00    +0.020 C 
ATOM      8  O   LIG    1        6.903   2.115   2.483  0.00  0.00    -0.540 OA
ATOM      9  C   LIG    1        5.960   2.332  -0.695  0.00  0.00    +0.250 C 
ENDROOT
BRANCH   9  10
ATOM     10  C   LIG    1        5.468   3.536  -1.455  0.00  0.00    -0.080 A 
ATOM     11  C   LIG    1        6.210   4.041  -2.506  0.00  0.00    +0.030 A 
ATOM     12  C   LIG    1        5.755   5.143  -3.207  0.00  0.00    +0.000 A 
ATOM     13  C   LIG    1        4.564   5.745  -2.850  0.00  0.00    +0.010 A 
ATOM     14  C   LIG    1        3.824   5.244  -1.795  0.00  0.00    +0.000 A 
ATOM     15  C   LIG    1        4.276   4.139  -1.098  0.00  0.00    +0.000 A 
ENDBRANCH   9  10
BRANCH   1  16
ATOM     16  C   LIG    1        4.123   1.022  -1.544  0.00  0.00    +0.170 C 
BRANCH  16  17
ATOM     17  C   LIG    1        3.777  -0.048  -2.581  0.00  0.00    +0.330 C 
BRANCH  17  23
ATOM     18  C   LIG    1       -0.304  -0.269  -4.897  0.00  0.00    +0.090 C 
ATOM     19  C   LIG    1        0.227   0.345  -3.600  0.00  0.00    +0.120 C 
ATOM     20  N   LIG    1        0.196  -0.644  -2.508  0.00  0.00    -0.720 N 
ATOM     21  H   LIG    1       -0.589  -1.083  -2.146  0.00  0.00    +0.440 HD
ATOM     22  C   LIG    1        1.469  -0.816  -2.109  0.00  0.00    +0.700 C 
ATOM     23  N   LIG    1        2.329  -0.062  -2.804  0.00  0.00    -0.580 N 
ATOM     24  O   LIG    1        1.801  -1.571  -1.216  0.00  0.00    -0.540 OA
ATOM     25  C   LIG    1       -0.583   1.587  -3.224  0.00  0.00    +0.090 C 
ATOM     26  C   LIG    1        1.698   0.683  -3.733  0.00  0.00    +0.530 C 
ATOM     27  O   LIG    1        2.203   1.461  -4.514  0.00  0.00    -0.450 OA
ENDBRANCH  17  23
ENDBRANCH  16  17
ENDBRANCH   1  16
TORSDOF 4
