REMARK  Name = ZINCrg000000td0m.0
REMARK                            x       y       z     vdW  Elec       q    Type
REMARK                         _______ _______ _______ _____ _____    ______ ____
ROOT
ATOM      1  O   LIG    1        5.022   4.769  -0.686  0.00  0.00    -0.510 OA
ATOM      2  C   LIG    1        4.301   4.402  -1.589  0.00  0.00    +0.510 C 
ATOM      3  N   LIG    1        3.157   3.744  -1.314  0.00  0.00    -0.730 N 
ATOM      4  H   LIG    1        2.580   3.451  -2.036  0.00  0.00    +0.400 HD
ENDROOT
BRANCH   3   5
ATOM      5  C   LIG    1        2.786   3.472   0.077  0.00  0.00    +0.330 C 
BRANCH   5   6
ATOM      6  C   LIG    1        1.475   2.730   0.111  0.00  0.00    -0.070 A 
ATOM      7  C   LIG    1        0.302   3.411   0.381  0.00  0.00    +0.030 A 
ATOM      8  C   LIG    1       -0.901   2.731   0.411  0.00  0.00    +0.020 A 
ATOM      9  C   LIG    1       -0.932   1.370   0.168  0.00  0.00    +0.020 A 
ATOM     10  C   LIG    1        0.242   0.689  -0.096  0.00  0.00    +0.020 A 
ATOM     11  C   LIG    1        1.444   1.369  -0.127  0.00  0.00    -0.100 A 
BRANCH  11  12
ATOM     12  C   LIG    1        2.723   0.627  -0.421  0.00  0.00    +0.360 C 
BRANCH  12  13
ATOM     13  N   LIG    1        3.369   0.249   0.838  0.00  0.00    -0.370 N 
ATOM     14  C   LIG    1        3.731  -0.999   1.202  0.00  0.00    +0.220 A 
ATOM     15  C   LIG    1        4.296  -0.923   2.429  0.00  0.00    -0.120 A 
ATOM     16  C   LIG    1        4.271   0.416   2.833  0.00  0.00    +0.230 A 
ATOM     17  N   LIG    1        3.715   1.120   1.880  0.00  0.00    -0.290 NA
ENDBRANCH  12  13
ENDBRANCH  11  12
ENDBRANCH   5   6
ENDBRANCH   3   5
BRANCH   2  18
ATOM     18  C   LIG    1        4.683   4.682  -3.020  0.00  0.00    +0.210 C 
BRANCH  18  19
ATOM     19  N   LIG    1        5.880   5.533  -3.050  0.00  0.00    -0.520 NA
ATOM     20  C   LIG    1        6.420   5.636  -4.413  0.00  0.00    +0.160 C 
ATOM     21  C   LIG    1        7.703   6.471  -4.390  0.00  0.00    +0.230 C 
ATOM     22  O   LIG    1        7.417   7.758  -3.833  0.00  0.00    -0.370 OA
ATOM     23  C   LIG    1        6.864   7.708  -2.523  0.00  0.00    +0.090 C 
ATOM     24  C   LIG    1        7.896   7.125  -1.534  0.00  0.00    +0.020 C 
ATOM     25  C   LIG    1        8.487   8.408  -0.893  0.00  0.00    +0.210 C 
ATOM     26  O   LIG    1        7.350   9.293  -0.796  0.00  0.00    -0.370 OA
ATOM     27  C   LIG    1        6.582   9.124  -2.001  0.00  0.00    +0.220 C 
ATOM     28  C   LIG    1        5.591   6.869  -2.503  0.00  0.00    +0.180 C 
ENDBRANCH  18  19
ENDBRANCH   2  18
TORSDOF 6
