REMARK  Name = ZINCpe000000W1MT.0
REMARK                            x       y       z     vdW  Elec       q    Type
REMARK                         _______ _______ _______ _____ _____    ______ ____
ROOT
ATOM      1  N   LIG    1       -0.672   3.054  -1.290  0.00  0.00    -0.730 N 
ATOM      2  H   LIG    1       -1.391   3.594  -0.928  0.00  0.00    +0.400 HD
ATOM      3  C   LIG    1        0.404   3.648  -1.843  0.00  0.00    +0.710 C 
ATOM      4  N   LIG    1        0.436   4.988  -1.985  0.00  0.00    -0.630 N 
ATOM      5  C   LIG    1       -0.643   5.830  -1.446  0.00  0.00    +0.290 C 
ATOM      6  C   LIG    1       -0.008   6.942  -0.597  0.00  0.00    +0.210 C 
ATOM      7  N   LIG    1        0.992   7.655  -1.402  0.00  0.00    -0.470 N 
ATOM      8  C   LIG    1        2.093   6.766  -1.794  0.00  0.00    +0.210 C 
ATOM      9  C   LIG    1        1.547   5.647  -2.688  0.00  0.00    +0.320 C 
ATOM     10  O   LIG    1        1.346   2.975  -2.215  0.00  0.00    -0.590 OA
ENDROOT
BRANCH   7  11
ATOM     11  C   LIG    1        1.469   8.768  -0.729  0.00  0.00    +0.360 A 
ATOM     12  C   LIG    1        0.589   9.748  -0.264  0.00  0.00    -0.100 A 
ATOM     13  C   LIG    1        1.113  10.838   0.402  0.00  0.00    +0.340 A 
ATOM     14  N   LIG    1        2.425  10.919   0.576  0.00  0.00    -0.540 NA
ATOM     15  C   LIG    1        3.229   9.978   0.126  0.00  0.00    +0.350 A 
ATOM     16  C   LIG    1        4.713  10.115   0.348  0.00  0.00    +0.180 C 
ATOM     17  N   LIG    1        2.772   8.919  -0.510  0.00  0.00    -0.560 NA
ENDBRANCH   7  11
BRANCH   1  18
ATOM     18  C   LIG    1       -0.754   1.592  -1.235  0.00  0.00    +0.270 C 
BRANCH  18  19
ATOM     19  C   LIG    1       -2.222   1.166  -1.168  0.00  0.00    +0.170 C 
ATOM     20  C   LIG    1       -2.974   1.681  -2.413  0.00  0.00    +0.010 C 
ATOM     21  C   LIG    1       -4.343   2.111  -1.818  0.00  0.00    +0.000 C 
ATOM     22  C   LIG    1       -3.908   2.623  -0.421  0.00  0.00    +0.180 C 
ATOM     23  O   LIG    1       -2.844   1.747  -0.015  0.00  0.00    -0.340 OA
ENDBRANCH  18  19
BRANCH  18  24
ATOM     24  C   LIG    1       -0.019   1.087   0.008  0.00  0.00    +0.160 C 
BRANCH  24  26
ATOM     25  C   LIG    1       -0.083   1.128   2.403  0.00  0.00    +0.180 C 
ATOM     26  O   LIG    1       -0.692   1.548   1.180  0.00  0.00    -0.360 OA
ENDBRANCH  24  26
ENDBRANCH  18  24
ENDBRANCH   1  18
TORSDOF 5
