REMARK  Name = ZINCqH0000007A6w.0
REMARK                            x       y       z     vdW  Elec       q    Type
REMARK                         _______ _______ _______ _____ _____    ______ ____
ROOT
ATOM      1  O   LIG    1       -6.373  -1.447   2.611  0.00  0.00    -0.290 OA
ENDROOT
BRANCH   1   6
ATOM      2  C   LIG    1       -8.244  -6.989   3.994  0.00  0.00    +0.130 A 
ATOM      3  C   LIG    1       -7.754  -6.012   3.176  0.00  0.00    -0.010 A 
ATOM      4  C   LIG    1       -7.548  -4.718   3.684  0.00  0.00    -0.000 A 
ATOM      5  C   LIG    1       -7.051  -3.688   2.870  0.00  0.00    +0.030 A 
ATOM      6  C   LIG    1       -6.859  -2.442   3.398  0.00  0.00    +0.100 A 
ATOM      7  C   LIG    1       -7.162  -2.177   4.737  0.00  0.00    +0.000 A 
ATOM      8  C   LIG    1       -7.650  -3.153   5.550  0.00  0.00    +0.070 A 
ATOM      9  C   LIG    1       -7.855  -4.447   5.042  0.00  0.00    -0.080 A 
ATOM     10  C   LIG    1       -8.358  -5.477   5.855  0.00  0.00    +0.080 A 
ATOM     11  C   LIG    1       -8.545  -6.719   5.333  0.00  0.00    -0.060 A 
BRANCH   2  13
ATOM     12  C   LIG    1       -8.957  -9.219   4.406  0.00  0.00    +0.240 C 
ATOM     13  O   LIG    1       -8.442  -8.240   3.502  0.00  0.00    -0.320 OA
ENDBRANCH   2  13
ENDBRANCH   1   6
BRANCH   1  14
ATOM     14  C   LIG    1       -5.075  -1.121   2.769  0.00  0.00    +0.510 C 
ATOM     15  O   LIG    1       -4.420  -1.646   3.647  0.00  0.00    -0.480 OA
BRANCH  14  16
ATOM     16  C   LIG    1       -4.450  -0.126   1.875  0.00  0.00    -0.150 A 
ATOM     17  C   LIG    1       -5.200   0.479   0.865  0.00  0.00    +0.150 A 
ATOM     18  C   LIG    1       -4.609   1.408   0.033  0.00  0.00    +0.000 A 
ATOM     19  C   LIG    1       -3.276   1.740   0.198  0.00  0.00    +0.050 A 
ATOM     20  C   LIG    1       -2.527   1.144   1.197  0.00  0.00    -0.680 A 
ATOM     21  C   LIG    1       -2.638   2.755  -0.715  0.00  0.00    +0.120 C 
ATOM     22  C   LIG    1       -3.103   0.210   2.032  0.00  0.00    +0.210 A 
BRANCH  20  23
ATOM     23  S   LIG    1       -0.830   1.574   1.397  0.00  0.00    +2.500 S 
ATOM     24  O   LIG    1       -0.832   2.994   1.449  0.00  0.00    -0.930 OA
ATOM     25  O   LIG    1       -0.401   0.801   2.510  0.00  0.00    -0.930 OA
ATOM     26  C   LIG    1       -0.033   0.994  -0.126  0.00  0.00    -0.240 C 
ENDBRANCH  20  23
ENDBRANCH  14  16
ENDBRANCH   1  14
TORSDOF 5
