REMARK  Name = ZINCrH00000No4W6.0
REMARK                            x       y       z     vdW  Elec       q    Type
REMARK                         _______ _______ _______ _____ _____    ______ ____
ROOT
ATOM      1  C   LIG    1        3.716   1.772   0.061  0.00  0.00    +0.570 C 
ATOM      2  N   LIG    1        4.959   1.313  -0.184  0.00  0.00    -0.600 N 
ATOM      3  O   LIG    1        2.806   0.989   0.251  0.00  0.00    -0.510 OA
ENDROOT
BRANCH   1   8
ATOM      4  C   LIG    1        4.003   5.421   0.919  0.00  0.00    +0.140 A 
ATOM      5  C   LIG    1        2.971   5.957   0.162  0.00  0.00    -0.030 A 
ATOM      6  C   LIG    1        2.184   5.134  -0.625  0.00  0.00    +0.000 A 
ATOM      7  C   LIG    1        2.422   3.774  -0.662  0.00  0.00    +0.040 A 
ATOM      8  C   LIG    1        3.458   3.227   0.097  0.00  0.00    -0.080 A 
ATOM      9 CL   LIG    1        0.895   5.813  -1.569  0.00  0.00    -0.050 Cl
ATOM     10  C   LIG    1        4.250   4.058   0.889  0.00  0.00    +0.020 A 
BRANCH   4  12
ATOM     11  C   LIG    1        4.469   7.630   1.664  0.00  0.00    +0.250 C 
ATOM     12  O   LIG    1        4.776   6.234   1.686  0.00  0.00    -0.300 OA
ENDBRANCH   4  12
ENDBRANCH   1   8
BRANCH   2  13
ATOM     13  C   LIG    1        6.078   2.253  -0.295  0.00  0.00    +0.300 C 
BRANCH  13  14
ATOM     14  C   LIG    1        6.818   2.325   1.042  0.00  0.00    -0.060 C 
ATOM     15  C   LIG    1        8.236   1.750   1.097  0.00  0.00    +0.040 C 
ATOM     16  C   LIG    1        8.020   3.263   1.132  0.00  0.00    -0.110 C 
ATOM     17  C   LIG    1        8.262   3.990   2.459  0.00  0.00    +0.030 C 
ATOM     18  C   LIG    1        7.609   5.375   2.381  0.00  0.00    +0.220 C 
ATOM     19  O   LIG    1        8.091   6.059   1.222  0.00  0.00    -0.380 OA
ATOM     20  C   LIG    1        7.732   5.449  -0.019  0.00  0.00    +0.200 C 
ATOM     21  C   LIG    1        8.394   4.070  -0.116  0.00  0.00    +0.030 C 
ENDBRANCH  13  14
ENDBRANCH   2  13
BRANCH   2  22
ATOM     22  C   LIG    1        5.193  -0.125  -0.338  0.00  0.00    +0.410 C 
BRANCH  22  23
ATOM     23  C   LIG    1        5.085  -0.498  -1.794  0.00  0.00    -0.010 A 
ATOM     24  N   LIG    1        3.996  -0.788  -2.446  0.00  0.00    -0.340 NA
ATOM     25  O   LIG    1        4.226  -1.044  -3.605  0.00  0.00    +0.110 OA
ATOM     26  C   LIG    1        5.536  -0.964  -3.877  0.00  0.00    +0.160 A 
ATOM     27  C   LIG    1        6.146  -0.609  -2.721  0.00  0.00    -0.060 A 
ENDBRANCH  22  23
ENDBRANCH   2  22
TORSDOF 6
