REMARK  Name = ZINCpe000027pGSs.0
REMARK                            x       y       z     vdW  Elec       q    Type
REMARK                         _______ _______ _______ _____ _____    ______ ____
ROOT
ATOM      1  N   LIG    1        3.019  -3.196   1.431  0.00  0.00    -0.710 N 
ATOM      2  H   LIG    1        2.436  -3.065   2.196  0.00  0.00    +0.410 HD
ATOM      3  C   LIG    1        2.599  -2.852   0.198  0.00  0.00    +0.520 C 
ATOM      4  O   LIG    1        3.327  -3.016  -0.758  0.00  0.00    -0.520 OA
ENDROOT
BRANCH   1   5
ATOM      5  C   LIG    1        4.354  -3.770   1.617  0.00  0.00    +0.290 C 
BRANCH   5   6
ATOM      6  C   LIG    1        4.578  -4.069   3.101  0.00  0.00    +0.260 C 
ATOM      7  C   LIG    1        4.586  -2.759   3.891  0.00  0.00    +0.080 C 
BRANCH   6  10
ATOM      8  C   LIG    1        7.975  -5.148   3.530  0.00  0.00    -0.010 A 
ATOM      9  C   LIG    1        7.070  -4.151   3.392  0.00  0.00    +0.160 A 
ATOM     10  N   LIG    1        5.863  -4.752   3.273  0.00  0.00    -0.290 N 
ATOM     11  N   LIG    1        6.038  -6.025   3.342  0.00  0.00    -0.080 NA
ATOM     12  N   LIG    1        7.287  -6.294   3.490  0.00  0.00    -0.240 NA
BRANCH   8  13
ATOM     13  C   LIG    1        9.465  -4.996   3.697  0.00  0.00    +0.260 C 
ATOM     14  C   LIG    1        9.914  -5.726   4.964  0.00  0.00    +0.030 C 
BRANCH  13  15
ATOM     15  O   LIG    1       10.130  -5.556   2.563  0.00  0.00    -0.370 OA
BRANCH  15  17
ATOM     16  C   LIG    1       11.995  -5.604   1.027  0.00  0.00    +0.040 C 
ATOM     17  C   LIG    1       11.375  -4.927   2.251  0.00  0.00    +0.160 C 
ENDBRANCH  15  17
ENDBRANCH  13  15
ENDBRANCH   8  13
ENDBRANCH   6  10
ENDBRANCH   5   6
ENDBRANCH   1   5
BRANCH   3  18
ATOM     18  C   LIG    1        1.226  -2.262   0.006  0.00  0.00    +0.160 C 
BRANCH  18  19
ATOM     19  N   LIG    1        0.819  -2.414  -1.397  0.00  0.00    -0.370 N 
ATOM     20  C   LIG    1       -0.472  -1.745  -1.608  0.00  0.00    +0.330 C 
ATOM     21  C   LIG    1        0.688  -3.842  -1.716  0.00  0.00    +0.320 C 
ATOM     22  H   LIG    1        1.515  -1.998  -1.996  0.00  0.00    +0.430 HD
ENDBRANCH  18  19
BRANCH  18  23
ATOM     23  C   LIG    1        1.254  -0.776   0.370  0.00  0.00    +0.100 C 
BRANCH  23  24
ATOM     24  C   LIG    1        2.250  -0.048  -0.534  0.00  0.00    -0.080 C 
BRANCH  24  25
ATOM     25  C   LIG    1        2.243   1.423  -0.206  0.00  0.00    +0.490 C 
ATOM     26  O   LIG    1        2.975   2.186  -0.813  0.00  0.00    -0.680 OA
ATOM     27  O   LIG    1        1.510   1.850   0.669  0.00  0.00    -0.690 OA
ENDBRANCH  24  25
ENDBRANCH  23  24
ENDBRANCH  18  23
ENDBRANCH   3  18
TORSDOF 11
