REMARK  Name = ZINCpk00000y29ul.0
REMARK                            x       y       z     vdW  Elec       q    Type
REMARK                         _______ _______ _______ _____ _____    ______ ____
ROOT
ATOM      1  C   LIG    1       -0.565   1.897  -3.692  0.00  0.00    +0.270 A 
ATOM      2  C   LIG    1       -1.708   2.682  -3.803  0.00  0.00    -0.060 A 
ATOM      3  C   LIG    1       -2.198   3.017  -5.045  0.00  0.00    +0.140 A 
ATOM      4  C   LIG    1       -1.545   2.567  -6.197  0.00  0.00    -0.090 A 
ATOM      5  C   LIG    1       -0.396   1.778  -6.082  0.00  0.00    +0.140 A 
ATOM      6  C   LIG    1        0.091   1.452  -4.836  0.00  0.00    -0.180 A 
ENDROOT
BRANCH   1   7
ATOM      7  N   LIG    1       -0.073   1.560  -2.434  0.00  0.00    -0.720 N 
ATOM      8  H   LIG    1        0.724   1.013  -2.356  0.00  0.00    +0.400 HD
BRANCH   7   9
ATOM      9  C   LIG    1       -0.759   2.033  -1.229  0.00  0.00    +0.270 C 
BRANCH   9  11
ATOM     10  C   LIG    1        0.002  -0.004   0.002  0.00  0.00    +0.060 C 
ATOM     11  C   LIG    1       -0.019   1.526   0.010  0.00  0.00    -0.090 C 
ATOM     12  C   LIG    1        1.417   2.055  -0.000  0.00  0.00    +0.030 C 
BRANCH  11  13
ATOM     13  C   LIG    1       -0.735   2.019   1.269  0.00  0.00    +0.230 C 
ATOM     14  C   LIG    1        0.002   1.502   2.505  0.00  0.00    +0.030 C 
ATOM     15  C   LIG    1       -0.587   2.181   3.748  0.00  0.00    +0.030 C 
ATOM     16  C   LIG    1       -0.231   3.669   3.700  0.00  0.00    +0.060 C 
ATOM     17  C   LIG    1       -0.564   4.231   2.347  0.00  0.00    +0.520 C 
ATOM     18  O   LIG    1       -0.653   5.435   2.232  0.00  0.00    -0.560 OA
ATOM     19  N   LIG    1       -0.761   3.477   1.269  0.00  0.00    -0.720 N 
ATOM     20  H   LIG    1       -0.937   3.928   0.428  0.00  0.00    +0.400 HD
ENDBRANCH  11  13
ENDBRANCH   9  11
ENDBRANCH   7   9
ENDBRANCH   1   7
BRANCH   4  21
ATOM     21  C   LIG    1       -2.051   2.913  -7.490  0.00  0.00    +0.260 C 
ATOM     22  N   LIG    1       -2.452   3.188  -8.517  0.00  0.00    -0.420 NA
ENDBRANCH   4  21
BRANCH   6  23
ATOM     23  C   LIG    1        1.333   0.607  -4.712  0.00  0.00    -0.290 C 
BRANCH  23  24
ATOM     24  S   LIG    1        0.869  -1.146  -4.663  0.00  0.00    +2.600 S 
ATOM     25  O   LIG    1        0.354  -1.561  -5.921  0.00  0.00    -0.950 OA
ATOM     26  O   LIG    1        0.183  -1.447  -3.455  0.00  0.00    -0.950 OA
BRANCH  24  27
ATOM     27  N   LIG    1        2.310  -1.951  -4.526  0.00  0.00    -1.250 NA
ATOM     28  H   LIG    1        2.322  -2.920  -4.481  0.00  0.00    +0.420 HD
ATOM     29  H   LIG    1        3.142  -1.453  -4.491  0.00  0.00    +0.410 HD
ENDBRANCH  24  27
ENDBRANCH  23  24
ENDBRANCH   6  23
TORSDOF 8
