REMARK  Name = ZINCrD0000072Bcw.0
REMARK                            x       y       z     vdW  Elec       q    Type
REMARK                         _______ _______ _______ _____ _____    ______ ____
ROOT
ATOM      1  C   LIG    1        3.268  -0.860  -4.208  0.00  0.00    +0.270 C 
ATOM      2  C   LIG    1        4.516  -1.734  -3.990  0.00  0.00    +0.000 C 
ATOM      3  C   LIG    1        5.199  -1.877  -5.365  0.00  0.00    +0.020 C 
ATOM      4  C   LIG    1        4.059  -1.629  -6.384  0.00  0.00    +0.050 C 
ATOM      5  C   LIG    1        3.236  -0.504  -5.709  0.00  0.00    +0.030 C 
ENDROOT
BRANCH   1   8
ATOM      6  N   LIG    1        3.000   1.491  -1.394  0.00  0.00    -0.630 N 
ATOM      7  C   LIG    1        2.912   0.368  -2.134  0.00  0.00    +0.710 C 
ATOM      8  N   LIG    1        3.363   0.361  -3.404  0.00  0.00    -0.740 N 
ATOM      9  H   LIG    1        3.750   1.164  -3.786  0.00  0.00    +0.400 HD
ATOM     10  O   LIG    1        2.427  -0.639  -1.655  0.00  0.00    -0.590 OA
ATOM     11  C   LIG    1        3.585   2.704  -1.971  0.00  0.00    +0.280 C 
BRANCH   6  12
ATOM     12  C   LIG    1        2.510   1.499  -0.013  0.00  0.00    +0.420 C 
BRANCH  12  16
ATOM     13  C   LIG    1       -2.499   1.421   0.021  0.00  0.00    +0.370 C 
ATOM     14  N   LIG    1       -1.105   1.874   0.017  0.00  0.00    -0.300 N 
ATOM     15  C   LIG    1       -0.013   1.076   0.008  0.00  0.00    +0.170 A 
ATOM     16  C   LIG    1        1.058   1.903   0.002  0.00  0.00    -0.050 A 
ATOM     17  N   LIG    1        0.575   3.151   0.013  0.00  0.00    -0.260 NA
ATOM     18  N   LIG    1       -0.710   3.099   0.024  0.00  0.00    -0.090 NA
ENDBRANCH  12  16
ENDBRANCH   6  12
ENDBRANCH   1   8
BRANCH   5  19
ATOM     19  C   LIG    1        1.819  -0.502  -6.221  0.00  0.00    -0.070 A 
ATOM     20  C   LIG    1        1.058  -1.654  -6.151  0.00  0.00    +0.050 A 
ATOM     21  C   LIG    1       -0.242  -1.653  -6.621  0.00  0.00    +0.020 A 
ATOM     22  C   LIG    1       -0.781  -0.500  -7.160  0.00  0.00    +0.060 A 
ATOM     23  C   LIG    1       -0.020   0.653  -7.229  0.00  0.00    -0.180 A 
ATOM     24  C   LIG    1        1.279   0.652  -6.756  0.00  0.00    +0.060 A 
BRANCH  23  25
ATOM     25  C   LIG    1       -0.608   1.910  -7.817  0.00  0.00    +0.510 C 
ATOM     26  F   LIG    1        0.152   2.307  -8.922  0.00  0.00    -0.180 F 
ATOM     27  F   LIG    1       -0.596   2.925  -6.854  0.00  0.00    -0.180 F 
ATOM     28  F   LIG    1       -1.925   1.665  -8.220  0.00  0.00    -0.180 F 
ENDBRANCH  23  25
ENDBRANCH   5  19
TORSDOF 5
