REMARK  Name = ZINCpk00000y6wuT.0
REMARK                            x       y       z     vdW  Elec       q    Type
REMARK                         _______ _______ _______ _____ _____    ______ ____
ROOT
ATOM      1  C   LIG    1       -1.402   3.839  -2.894  0.00  0.00    +0.300 C 
ENDROOT
BRANCH   1   3
ATOM      2  C   LIG    1       -1.523   3.530  -0.416  0.00  0.00    +0.200 C 
ATOM      3  C   LIG    1       -0.707   3.229  -1.675  0.00  0.00    +0.170 C 
ATOM      4  O   LIG    1       -0.604   1.813  -1.844  0.00  0.00    -0.370 OA
ATOM      5  C   LIG    1        0.008   1.144  -0.738  0.00  0.00    +0.230 C 
ATOM      6  C   LIG    1       -0.800   1.423   0.532  0.00  0.00    +0.170 C 
ATOM      7  N   LIG    1       -0.891   2.876   0.739  0.00  0.00    -0.540 NA
ATOM      8  C   LIG    1       -1.613   3.187   1.980  0.00  0.00    +0.190 C 
BRANCH   2  14
ATOM      9  C   LIG    1        0.901   5.417  -0.006  0.00  0.00    +0.350 C 
ATOM     10  N   LIG    1       -0.505   5.829  -0.011  0.00  0.00    -0.350 N 
ATOM     11  N   LIG    1       -0.982   7.135   0.163  0.00  0.00    -0.290 NA
ATOM     12  C   LIG    1       -2.288   7.104   0.101  0.00  0.00    +0.240 A 
ATOM     13  C   LIG    1       -2.684   5.782  -0.121  0.00  0.00    -0.110 A 
ATOM     14  C   LIG    1       -1.569   5.019  -0.189  0.00  0.00    +0.090 A 
ENDBRANCH   2  14
ENDBRANCH   1   3
BRANCH   1  15
ATOM     15  N   LIG    1       -0.622   3.547  -4.099  0.00  0.00    -0.730 N 
ATOM     16  H   LIG    1        0.200   3.035  -4.032  0.00  0.00    +0.400 HD
ATOM     17  C   LIG    1       -1.045   3.988  -5.300  0.00  0.00    +0.590 C 
ATOM     18  O   LIG    1       -2.076   4.630  -5.383  0.00  0.00    -0.520 OA
BRANCH  17  19
ATOM     19  C   LIG    1       -0.264   3.696  -6.506  0.00  0.00    -0.060 A 
ATOM     20  C   LIG    1       -0.576   4.082  -7.793  0.00  0.00    -0.030 A 
ATOM     21  C   LIG    1        0.435   3.592  -8.625  0.00  0.00    -0.070 A 
ATOM     22  C   LIG    1        1.327   2.929  -7.850  0.00  0.00    +0.200 A 
ATOM     23  N   LIG    1        0.917   2.990  -6.559  0.00  0.00    -0.540 N 
ATOM     24  H   LIG    1        1.377   2.600  -5.800  0.00  0.00    +0.420 HD
BRANCH  20  25
ATOM     25  C   LIG    1       -1.780   4.881  -8.221  0.00  0.00    +0.030 C 
ATOM     26  C   LIG    1       -2.036   5.022  -9.723  0.00  0.00    +0.010 C 
ATOM     27  C   LIG    1       -1.528   6.220  -8.916  0.00  0.00    +0.020 C 
ENDBRANCH  20  25
ENDBRANCH  17  19
ENDBRANCH   1  15
TORSDOF 5
