REMARK  Name = ZINCnE00000rhnGh.0
REMARK                            x       y       z     vdW  Elec       q    Type
REMARK                         _______ _______ _______ _____ _____    ______ ____
ROOT
ATOM      1  C   LIG    1       -1.244   3.132   0.030  0.00  0.00    -0.100 A 
ATOM      2  C   LIG    1       -1.200   1.730   0.017  0.00  0.00    +0.070 A 
ATOM      3  C   LIG    1       -0.013   1.076   0.008  0.00  0.00    +0.050 A 
ATOM      4  C   LIG    1        1.209   1.792   0.000  0.00  0.00    +0.070 A 
ATOM      5  N   LIG    1        2.454   1.312  -0.015  0.00  0.00    -0.460 NA
ATOM      6  C   LIG    1        3.435   2.159  -0.020  0.00  0.00    +0.120 A 
ATOM      7  S   LIG    1        2.817   3.805  -0.006  0.00  0.00    +0.050 S 
ATOM      8  C   LIG    1        1.164   3.195   0.008  0.00  0.00    -0.170 A 
ATOM      9  C   LIG    1       -0.053   3.860   0.023  0.00  0.00    +0.090 A 
ENDROOT
BRANCH   1  11
ATOM     10  O   LIG    1       -2.572   5.055   0.054  0.00  0.00    -0.680 OA
ATOM     11  C   LIG    1       -2.538   3.832   0.047  0.00  0.00    +0.520 C 
ATOM     12  O   LIG    1       -3.580   3.191   0.054  0.00  0.00    -0.680 OA
ENDBRANCH   1  11
BRANCH   6  13
ATOM     13  C   LIG    1        4.854   1.797  -0.035  0.00  0.00    +0.080 C 
ATOM     14  C   LIG    1        5.219   0.500  -0.046  0.00  0.00    +0.120 C 
BRANCH  14  15
ATOM     15  C   LIG    1        6.645   0.136  -0.061  0.00  0.00    +0.010 A 
ATOM     16  C   LIG    1        7.179  -1.138  -0.072  0.00  0.00    +0.160 A 
ATOM     17  N   LIG    1        8.520  -0.975  -0.085  0.00  0.00    -0.280 N 
ATOM     18  N   LIG    1        8.781   0.284  -0.081  0.00  0.00    -0.090 NA
ATOM     19  N   LIG    1        7.699   0.978  -0.072  0.00  0.00    -0.260 NA
BRANCH  17  20
ATOM     20  C   LIG    1        9.511  -2.053  -0.100  0.00  0.00    +0.250 C 
ATOM     21  C   LIG    1        8.919  -3.430  -0.445  0.00  0.00    +0.050 C 
ATOM     22  C   LIG    1        9.848  -4.011   0.635  0.00  0.00    +0.040 C 
ATOM     23  C   LIG    1        9.823  -2.622   1.294  0.00  0.00    +0.040 C 
ENDBRANCH  17  20
ENDBRANCH  14  15
ENDBRANCH   6  13
TORSDOF 4
