REMARK  Name = ZINCnE000001TClK.0
REMARK                            x       y       z     vdW  Elec       q    Type
REMARK                         _______ _______ _______ _____ _____    ______ ____
ROOT
ATOM      1  C   LIG    1       -2.562   1.162  -0.205  0.00  0.00    +0.580 C 
ATOM      2  N   LIG    1       -3.617   1.990  -0.073  0.00  0.00    -0.580 N 
ATOM      3  O   LIG    1       -1.436   1.575  -0.001  0.00  0.00    -0.520 OA
ENDROOT
BRANCH   1   6
ATOM      4  C   LIG    1       -2.234  -2.247  -1.585  0.00  0.00    -0.220 A 
ATOM      5  C   LIG    1       -1.846  -0.966  -1.336  0.00  0.00    +0.060 A 
ATOM      6  C   LIG    1       -2.772  -0.243  -0.597  0.00  0.00    -0.150 A 
ATOM      7  C   LIG    1       -3.897  -0.946  -0.266  0.00  0.00    -0.110 A 
ATOM      8  S   LIG    1       -3.812  -2.539  -0.869  0.00  0.00    +0.230 S 
BRANCH   4  10
ATOM      9  O   LIG    1       -0.361  -2.926  -2.793  0.00  0.00    -0.670 OA
ATOM     10  C   LIG    1       -1.455  -3.232  -2.334  0.00  0.00    +0.540 C 
ATOM     11  O   LIG    1       -1.895  -4.362  -2.502  0.00  0.00    -0.680 OA
ENDBRANCH   4  10
ENDBRANCH   1   6
BRANCH   2  12
ATOM     12  C   LIG    1       -3.402   3.422   0.149  0.00  0.00    +0.200 C 
ATOM     13  C   LIG    1       -2.015   3.985  -0.169  0.00  0.00    +0.030 C 
ATOM     14  C   LIG    1       -2.462   3.827   1.286  0.00  0.00    +0.000 C 
ENDBRANCH   2  12
BRANCH   2  15
ATOM     15  C   LIG    1       -4.980   1.457  -0.151  0.00  0.00    +0.290 C 
BRANCH  15  16
ATOM     16  C   LIG    1       -5.529   1.252   1.262  0.00  0.00    +0.060 C 
BRANCH  16  17
ATOM     17  C   LIG    1       -6.930   0.704   1.182  0.00  0.00    -0.050 A 
ATOM     18  C   LIG    1       -8.008   1.568   1.144  0.00  0.00    +0.000 A 
ATOM     19  C   LIG    1       -9.295   1.067   1.066  0.00  0.00    +0.040 A 
ATOM     20  C   LIG    1       -9.505  -0.298   1.035  0.00  0.00    -0.030 A 
ATOM     21  C   LIG    1       -8.425  -1.165   1.078  0.00  0.00    +0.110 A 
ATOM     22  F   LIG    1       -8.629  -2.500   1.048  0.00  0.00    -0.140 F 
ATOM     23  C   LIG    1       -7.138  -0.662   1.152  0.00  0.00    -0.020 A 
ENDBRANCH  16  17
ENDBRANCH  15  16
ENDBRANCH   2  15
TORSDOF 6
