REMARK  Name = ZINCrD000000Cn21.1
REMARK                            x       y       z     vdW  Elec       q    Type
REMARK                         _______ _______ _______ _____ _____    ______ ____
ROOT
ATOM      1  C   LIG    1       -0.528   2.385  -4.190  0.00  0.00    +0.020 A 
ATOM      2  C   LIG    1        0.091   1.830  -5.307  0.00  0.00    +0.010 A 
ATOM      3  C   LIG    1        1.410   2.127  -5.585  0.00  0.00    +0.010 A 
ATOM      4  C   LIG    1        2.126   2.977  -4.759  0.00  0.00    +0.000 A 
ATOM      5  C   LIG    1        1.529   3.542  -3.651  0.00  0.00    +0.030 A 
ATOM      6  C   LIG    1        0.199   3.249  -3.350  0.00  0.00    -0.050 A 
ENDROOT
BRANCH   6   7
ATOM      7  C   LIG    1       -0.443   3.845  -2.162  0.00  0.00    +0.570 C 
ATOM      8  N   LIG    1       -0.715   3.079  -1.087  0.00  0.00    -0.630 N 
ATOM      9  C   LIG    1       -0.474   1.627  -1.106  0.00  0.00    +0.310 C 
ATOM     10  C   LIG    1        0.361   1.270   0.125  0.00  0.00    +0.250 C 
ATOM     11  N   LIG    1       -0.317   1.739   1.344  0.00  0.00    -0.380 N 
ATOM     12  C   LIG    1        0.477   1.287   2.499  0.00  0.00    +0.250 C 
ATOM     13  C   LIG    1       -0.206   1.695   3.803  0.00  0.00    +0.060 C 
ATOM     14  C   LIG    1       -0.316   3.223   3.844  0.00  0.00    +0.040 C 
ATOM     15  C   LIG    1       -1.104   3.689   2.619  0.00  0.00    +0.060 C 
ATOM     16  C   LIG    1       -0.414   3.203   1.340  0.00  0.00    +0.160 C 
ATOM     17  H   LIG    1       -1.242   1.339   1.390  0.00  0.00    +0.420 HD
ATOM     18  C   LIG    1       -1.260   3.665   0.145  0.00  0.00    +0.320 C 
ATOM     19  O   LIG    1       -0.727   5.027  -2.153  0.00  0.00    -0.460 OA
ENDBRANCH   6   7
BRANCH   1  25
ATOM     20  C   LIG    1       -2.920   3.081  -3.927  0.00  0.00    -0.110 A 
ATOM     21  C   LIG    1       -4.250   2.765  -3.645  0.00  0.00    +0.040 A 
ATOM     22  C   LIG    1       -4.596   1.470  -3.318  0.00  0.00    -0.010 A 
ATOM     23  C   LIG    1       -3.633   0.476  -3.274  0.00  0.00    -0.010 A 
ATOM     24  C   LIG    1       -2.313   0.768  -3.555  0.00  0.00    -0.010 A 
ATOM     25  C   LIG    1       -1.942   2.068  -3.887  0.00  0.00    -0.050 A 
BRANCH  20  27
ATOM     26  O   LIG    1       -3.394   5.340  -4.305  0.00  0.00    -0.680 OA
ATOM     27  C   LIG    1       -2.542   4.463  -4.271  0.00  0.00    +0.510 C 
ATOM     28  O   LIG    1       -1.376   4.734  -4.523  0.00  0.00    -0.650 OA
ENDBRANCH  20  27
ENDBRANCH   1  25
TORSDOF 3
