REMARK  Name = ZINCrD000000Cn21.0
REMARK                            x       y       z     vdW  Elec       q    Type
REMARK                         _______ _______ _______ _____ _____    ______ ____
ROOT
ATOM      1  C   LIG    1        4.534   1.582   0.158  0.00  0.00    +0.060 A 
ATOM      2  C   LIG    1        4.858   2.393   1.243  0.00  0.00    +0.010 A 
ATOM      3  C   LIG    1        5.162   3.725   1.043  0.00  0.00    +0.020 A 
ATOM      4  C   LIG    1        5.134   4.267  -0.230  0.00  0.00    -0.010 A 
ATOM      5  C   LIG    1        4.809   3.481  -1.318  0.00  0.00    +0.000 A 
ATOM      6  C   LIG    1        4.506   2.133  -1.137  0.00  0.00    -0.060 A 
ENDROOT
BRANCH   6   7
ATOM      7  C   LIG    1        4.159   1.287  -2.296  0.00  0.00    +0.600 C 
ATOM      8  N   LIG    1        4.935   1.302  -3.398  0.00  0.00    -0.610 N 
ATOM      9  C   LIG    1        6.195   2.061  -3.426  0.00  0.00    +0.350 C 
ATOM     10  C   LIG    1        6.211   2.936  -4.677  0.00  0.00    +0.230 C 
ATOM     11  N   LIG    1        5.984   2.101  -5.865  0.00  0.00    -0.380 N 
ATOM     12  C   LIG    1        6.104   2.931  -7.071  0.00  0.00    +0.250 C 
ATOM     13  C   LIG    1        5.120   4.100  -6.986  0.00  0.00    +0.050 C 
ATOM     14  C   LIG    1        3.693   3.555  -6.880  0.00  0.00    +0.040 C 
ATOM     15  C   LIG    1        3.600   2.624  -5.668  0.00  0.00    +0.060 C 
ATOM     16  C   LIG    1        4.641   1.511  -5.809  0.00  0.00    +0.160 C 
ATOM     17  H   LIG    1        6.674   1.365  -5.893  0.00  0.00    +0.430 HD
ATOM     18  C   LIG    1        4.545   0.564  -4.609  0.00  0.00    +0.310 C 
ATOM     19  O   LIG    1        3.173   0.577  -2.257  0.00  0.00    -0.520 OA
ENDBRANCH   6   7
BRANCH   1  25
ATOM     20  C   LIG    1        5.051  -0.847  -0.172  0.00  0.00    -0.130 A 
ATOM     21  C   LIG    1        4.737  -2.191   0.033  0.00  0.00    +0.030 A 
ATOM     22  C   LIG    1        3.614  -2.534   0.759  0.00  0.00    -0.010 A 
ATOM     23  C   LIG    1        2.794  -1.551   1.288  0.00  0.00    +0.000 A 
ATOM     24  C   LIG    1        3.088  -0.215   1.095  0.00  0.00    +0.010 A 
ATOM     25  C   LIG    1        4.215   0.152   0.366  0.00  0.00    -0.030 A 
BRANCH  20  27
ATOM     26  O   LIG    1        6.970  -1.344  -1.412  0.00  0.00    -0.680 OA
ATOM     27  C   LIG    1        6.247  -0.474  -0.946  0.00  0.00    +0.530 C 
ATOM     28  O   LIG    1        6.519   0.706  -1.123  0.00  0.00    -0.680 OA
ENDBRANCH  20  27
ENDBRANCH   1  25
TORSDOF 3
