REMARK  Name = ZINCvU00000008u9.0
REMARK                            x       y       z     vdW  Elec       q    Type
REMARK                         _______ _______ _______ _____ _____    ______ ____
ROOT
ATOM      1  C   LIG    1       -2.553   3.867   0.048  0.00  0.00    +0.370 C 
ATOM      2  C   LIG    1       -2.979   4.025   1.486  0.00  0.00    -0.300 A 
ATOM      3  C   LIG    1       -4.200   3.497   1.864  0.00  0.00    +0.330 A 
ATOM      4  N   LIG    1       -4.351   3.769   3.195  0.00  0.00    -0.300 N 
ATOM      5  N   LIG    1       -3.212   4.464   3.622  0.00  0.00    -0.280 NA
ATOM      6  N   LIG    1       -4.974   2.861   0.955  0.00  0.00    -0.540 NA
ATOM      7  C   LIG    1       -4.656   2.694  -0.307  0.00  0.00    +0.400 A 
ATOM      8  S   LIG    1       -5.548   1.894  -1.614  0.00  0.00    +0.160 S 
ATOM      9  C   LIG    1       -4.321   2.201  -2.847  0.00  0.00    -0.170 A 
ATOM     10  C   LIG    1       -4.256   1.883  -4.193  0.00  0.00    +0.100 A 
ATOM     11  C   LIG    1       -3.152   2.256  -4.936  0.00  0.00    +0.020 A 
ATOM     12  C   LIG    1       -2.121   2.946  -4.323  0.00  0.00    +0.060 A 
ATOM     13  C   LIG    1       -2.183   3.264  -2.986  0.00  0.00    +0.010 A 
ATOM     14  C   LIG    1       -3.295   2.894  -2.214  0.00  0.00    +0.150 A 
ATOM     15  C   LIG    1       -2.401   4.614   2.603  0.00  0.00    +0.130 A 
ATOM     16  C   LIG    1       -1.065   5.311   2.638  0.00  0.00    +0.160 C 
ATOM     17  N   LIG    1       -3.491   3.148  -0.856  0.00  0.00    -0.540 N 
ENDROOT
BRANCH   1  21
ATOM     18  C   LIG    1        1.179   1.786   0.000  0.00  0.00    +0.140 A 
ATOM     19  C   LIG    1       -0.013   1.076   0.008  0.00  0.00    -0.020 A 
ATOM     20  C   LIG    1       -1.218   1.751   0.017  0.00  0.00    +0.070 A 
ATOM     21  C   LIG    1       -1.237   3.133   0.031  0.00  0.00    -0.140 A 
ATOM     22  C   LIG    1       -0.051   3.844   0.023  0.00  0.00    +0.060 A 
ATOM     23  C   LIG    1        1.157   3.174   0.008  0.00  0.00    -0.070 A 
BRANCH  18  25
ATOM     24  C   LIG    1        3.553   1.921  -0.022  0.00  0.00    +0.250 C 
ATOM     25  O   LIG    1        2.366   1.125  -0.015  0.00  0.00    -0.320 OA
ENDBRANCH  18  25
ENDBRANCH   1  21
BRANCH   4  26
ATOM     26  C   LIG    1       -5.448   3.414   3.990  0.00  0.00    +0.150 A 
ATOM     27  C   LIG    1       -6.728   3.417   3.452  0.00  0.00    +0.020 A 
ATOM     28  C   LIG    1       -7.806   3.061   4.237  0.00  0.00    +0.030 A 
ATOM     29  C   LIG    1       -7.614   2.714   5.562  0.00  0.00    +0.010 A 
ATOM     30  C   LIG    1       -6.342   2.716   6.103  0.00  0.00    +0.030 A 
ATOM     31  C   LIG    1       -5.258   3.065   5.321  0.00  0.00    +0.020 A 
ENDBRANCH   4  26
TORSDOF 3
