REMARK  Name = ZINCnE000004R8Cl.0
REMARK                            x       y       z     vdW  Elec       q    Type
REMARK                         _______ _______ _______ _____ _____    ______ ____
ROOT
ATOM      1  C   LIG    1        3.334  -2.180  -0.044  0.00  0.00    +0.050 C 
ATOM      2  C   LIG    1        2.583  -2.633   1.210  0.00  0.00    +0.020 C 
ENDROOT
BRANCH   1   3
ATOM      3  C   LIG    1        2.570  -2.611  -1.269  0.00  0.00    +0.500 C 
ATOM      4  O   LIG    1        2.352  -3.795  -1.467  0.00  0.00    -0.700 OA
ATOM      5  O   LIG    1        2.170  -1.777  -2.063  0.00  0.00    -0.670 OA
ENDBRANCH   1   3
BRANCH   1   6
ATOM      6  O   LIG    1        3.459  -0.757  -0.036  0.00  0.00    -0.290 OA
BRANCH   6  11
ATOM      7  C   LIG    1        1.184   2.072   0.002  0.00  0.00    -0.000 A 
ATOM      8  C   LIG    1       -0.017   1.377   0.010  0.00  0.00    -0.100 A 
ATOM      9  C   LIG    1        0.002  -0.004   0.002  0.00  0.00    +0.290 A 
ATOM     10  N   LIG    1        1.144  -0.665  -0.013  0.00  0.00    -0.500 NA
ATOM     11  C   LIG    1        2.309  -0.038  -0.021  0.00  0.00    +0.370 A 
ATOM     12  C   LIG    1        2.365   1.350  -0.013  0.00  0.00    -0.080 A 
BRANCH   7  14
ATOM     13  C   LIG    1       -0.234   4.106   0.026  0.00  0.00    +0.030 C 
ATOM     14  C   LIG    1        1.203   3.579   0.010  0.00  0.00    -0.030 C 
ATOM     15  C   LIG    1        1.918   4.087  -1.244  0.00  0.00    +0.040 C 
ATOM     16  C   LIG    1        1.942   4.074   1.255  0.00  0.00    +0.040 C 
ENDBRANCH   7  14
ENDBRANCH   6  11
ENDBRANCH   1   6
BRANCH   1  17
ATOM     17  C   LIG    1        4.726  -2.815  -0.061  0.00  0.00    +0.070 C 
BRANCH  17  18
ATOM     18  C   LIG    1        5.456  -2.479   1.241  0.00  0.00    -0.040 C 
ATOM     19  C   LIG    1        6.800  -3.212   1.278  0.00  0.00    +0.010 C 
ATOM     20  C   LIG    1        7.556  -2.807   2.547  0.00  0.00    -0.010 C 
ATOM     21  C   LIG    1        7.721  -1.285   2.571  0.00  0.00    +0.200 C 
ATOM     22  O   LIG    1        6.435  -0.666   2.504  0.00  0.00    -0.390 OA
ATOM     23  C   LIG    1        5.703  -0.970   1.315  0.00  0.00    +0.230 C 
ENDBRANCH  17  18
ENDBRANCH   1  17
TORSDOF 6
