REMARK  Name = ZINCrm000000HlVN.0
REMARK                            x       y       z     vdW  Elec       q    Type
REMARK                         _______ _______ _______ _____ _____    ______ ____
ROOT
ATOM      1  N   LIG    1       -0.483   3.551  -1.373  0.00  0.00    -0.750 N 
ATOM      2  H   LIG    1       -0.127   4.168  -0.714  0.00  0.00    +0.390 HD
ATOM      3  C   LIG    1       -0.318   2.223  -1.212  0.00  0.00    +0.520 C 
ATOM      4  O   LIG    1       -0.763   1.453  -2.036  0.00  0.00    -0.490 OA
ENDROOT
BRANCH   3   5
ATOM      5  C   LIG    1        0.421   1.696  -0.009  0.00  0.00    +0.000 C 
ATOM      6  C   LIG    1        1.952   1.719  -0.167  0.00  0.00    +0.120 C 
ATOM      7  C   LIG    1        1.961   0.352   0.525  0.00  0.00    -0.580 C 
ATOM      8  C   LIG    1        2.083   0.430   2.045  0.00  0.00    +0.120 C 
ATOM      9  C   LIG    1        3.492   0.881   2.427  0.00  0.00    +0.160 C 
ATOM     10  C   LIG    1        4.518  -0.188   2.064  0.00  0.00    +0.090 C 
ATOM     11  C   LIG    1        4.698  -0.255   0.546  0.00  0.00    -0.300 C 
ATOM     12  S   LIG    1        3.140  -0.818  -0.204  0.00  0.00    +2.420 S 
ATOM     13  O   LIG    1        3.201  -0.590  -1.606  0.00  0.00    -0.900 OA
ATOM     14  O   LIG    1        2.847  -2.122   0.279  0.00  0.00    -0.910 OA
ATOM     15  C   LIG    1        0.524   0.161   0.027  0.00  0.00    +0.150 C 
BRANCH   9  16
ATOM     16  N   LIG    1        3.544   1.131   3.874  0.00  0.00    -0.630 N 
ATOM     17  H   LIG    1        2.881   1.852   4.114  0.00  0.00    +0.440 HD
ATOM     18  H   LIG    1        4.473   1.429   4.130  0.00  0.00    +0.440 HD
ATOM     19  H   LIG    1        3.314   0.283   4.370  0.00  0.00    +0.440 HD
ENDBRANCH   9  16
ENDBRANCH   3   5
BRANCH   1  20
ATOM     20  C   LIG    1       -1.202   4.064  -2.542  0.00  0.00    +0.320 C 
BRANCH  20  21
ATOM     21  C   LIG    1       -1.362   5.580  -2.418  0.00  0.00    +0.050 C 
ATOM     22  C   LIG    1       -2.226   6.098  -3.570  0.00  0.00    +0.110 C 
ATOM     23  C   LIG    1        0.015   6.245  -2.476  0.00  0.00    +0.100 C 
BRANCH  21  28
ATOM     24  C   LIG    1       -2.790   7.701   0.329  0.00  0.00    +0.010 C 
ATOM     25  C   LIG    1       -4.143   7.001   0.480  0.00  0.00    +0.050 C 
ATOM     26  C   LIG    1       -3.950   5.493   0.298  0.00  0.00    +0.050 C 
ATOM     27  C   LIG    1       -3.309   5.228  -1.066  0.00  0.00    +0.250 C 
ATOM     28  N   LIG    1       -2.007   5.901  -1.138  0.00  0.00    -0.380 N 
ATOM     29  H   LIG    1       -1.423   5.584  -0.379  0.00  0.00    +0.410 HD
ATOM     30  C   LIG    1       -2.192   7.354  -1.036  0.00  0.00    +0.260 C 
BRANCH  24  32
ATOM     31  C   LIG    1       -2.385   7.684   2.794  0.00  0.00    +0.030 C 
ATOM     32  C   LIG    1       -1.845   7.231   1.436  0.00  0.00    +0.000 C 
ENDBRANCH  24  32
ENDBRANCH  21  28
ENDBRANCH  20  21
ENDBRANCH   1  20
TORSDOF 6
