REMARK  Name = ZINCrm000000HlVN.1
REMARK                            x       y       z     vdW  Elec       q    Type
REMARK                         _______ _______ _______ _____ _____    ______ ____
ROOT
ATOM      1  N   LIG    1       -0.011   0.966   0.007  0.00  0.00    -0.750 N 
ATOM      2  H   LIG    1        0.002  -0.004   0.002  0.00  0.00    +0.400 HD
ATOM      3  C   LIG    1       -1.187   1.624   0.017  0.00  0.00    +0.540 C 
ATOM      4  O   LIG    1       -1.204   2.837   0.023  0.00  0.00    -0.510 OA
ENDROOT
BRANCH   3   5
ATOM      5  C   LIG    1       -2.482   0.853   0.018  0.00  0.00    -0.010 C 
ATOM      6  C   LIG    1       -2.903   0.351  -1.374  0.00  0.00    +0.130 C 
ATOM      7  C   LIG    1       -4.336   0.737  -0.987  0.00  0.00    -0.580 C 
ATOM      8  C   LIG    1       -5.134   1.376  -2.121  0.00  0.00    +0.110 C 
ATOM      9  C   LIG    1       -6.436   1.957  -1.573  0.00  0.00    +0.160 C 
ATOM     10  C   LIG    1       -7.366   0.844  -1.099  0.00  0.00    +0.090 C 
ATOM     11  C   LIG    1       -6.827   0.221   0.192  0.00  0.00    -0.300 C 
ATOM     12  S   LIG    1       -5.247  -0.604  -0.172  0.00  0.00    +2.430 S 
ATOM     13  O   LIG    1       -4.602  -0.912   1.056  0.00  0.00    -0.910 OA
ATOM     14  O   LIG    1       -5.480  -1.638  -1.118  0.00  0.00    -0.910 OA
ATOM     15  C   LIG    1       -3.733   1.749  -0.007  0.00  0.00    +0.140 C 
BRANCH   9  16
ATOM     16  N   LIG    1       -7.104   2.727  -2.631  0.00  0.00    -0.630 N 
ATOM     17  H   LIG    1       -7.324   2.116  -3.404  0.00  0.00    +0.440 HD
ATOM     18  H   LIG    1       -6.492   3.464  -2.948  0.00  0.00    +0.440 HD
ATOM     19  H   LIG    1       -7.955   3.129  -2.268  0.00  0.00    +0.440 HD
ENDBRANCH   9  16
ENDBRANCH   3   5
BRANCH   1  20
ATOM     20  C   LIG    1        1.248   1.716  -0.001  0.00  0.00    +0.320 C 
BRANCH  20  21
ATOM     21  C   LIG    1        2.424   0.737  -0.017  0.00  0.00    +0.050 C 
ATOM     22  C   LIG    1        2.367  -0.150   1.228  0.00  0.00    +0.100 C 
ATOM     23  C   LIG    1        3.738   1.520  -0.025  0.00  0.00    +0.110 C 
BRANCH  21  28
ATOM     24  C   LIG    1        3.351  -1.974  -2.441  0.00  0.00    -0.020 C 
ATOM     25  C   LIG    1        3.369  -1.139  -3.725  0.00  0.00    +0.040 C 
ATOM     26  C   LIG    1        2.235  -0.110  -3.668  0.00  0.00    +0.050 C 
ATOM     27  C   LIG    1        2.397   0.751  -2.414  0.00  0.00    +0.250 C 
ATOM     28  N   LIG    1        2.346  -0.102  -1.220  0.00  0.00    -0.380 N 
ATOM     29  H   LIG    1        1.479  -0.618  -1.214  0.00  0.00    +0.410 HD
ATOM     30  C   LIG    1        3.473  -1.042  -1.233  0.00  0.00    +0.250 C 
BRANCH  24  32
ATOM     31  C   LIG    1        4.342  -3.958  -3.591  0.00  0.00    +0.030 C 
ATOM     32  C   LIG    1        4.527  -2.953  -2.453  0.00  0.00    +0.030 C 
ENDBRANCH  24  32
ENDBRANCH  21  28
ENDBRANCH  20  21
ENDBRANCH   1  20
TORSDOF 6
