REMARK  Name = ZINCqH0000007fpW.0
REMARK                            x       y       z     vdW  Elec       q    Type
REMARK                         _______ _______ _______ _____ _____    ______ ____
ROOT
ATOM      1  N   LIG    1        1.945   3.876  -0.094  0.00  0.00    -0.740 N 
ATOM      2  H   LIG    1        2.773   3.372  -0.095  0.00  0.00    +0.410 HD
ENDROOT
BRANCH   1   3
ATOM      3  C   LIG    1        0.718   3.205  -0.057  0.00  0.00    +0.210 A 
ATOM      4  C   LIG    1        0.686   1.817  -0.021  0.00  0.00    -0.040 A 
ATOM      5  C   LIG    1       -0.525   1.155   0.015  0.00  0.00    +0.070 A 
ATOM      6  C   LIG    1       -1.711   1.877   0.011  0.00  0.00    +0.080 A 
ATOM      7  C   LIG    1       -1.679   3.265  -0.019  0.00  0.00    +0.040 A 
ATOM      8  C   LIG    1       -0.469   3.927  -0.056  0.00  0.00    -0.060 A 
BRANCH   6   9
ATOM      9  N   LIG    1       -2.941   1.205   0.041  0.00  0.00    -0.670 N 
ATOM     10  H   LIG    1       -3.702   1.564  -0.442  0.00  0.00    +0.410 HD
ATOM     11  C   LIG    1       -3.066   0.061   0.742  0.00  0.00    +0.540 C 
ATOM     12  O   LIG    1       -2.094  -0.433   1.275  0.00  0.00    -0.520 OA
BRANCH  11  13
ATOM     13  C   LIG    1       -4.412  -0.605   0.864  0.00  0.00    -0.070 C 
ATOM     14  C   LIG    1       -5.076  -0.609   2.243  0.00  0.00    +0.060 C 
ATOM     15  C   LIG    1       -4.489  -1.902   1.673  0.00  0.00    +0.070 C 
ENDBRANCH  11  13
ENDBRANCH   6   9
ENDBRANCH   1   3
BRANCH   1  16
ATOM     16  C   LIG    1        1.979   5.340  -0.132  0.00  0.00    +0.310 C 
BRANCH  16  19
ATOM     17  N   LIG    1        3.687   7.128  -0.206  0.00  0.00    -0.660 N 
ATOM     18  H   LIG    1        2.967   7.772  -0.291  0.00  0.00    +0.420 HD
ATOM     19  C   LIG    1        3.410   5.809  -0.168  0.00  0.00    +0.510 C 
ATOM     20  O   LIG    1        4.314   5.000  -0.162  0.00  0.00    -0.510 OA
BRANCH  17  27
ATOM     21  C   LIG    1        5.375   8.805  -0.652  0.00  0.00    +0.110 A 
ATOM     22  C   LIG    1        6.689   9.235  -0.565  0.00  0.00    -0.040 A 
ATOM     23  C   LIG    1        7.639   8.439   0.046  0.00  0.00    +0.050 A 
ATOM     24  C   LIG    1        7.283   7.210   0.573  0.00  0.00    -0.050 A 
ATOM     25  C   LIG    1        5.972   6.776   0.495  0.00  0.00    +0.070 A 
ATOM     26 CL   LIG    1        8.481   6.215   1.339  0.00  0.00    -0.060 Cl
ATOM     27  C   LIG    1        5.015   7.568  -0.121  0.00  0.00    +0.130 A 
BRANCH  21  29
ATOM     28  C   LIG    1        4.881  10.843  -1.773  0.00  0.00    +0.250 C 
ATOM     29  O   LIG    1        4.439   9.588  -1.252  0.00  0.00    -0.320 OA
ENDBRANCH  21  29
ENDBRANCH  17  27
ENDBRANCH  16  19
ENDBRANCH   1  16
TORSDOF 7
