REMARK  Name = ZINCpe00000bzap9.0
REMARK                            x       y       z     vdW  Elec       q    Type
REMARK                         _______ _______ _______ _____ _____    ______ ____
ROOT
ATOM      1  C   LIG    1        2.576   8.290   2.220  0.00  0.00    +0.620 C 
ATOM      2  N   LIG    1        3.063   7.280   1.473  0.00  0.00    -0.610 N 
ATOM      3  C   LIG    1        2.478   5.931   1.366  0.00  0.00    +0.270 C 
ATOM      4  C   LIG    1        2.977   5.390   0.003  0.00  0.00    -0.030 C 
ATOM      5  C   LIG    1        4.417   5.966  -0.054  0.00  0.00    +0.050 C 
ATOM      6  C   LIG    1        4.266   7.341   0.629  0.00  0.00    +0.220 C 
ATOM      7  C   LIG    1        4.103   8.433  -0.431  0.00  0.00    +0.040 C 
ATOM      8  O   LIG    1        3.142   9.366   2.231  0.00  0.00    -0.530 OA
ENDROOT
BRANCH   1  12
ATOM      9  N   LIG    1       -0.358   7.162   3.896  0.00  0.00    -0.280 N 
ATOM     10  C   LIG    1       -0.351   8.421   4.383  0.00  0.00    +0.160 A 
ATOM     11  C   LIG    1        0.724   9.050   3.853  0.00  0.00    -0.020 A 
ATOM     12  C   LIG    1        1.353   8.091   3.024  0.00  0.00    -0.020 A 
ATOM     13  N   LIG    1        0.637   6.987   3.102  0.00  0.00    -0.260 NA
BRANCH   9  15
ATOM     14  C   LIG    1       -1.978   5.605   2.929  0.00  0.00    +0.040 C 
ATOM     15  C   LIG    1       -1.359   6.143   4.221  0.00  0.00    +0.300 C 
ENDBRANCH   9  15
ENDBRANCH   1  12
BRANCH   4  16
ATOM     16  C   LIG    1        2.998   3.860  -0.006  0.00  0.00    +0.270 C 
BRANCH  16  17
ATOM     17  N   LIG    1        1.624   3.353   0.005  0.00  0.00    -0.730 N 
ATOM     18  H   LIG    1        0.878   3.973   0.015  0.00  0.00    +0.400 HD
ATOM     19  C   LIG    1        1.395   2.024  -0.000  0.00  0.00    +0.510 C 
ATOM     20  O   LIG    1        2.328   1.249  -0.013  0.00  0.00    -0.530 OA
BRANCH  19  21
ATOM     21  C   LIG    1       -0.018   1.503   0.010  0.00  0.00    +0.140 C 
BRANCH  21  22
ATOM     22  C   LIG    1        0.002  -0.004   0.002  0.00  0.00    -0.230 A 
ATOM     23  C   LIG    1        0.023  -0.806   1.092  0.00  0.00    +0.240 A 
ATOM     24  N   LIG    1        0.037  -2.085   0.661  0.00  0.00    -0.480 N 
ATOM     25  H   LIG    1        0.053  -2.876   1.222  0.00  0.00    +0.440 HD
ATOM     26  N   LIG    1        0.023  -2.068  -0.740  0.00  0.00    -0.290 NA
ATOM     27  C   LIG    1       -0.004  -0.821  -1.133  0.00  0.00    +0.250 A 
ENDBRANCH  21  22
ENDBRANCH  19  21
ENDBRANCH  16  17
ENDBRANCH   4  16
TORSDOF 6
