REMARK  Name = ZINCqH0000002rPJ.0
REMARK                            x       y       z     vdW  Elec       q    Type
REMARK                         _______ _______ _______ _____ _____    ______ ____
ROOT
ATOM      1  N   LIG    1       -0.418   1.122   2.482  0.00  0.00    -0.670 N 
ATOM      2  H   LIG    1        0.551   1.141   2.524  0.00  0.00    +0.420 HD
ATOM      3  C   LIG    1       -1.038   0.881   1.310  0.00  0.00    +0.540 C 
ATOM      4  O   LIG    1       -2.248   0.941   1.240  0.00  0.00    -0.510 OA
ENDROOT
BRANCH   1   8
ATOM      5  C   LIG    1       -2.663   1.787   5.928  0.00  0.00    -0.150 A 
ATOM      6  C   LIG    1       -1.450   1.096   6.004  0.00  0.00    +0.110 A 
ATOM      7  C   LIG    1       -0.711   0.878   4.864  0.00  0.00    -0.010 A 
ATOM      8  C   LIG    1       -1.170   1.345   3.636  0.00  0.00    +0.190 A 
ATOM      9  C   LIG    1       -2.374   2.038   3.557  0.00  0.00    +0.010 A 
ATOM     10  C   LIG    1       -3.121   2.254   4.692  0.00  0.00    +0.100 A 
BRANCH   5  11
ATOM     11  C   LIG    1       -3.457   2.023   7.148  0.00  0.00    +0.510 C 
ATOM     12  O   LIG    1       -3.058   1.616   8.221  0.00  0.00    -0.510 OA
BRANCH  11  13
ATOM     13  O   LIG    1       -4.626   2.689   7.072  0.00  0.00    -0.350 OA
BRANCH  13  14
ATOM     14  C   LIG    1       -5.355   2.885   8.313  0.00  0.00    +0.210 C 
BRANCH  14  15
ATOM     15  C   LIG    1       -6.646   3.655   8.030  0.00  0.00    +0.030 C 
BRANCH  15  17
ATOM     16  C   LIG    1       -8.705   4.631   9.054  0.00  0.00    +0.030 C 
ATOM     17  C   LIG    1       -7.414   3.861   9.337  0.00  0.00    +0.020 C 
ENDBRANCH  15  17
ENDBRANCH  14  15
ENDBRANCH  13  14
ENDBRANCH  11  13
ENDBRANCH   5  11
ENDBRANCH   1   8
BRANCH   3  18
ATOM     18  C   LIG    1       -0.229   0.536   0.087  0.00  0.00    +0.130 C 
BRANCH  18  19
ATOM     19  C   LIG    1       -1.154   0.315  -1.082  0.00  0.00    -0.010 A 
ATOM     20  C   LIG    1       -1.330   1.312  -2.022  0.00  0.00    +0.040 A 
ATOM     21  C   LIG    1       -2.179   1.109  -3.095  0.00  0.00    +0.090 A 
ATOM     22  C   LIG    1       -2.852  -0.091  -3.226  0.00  0.00    +0.040 A 
ATOM     23  C   LIG    1       -2.675  -1.089  -2.285  0.00  0.00    +0.110 A 
ATOM     24  C   LIG    1       -1.823  -0.888  -1.216  0.00  0.00    -0.030 A 
BRANCH  24  25
ATOM     25  N   LIG    1       -1.629  -1.958  -0.212  0.00  0.00    +0.030 N 
ATOM     26  O   LIG    1       -0.964  -1.744   0.785  0.00  0.00    -0.170 OA
ATOM     27  O   LIG    1       -2.136  -3.052  -0.384  0.00  0.00    -0.150 OA
ENDBRANCH  24  25
ENDBRANCH  18  19
ENDBRANCH   3  18
TORSDOF 9
