REMARK  Name = ZINCvU00000003Re.0
REMARK                            x       y       z     vdW  Elec       q    Type
REMARK                         _______ _______ _______ _____ _____    ______ ____
ROOT
ATOM      1  C   LIG    1        2.046   0.568   0.049  0.00  0.00    +0.160 A 
ATOM      2  N   LIG    1        1.218  -0.344  -0.408  0.00  0.00    -0.280 NA
ATOM      3  N   LIG    1        0.006   0.074  -0.318  0.00  0.00    -0.260 NA
ATOM      4  C   LIG    1       -0.014   1.278   0.203  0.00  0.00    +0.230 A 
ATOM      5  N   LIG    1        1.292   1.632   0.454  0.00  0.00    -0.450 N 
ENDROOT
BRANCH   4   6
ATOM      6  C   LIG    1       -1.213   2.103   0.465  0.00  0.00    -0.070 A 
ATOM      7  C   LIG    1       -1.161   3.495   0.337  0.00  0.00    +0.070 A 
ATOM      8  C   LIG    1       -2.312   4.221   0.593  0.00  0.00    -0.020 A 
ATOM      9  C   LIG    1       -3.465   3.553   0.965  0.00  0.00    +0.280 A 
ATOM     10  N   LIG    1       -3.484   2.239   1.077  0.00  0.00    -0.480 NA
ATOM     11  C   LIG    1       -2.418   1.504   0.839  0.00  0.00    +0.320 A 
ENDBRANCH   4   6
BRANCH   1  12
ATOM     12  S   LIG    1        3.802   0.442   0.126  0.00  0.00    +0.070 S 
BRANCH  12  14
ATOM     13  C   LIG    1        3.579  -1.213  -2.036  0.00  0.00    +0.110 C 
ATOM     14  C   LIG    1        4.029  -1.212  -0.574  0.00  0.00    +0.160 C 
BRANCH  14  15
ATOM     15  C   LIG    1        5.485  -1.595  -0.496  0.00  0.00    +0.170 A 
ATOM     16  N   LIG    1        6.497  -0.838  -0.814  0.00  0.00    -0.250 NA
ATOM     17  N   LIG    1        7.594  -1.482  -0.622  0.00  0.00    -0.260 NA
ATOM     18  C   LIG    1        7.316  -2.689  -0.178  0.00  0.00    +0.250 A 
ATOM     19  O   LIG    1        5.973  -2.781  -0.090  0.00  0.00    -0.210 OA
BRANCH  18  20
ATOM     20  C   LIG    1        8.287  -3.740   0.158  0.00  0.00    -0.160 A 
ATOM     21  C   LIG    1        9.640  -3.623   0.061  0.00  0.00    +0.110 A 
ATOM     22  C   LIG    1       10.338  -4.750   0.436  0.00  0.00    +0.020 A 
ATOM     23  C   LIG    1        9.585  -5.779   0.836  0.00  0.00    -0.010 A 
ATOM     24  S   LIG    1        7.883  -5.344   0.756  0.00  0.00    +0.180 S 
ENDBRANCH  18  20
ENDBRANCH  14  15
ENDBRANCH  12  14
ENDBRANCH   1  12
BRANCH   5  25
ATOM     25  C   LIG    1        1.773   2.888   1.034  0.00  0.00    +0.360 C 
BRANCH  25  26
ATOM     26  C   LIG    1        1.724   2.798   2.538  0.00  0.00    -0.130 A 
ATOM     27  C   LIG    1        0.588   3.195   3.217  0.00  0.00    +0.030 A 
ATOM     28  C   LIG    1        0.541   3.108   4.596  0.00  0.00    +0.010 A 
ATOM     29  C   LIG    1        1.635   2.634   5.296  0.00  0.00    +0.030 A 
ATOM     30  C   LIG    1        2.774   2.243   4.617  0.00  0.00    +0.010 A 
ATOM     31  C   LIG    1        2.818   2.325   3.238  0.00  0.00    +0.040 A 
ENDBRANCH  25  26
ENDBRANCH   5  25
TORSDOF 7
