REMARK  Name = ZINCpk00000xWDYr.0
REMARK                            x       y       z     vdW  Elec       q    Type
REMARK                         _______ _______ _______ _____ _____    ______ ____
ROOT
ATOM      1  N   LIG    1       -2.773   0.889   1.616  0.00  0.00    -0.550 N 
ATOM      2  C   LIG    1       -2.498   0.953   0.176  0.00  0.00    +0.310 C 
ATOM      3  C   LIG    1       -1.320   1.941   0.026  0.00  0.00    +0.020 C 
ATOM      4  C   LIG    1       -1.478   2.815   1.292  0.00  0.00    +0.090 C 
ATOM      5  C   LIG    1       -2.217   1.925   2.267  0.00  0.00    +0.510 C 
ATOM      6  O   LIG    1       -2.296   2.119   3.461  0.00  0.00    -0.510 OA
ENDROOT
BRANCH   1  10
ATOM      7  C   LIG    1       -4.994  -2.124   3.455  0.00  0.00    +0.110 A 
ATOM      8  C   LIG    1       -4.890  -2.085   2.072  0.00  0.00    +0.020 A 
ATOM      9  C   LIG    1       -4.154  -1.088   1.463  0.00  0.00    +0.020 A 
ATOM     10  C   LIG    1       -3.519  -0.123   2.234  0.00  0.00    +0.130 A 
ATOM     11  C   LIG    1       -3.619  -0.166   3.619  0.00  0.00    +0.050 A 
ATOM     12  C   LIG    1       -4.360  -1.161   4.226  0.00  0.00    -0.050 A 
BRANCH   7  14
ATOM     13  C   LIG    1       -5.783  -3.085   5.482  0.00  0.00    +0.250 C 
ATOM     14  O   LIG    1       -5.718  -3.106   4.055  0.00  0.00    -0.320 OA
ENDBRANCH   7  14
ENDBRANCH   1  10
BRANCH   3  15
ATOM     15  C   LIG    1       -0.001   1.214   0.034  0.00  0.00    +0.520 C 
ATOM     16  N   LIG    1        1.153   1.910   0.033  0.00  0.00    -0.720 N 
ATOM     17  H   LIG    1        1.134   2.880   0.031  0.00  0.00    +0.400 HD
ATOM     18  O   LIG    1        0.023   0.001   0.036  0.00  0.00    -0.520 OA
BRANCH  16  19
ATOM     19  C   LIG    1        2.436   1.203   0.035  0.00  0.00    +0.360 C 
BRANCH  19  20
ATOM     20  C   LIG    1        3.562   2.205   0.033  0.00  0.00    +0.160 A 
ATOM     21  C   LIG    1        4.155   2.596   1.223  0.00  0.00    -0.070 A 
ATOM     22  C   LIG    1        5.188   3.520   1.172  0.00  0.00    +0.330 A 
ATOM     23  N   LIG    1        5.570   3.994  -0.003  0.00  0.00    -0.510 NA
ATOM     24  C   LIG    1        4.982   3.599  -1.114  0.00  0.00    +0.320 A 
ATOM     25  C   LIG    1        5.447   4.164  -2.431  0.00  0.00    +0.180 C 
ATOM     26  N   LIG    1        4.001   2.718  -1.105  0.00  0.00    -0.500 NA
ENDBRANCH  19  20
ENDBRANCH  16  19
ENDBRANCH   3  15
TORSDOF 5
