REMARK  Name = ZINCvU0000000B2S.0
REMARK                            x       y       z     vdW  Elec       q    Type
REMARK                         _______ _______ _______ _____ _____    ______ ____
ROOT
ATOM      1  C   LIG    1        5.087   3.683  -0.033  0.00  0.00    +0.170 C 
ATOM      2  N   LIG    1        3.985   3.017  -0.016  0.00  0.00    -0.270 NA
ATOM      3  N   LIG    1        2.840   3.810   0.003  0.00  0.00    -0.430 N 
ATOM      4  C   LIG    1        3.242   5.226  -0.007  0.00  0.00    +0.290 C 
ATOM      5  C   LIG    1        4.782   5.164  -0.027  0.00  0.00    +0.090 C 
ENDROOT
BRANCH   1  10
ATOM      6  C   LIG    1       10.357   1.381  -0.119  0.00  0.00    +0.100 C 
ATOM      7  C   LIG    1        8.976   1.984  -0.097  0.00  0.00    -0.060 A 
ATOM      8  C   LIG    1        7.865   1.160  -0.080  0.00  0.00    +0.000 A 
ATOM      9  C   LIG    1        6.598   1.705  -0.059  0.00  0.00    +0.060 A 
ATOM     10  C   LIG    1        6.438   3.093  -0.055  0.00  0.00    -0.050 A 
ATOM     11  C   LIG    1        7.565   3.919  -0.078  0.00  0.00    +0.050 A 
ATOM     12  C   LIG    1        8.826   3.360  -0.093  0.00  0.00    +0.010 A 
ENDBRANCH   1  10
BRANCH   4  13
ATOM     13  C   LIG    1        2.721   5.916  -1.242  0.00  0.00    -0.140 A 
ATOM     14  C   LIG    1        2.718   5.251  -2.454  0.00  0.00    +0.050 A 
ATOM     15  C   LIG    1        2.236   5.879  -3.586  0.00  0.00    -0.080 A 
ATOM     16  C   LIG    1        1.764   7.183  -3.508  0.00  0.00    +0.220 A 
ATOM     17  C   LIG    1        1.773   7.850  -2.289  0.00  0.00    -0.070 A 
ATOM     18  C   LIG    1        2.252   7.214  -1.160  0.00  0.00    +0.090 A 
BRANCH  16  19
ATOM     19  N   LIG    1        1.282   7.823  -4.652  0.00  0.00    -0.640 N 
ATOM     20  C   LIG    1        1.387   7.167  -5.958  0.00  0.00    +0.280 C 
ATOM     21  C   LIG    1        0.670   9.149  -4.546  0.00  0.00    +0.280 C 
ENDBRANCH  16  19
ENDBRANCH   4  13
BRANCH   3  22
ATOM     22  C   LIG    1        1.571   3.356   0.023  0.00  0.00    +0.590 C 
ATOM     23  S   LIG    1        0.266   4.463   0.044  0.00  0.00    -0.600 S 
BRANCH  22  24
ATOM     24  N   LIG    1        1.331   2.030   0.025  0.00  0.00    -0.670 N 
ATOM     25  H   LIG    1        2.070   1.403   0.013  0.00  0.00    +0.410 HD
BRANCH  24  26
ATOM     26  C   LIG    1       -0.048   1.536   0.046  0.00  0.00    +0.370 C 
BRANCH  26  27
ATOM     27  C   LIG    1       -0.042   0.029   0.044  0.00  0.00    -0.120 A 
ATOM     28  C   LIG    1       -0.064  -0.661  -1.153  0.00  0.00    +0.020 A 
ATOM     29  C   LIG    1       -0.053  -2.044  -1.155  0.00  0.00    +0.010 A 
ATOM     30  C   LIG    1       -0.031  -2.736   0.041  0.00  0.00    +0.020 A 
ATOM     31  C   LIG    1       -0.015  -2.046   1.239  0.00  0.00    +0.010 A 
ATOM     32  C   LIG    1       -0.020  -0.664   1.240  0.00  0.00    +0.020 A 
ENDBRANCH  26  27
ENDBRANCH  24  26
ENDBRANCH  22  24
ENDBRANCH   3  22
TORSDOF 7
