REMARK  Name = ZINCpe00000FUagv.0
REMARK                            x       y       z     vdW  Elec       q    Type
REMARK                         _______ _______ _______ _____ _____    ______ ____
ROOT
ATOM      1  N   LIG    1       -1.074   6.821  -6.019  0.00  0.00    -1.010 NA
ATOM      2  C   LIG    1       -1.850   5.902  -6.866  0.00  0.00    +0.310 C 
ATOM      3  C   LIG    1       -1.316   4.487  -6.647  0.00  0.00    +0.120 C 
ATOM      4  C   LIG    1       -1.172   4.193  -5.177  0.00  0.00    +0.060 A 
ATOM      5  N   LIG    1       -1.114   2.924  -4.798  0.00  0.00    -0.210 NA
ATOM      6  N   LIG    1       -0.974   2.573  -3.574  0.00  0.00    -0.270 NA
ATOM      7  C   LIG    1       -0.889   3.460  -2.592  0.00  0.00    +0.250 A 
ATOM      8  C   LIG    1       -0.946   4.820  -2.893  0.00  0.00    +0.030 A 
ATOM      9  C   LIG    1       -1.095   5.188  -4.223  0.00  0.00    -0.060 A 
ATOM     10  C   LIG    1       -1.180   6.651  -4.565  0.00  0.00    +0.370 C 
ENDROOT
BRANCH   7  11
ATOM     11  N   LIG    1       -0.739   3.038  -1.276  0.00  0.00    -0.460 N 
ATOM     12  C   LIG    1       -0.703   1.562  -1.194  0.00  0.00    +0.210 C 
ATOM     13  C   LIG    1       -0.013   1.086   0.008  0.00  0.00    +0.020 C 
ATOM     14  C   LIG    1       -0.716   1.574   1.293  0.00  0.00    +0.210 C 
ATOM     15  O   LIG    1       -0.390   2.922   1.505  0.00  0.00    -0.380 OA
ATOM     16  C   LIG    1       -1.296   3.909   0.971  0.00  0.00    +0.220 C 
ATOM     17  C   LIG    1       -1.794   3.560  -0.442  0.00  0.00    +0.170 C 
ENDBRANCH   7  11
BRANCH   1  18
ATOM     18  S   LIG    1       -0.118   8.002  -6.680  0.00  0.00    +2.610 S 
ATOM     19  O   LIG    1        0.221   7.499  -7.965  0.00  0.00    -0.940 OA
ATOM     20  O   LIG    1        0.881   8.235  -5.697  0.00  0.00    -0.950 OA
BRANCH  18  21
ATOM     21  C   LIG    1       -1.214   9.440  -6.828  0.00  0.00    -0.350 C 
BRANCH  21  22
ATOM     22  C   LIG    1       -0.438  10.612  -7.434  0.00  0.00    +0.060 C 
BRANCH  22  23
ATOM     23  C   LIG    1       -1.361  11.825  -7.559  0.00  0.00    +0.180 C 
BRANCH  23  25
ATOM     24  C   LIG    1       -0.020  13.851  -8.606  0.00  0.00    +0.030 C 
ATOM     25  C   LIG    1       -0.615  12.952  -8.141  0.00  0.00    -0.200 C 
ENDBRANCH  23  25
ENDBRANCH  22  23
ENDBRANCH  21  22
ENDBRANCH  18  21
ENDBRANCH   1  18
TORSDOF 6
