REMARK  Name = ZINCpk00000xVYuP.0
REMARK                            x       y       z     vdW  Elec       q    Type
REMARK                         _______ _______ _______ _____ _____    ______ ____
ROOT
ATOM      1  C   LIG    1       -0.052  -3.034  -2.007  0.00  0.00    +0.150 C 
ATOM      2  C   LIG    1       -1.359  -3.828  -1.942  0.00  0.00    +0.160 C 
ATOM      3  N   LIG    1       -1.847  -4.072  -3.307  0.00  0.00    -0.520 NA
ATOM      4  C   LIG    1       -0.848  -4.809  -4.095  0.00  0.00    +0.150 C 
ATOM      5  C   LIG    1        0.454  -4.003  -4.138  0.00  0.00    +0.230 C 
ATOM      6  O   LIG    1        0.897  -3.750  -2.803  0.00  0.00    -0.370 OA
ENDROOT
BRANCH   1   7
ATOM      7  C   LIG    1        0.504  -2.847  -0.594  0.00  0.00    +0.310 C 
BRANCH   7   9
ATOM      8  C   LIG    1        3.017  -2.582  -0.824  0.00  0.00    +0.310 C 
ATOM      9  N   LIG    1        1.690  -1.988  -0.645  0.00  0.00    -0.590 N 
BRANCH   9  10
ATOM     10  C   LIG    1        1.555  -0.610  -0.524  0.00  0.00    +0.340 A 
ATOM     11  C   LIG    1        0.309  -0.048  -0.250  0.00  0.00    -0.050 A 
ATOM     12  C   LIG    1        0.228   1.331  -0.139  0.00  0.00    +0.070 A 
ATOM     13  C   LIG    1        1.392   2.068  -0.308  0.00  0.00    +0.150 A 
ATOM     14  N   LIG    1        2.530   1.454  -0.565  0.00  0.00    -0.200 NA
ATOM     15  N   LIG    1        2.612   0.177  -0.669  0.00  0.00    -0.310 NA
ENDBRANCH   9  10
ENDBRANCH   7   9
ENDBRANCH   1   7
BRANCH   3  16
ATOM     16  C   LIG    1       -3.131  -4.785  -3.287  0.00  0.00    +0.160 C 
BRANCH  16  17
ATOM     17  C   LIG    1       -4.235  -3.836  -2.816  0.00  0.00    +0.270 C 
BRANCH  17  18
ATOM     18  C   LIG    1       -5.543  -4.581  -2.748  0.00  0.00    -0.130 A 
ATOM     19  C   LIG    1       -6.275  -4.797  -3.901  0.00  0.00    +0.050 A 
ATOM     20  C   LIG    1       -7.473  -5.484  -3.841  0.00  0.00    -0.010 A 
ATOM     21  C   LIG    1       -7.944  -5.948  -2.624  0.00  0.00    +0.100 A 
ATOM     22  C   LIG    1       -7.212  -5.726  -1.470  0.00  0.00    -0.010 A 
ATOM     23  F   LIG    1       -9.117  -6.615  -2.563  0.00  0.00    -0.140 F 
ATOM     24  C   LIG    1       -6.013  -5.043  -1.533  0.00  0.00    +0.050 A 
ENDBRANCH  17  18
BRANCH  17  25
ATOM     25  O   LIG    1       -4.352  -2.749  -3.736  0.00  0.00    -0.540 OA
ATOM     26  H   LIG    1       -4.574  -3.019  -4.638  0.00  0.00    +0.370 HD
ENDBRANCH  17  25
ENDBRANCH  16  17
ENDBRANCH   3  16
TORSDOF 7
