REMARK  Name = ZINCvU0000000CVJ.0
REMARK                            x       y       z     vdW  Elec       q    Type
REMARK                         _______ _______ _______ _____ _____    ______ ____
ROOT
ATOM      1  C   LIG    1        3.153   0.006  -0.025  0.00  0.00    +0.120 C 
ENDROOT
BRANCH   1   2
ATOM      2  C   LIG    1        2.616   1.414  -0.003  0.00  0.00    -0.160 A 
ATOM      3  C   LIG    1        3.340   2.545   0.005  0.00  0.00    +0.230 A 
ATOM      4  N   LIG    1        2.508   3.631   0.025  0.00  0.00    -0.590 N 
ATOM      5  H   LIG    1        2.800   4.556   0.034  0.00  0.00    +0.420 HD
ATOM      6  C   LIG    1        1.195   3.215   0.031  0.00  0.00    +0.100 A 
ATOM      7  C   LIG    1       -0.022   3.888   0.049  0.00  0.00    -0.010 A 
ATOM      8  C   LIG    1       -1.199   3.172   0.050  0.00  0.00    +0.020 A 
ATOM      9  C   LIG    1       -1.184   1.784   0.028  0.00  0.00    -0.020 A 
ATOM     10  C   LIG    1        0.001   1.103   0.015  0.00  0.00    +0.040 A 
ATOM     11  C   LIG    1        1.206   1.808   0.014  0.00  0.00    -0.100 A 
ENDBRANCH   1   2
BRANCH   1  12
ATOM     12  C   LIG    1        3.986  -0.195  -1.264  0.00  0.00    -0.130 A 
ATOM     13  C   LIG    1        5.098   0.597  -1.484  0.00  0.00    +0.060 A 
ATOM     14  C   LIG    1        5.867   0.411  -2.617  0.00  0.00    -0.070 A 
ATOM     15  C   LIG    1        5.514  -0.564  -3.541  0.00  0.00    +0.220 A 
ATOM     16  C   LIG    1        4.393  -1.353  -3.320  0.00  0.00    -0.080 A 
ATOM     17  C   LIG    1        3.632  -1.166  -2.183  0.00  0.00    +0.060 A 
BRANCH  15  18
ATOM     18  N   LIG    1        6.286  -0.750  -4.691  0.00  0.00    -0.640 N 
ATOM     19  C   LIG    1        7.393   0.163  -4.986  0.00  0.00    +0.280 C 
ATOM     20  C   LIG    1        5.988  -1.858  -5.601  0.00  0.00    +0.280 C 
ENDBRANCH  15  18
ENDBRANCH   1  12
BRANCH   1  21
ATOM     21  C   LIG    1        4.019  -0.228   1.215  0.00  0.00    +0.280 C 
BRANCH  21  23
ATOM     22  C   LIG    1        3.736  -0.327   3.633  0.00  0.00    +0.590 C 
ATOM     23  N   LIG    1        3.184  -0.150   2.416  0.00  0.00    -0.720 N 
ATOM     24  H   LIG    1        2.234   0.028   2.335  0.00  0.00    +0.400 HD
ATOM     25  O   LIG    1        4.927  -0.550   3.734  0.00  0.00    -0.520 OA
BRANCH  22  29
ATOM     26  C   LIG    1        1.123  -0.035   6.607  0.00  0.00    -0.270 A 
ATOM     27  C   LIG    1        2.381  -0.294   7.084  0.00  0.00    +0.090 A 
ATOM     28  C   LIG    1        3.344  -0.415   6.122  0.00  0.00    +0.090 A 
ATOM     29  C   LIG    1        2.897  -0.248   4.841  0.00  0.00    -0.230 A 
ATOM     30  S   LIG    1        1.167   0.066   4.852  0.00  0.00    +0.210 S 
BRANCH  26  32
ATOM     31  C   LIG    1       -1.403   0.414   6.781  0.00  0.00    +0.090 C 
ATOM     32  C   LIG    1       -0.074   0.132   7.431  0.00  0.00    +0.420 C 
ATOM     33  O   LIG    1        0.004   0.043   8.639  0.00  0.00    -0.440 OA
ENDBRANCH  26  32
ENDBRANCH  22  29
ENDBRANCH  21  23
ENDBRANCH   1  21
TORSDOF 7
