REMARK  Name = ZINCqH000000643m.0
REMARK                            x       y       z     vdW  Elec       q    Type
REMARK                         _______ _______ _______ _____ _____    ______ ____
ROOT
ATOM      1  C   LIG    1       -4.771  -4.189  -1.103  0.00  0.00    -0.290 A 
ATOM      2  C   LIG    1       -4.213  -3.700   0.024  0.00  0.00    +0.080 A 
ATOM      3  C   LIG    1       -4.760  -4.220   1.190  0.00  0.00    -0.260 A 
ATOM      4  C   LIG    1       -5.777  -5.130   0.971  0.00  0.00    +0.160 A 
ATOM      5  S   LIG    1       -6.035  -5.340  -0.703  0.00  0.00    +0.280 S 
ENDROOT
BRANCH   4   6
ATOM      6  N   LIG    1       -6.477  -5.778   1.960  0.00  0.00    -0.810 N 
ATOM      7  H   LIG    1       -6.271  -5.605   2.893  0.00  0.00    +0.410 HD
ATOM      8  H   LIG    1       -7.176  -6.407   1.727  0.00  0.00    +0.420 HD
ENDBRANCH   4   6
BRANCH   1   9
ATOM      9  C   LIG    1       -4.379  -3.815  -2.461  0.00  0.00    +0.540 C 
ATOM     10  O   LIG    1       -3.487  -3.006  -2.635  0.00  0.00    -0.490 OA
BRANCH   9  12
ATOM     11  C   LIG    1       -4.571  -3.956  -4.818  0.00  0.00    +0.260 C 
ATOM     12  O   LIG    1       -5.005  -4.367  -3.520  0.00  0.00    -0.350 OA
ENDBRANCH   9  12
ENDBRANCH   1   9
BRANCH   3  13
ATOM     13  C   LIG    1       -4.304  -3.836   2.529  0.00  0.00    +0.540 C 
ATOM     14  O   LIG    1       -4.821  -2.896   3.101  0.00  0.00    -0.480 OA
BRANCH  13  15
ATOM     15  O   LIG    1       -3.310  -4.525   3.127  0.00  0.00    -0.350 OA
ATOM     16  C   LIG    1       -2.910  -4.089   4.452  0.00  0.00    +0.260 C 
ENDBRANCH  13  15
ENDBRANCH   3  13
BRANCH   2  17
ATOM     17  C   LIG    1       -3.096  -2.688   0.018  0.00  0.00    +0.180 C 
BRANCH  17  18
ATOM     18  S   LIG    1       -3.794  -1.019   0.035  0.00  0.00    -0.020 S 
BRANCH  18  19
ATOM     19  C   LIG    1       -2.311  -0.067   0.025  0.00  0.00    +0.150 A 
ATOM     20  N   LIG    1       -1.149  -0.687   0.010  0.00  0.00    -0.480 NA
ATOM     21  C   LIG    1        0.002  -0.004   0.002  0.00  0.00    +0.150 A 
ATOM     22  C   LIG    1        1.239  -0.671  -0.014  0.00  0.00    +0.030 A 
ATOM     23  C   LIG    1        2.395   0.049  -0.021  0.00  0.00    +0.030 A 
ATOM     24  C   LIG    1        2.373   1.441  -0.014  0.00  0.00    +0.010 A 
ATOM     25  C   LIG    1        1.193   2.122   0.002  0.00  0.00    +0.040 A 
ATOM     26  C   LIG    1       -0.017   1.412   0.010  0.00  0.00    -0.110 A 
ATOM     27  C   LIG    1       -1.258   2.082   0.031  0.00  0.00    +0.110 A 
ATOM     28  C   LIG    1       -2.396   1.334   0.034  0.00  0.00    -0.010 A 
ENDBRANCH  18  19
ENDBRANCH  17  18
ENDBRANCH   2  17
TORSDOF 8
