REMARK  Name = ZINCpk00000ebLU0.0
REMARK                            x       y       z     vdW  Elec       q    Type
REMARK                         _______ _______ _______ _____ _____    ______ ____
ROOT
ATOM      1  N   LIG    1        1.477   9.507  -2.573  0.00  0.00    -0.730 N 
ATOM      2  H   LIG    1        1.573   9.980  -1.732  0.00  0.00    +0.400 HD
ATOM      3  C   LIG    1        1.231   8.182  -2.578  0.00  0.00    +0.710 C 
ATOM      4  N   LIG    1        1.118   7.514  -1.413  0.00  0.00    -0.750 N 
ATOM      5  H   LIG    1        1.214   7.986  -0.571  0.00  0.00    +0.400 HD
ATOM      6  O   LIG    1        1.110   7.590  -3.633  0.00  0.00    -0.580 OA
ENDROOT
BRANCH   1  10
ATOM      7  O   LIG    1        4.144  11.158  -6.175  0.00  0.00    -0.520 OA
ATOM      8  C   LIG    1        3.350  11.094  -5.261  0.00  0.00    +0.520 C 
ATOM      9  C   LIG    1        2.886   9.812  -4.601  0.00  0.00    +0.060 C 
ATOM     10  C   LIG    1        1.599  10.234  -3.840  0.00  0.00    +0.200 C 
ATOM     11  C   LIG    1        0.400   9.968  -4.731  0.00  0.00    +0.040 C 
ATOM     12  C   LIG    1       -0.792  10.821  -4.391  0.00  0.00    +0.010 C 
ATOM     13  C   LIG    1       -0.403  12.299  -4.492  0.00  0.00    +0.020 C 
ATOM     14  C   LIG    1        0.664  12.592  -3.443  0.00  0.00    +0.030 C 
ATOM     15  C   LIG    1        1.876  11.711  -3.592  0.00  0.00    +0.210 C 
ATOM     16  N   LIG    1        2.750  12.153  -4.682  0.00  0.00    -0.720 N 
ATOM     17  H   LIG    1        2.879  13.077  -4.948  0.00  0.00    +0.410 HD
ENDBRANCH   1  10
BRANCH   4  18
ATOM     18  C   LIG    1        0.851   6.073  -1.418  0.00  0.00    +0.280 C 
BRANCH  18  19
ATOM     19  C   LIG    1        0.771   5.565   0.023  0.00  0.00    +0.080 C 
BRANCH  19  20
ATOM     20  C   LIG    1        0.496   4.083   0.018  0.00  0.00    -0.070 A 
ATOM     21  C   LIG    1       -0.808   3.624   0.028  0.00  0.00    +0.040 A 
ATOM     22  C   LIG    1       -1.065   2.265   0.019  0.00  0.00    +0.040 A 
ATOM     23  C   LIG    1       -0.016   1.361   0.009  0.00  0.00    +0.030 A 
ATOM     24  O   LIG    1        0.002  -0.004   0.002  0.00  0.00    -0.310 OA
ATOM     25  C   LIG    1        1.336  -0.373   0.399  0.00  0.00    +0.430 C 
ATOM     26  O   LIG    1        2.139   0.749  -0.014  0.00  0.00    -0.310 OA
ATOM     27  C   LIG    1        1.297   1.824  -0.001  0.00  0.00    +0.030 A 
ATOM     28  C   LIG    1        1.548   3.186   0.004  0.00  0.00    +0.050 A 
ENDBRANCH  19  20
ENDBRANCH  18  19
ENDBRANCH   4  18
TORSDOF 4
