REMARK  Name = ZINCpk000000oTgI.0
REMARK                            x       y       z     vdW  Elec       q    Type
REMARK                         _______ _______ _______ _____ _____    ______ ____
ROOT
ATOM      1  C   LIG    1       -0.898   3.118  -1.144  0.00  0.00    +0.030 C 
ATOM      2  C   LIG    1       -0.759   1.596  -1.228  0.00  0.00    +0.050 C 
ATOM      3  C   LIG    1       -0.013   1.086   0.008  0.00  0.00    +0.290 C 
ATOM      4  N   LIG    1       -0.706   1.562   1.213  0.00  0.00    -0.610 N 
ATOM      5  C   LIG    1       -0.975   3.001   1.350  0.00  0.00    +0.270 C 
ATOM      6  C   LIG    1       -1.091   0.697   2.171  0.00  0.00    +0.520 C 
ATOM      7  O   LIG    1       -0.866  -0.488   2.044  0.00  0.00    -0.520 OA
ATOM      8  C   LIG    1       -1.711   3.490   0.099  0.00  0.00    +0.050 C 
ENDROOT
BRANCH   1   9
ATOM      9  C   LIG    1       -1.602   3.627  -2.375  0.00  0.00    +0.460 C 
ATOM     10  O   LIG    1       -1.957   2.853  -3.232  0.00  0.00    -0.500 OA
BRANCH   9  11
ATOM     11  O   LIG    1       -1.836   4.941  -2.520  0.00  0.00    -0.360 OA
BRANCH  11  13
ATOM     12  C   LIG    1       -2.694   6.880  -3.717  0.00  0.00    +0.070 C 
ATOM     13  C   LIG    1       -2.519   5.360  -3.731  0.00  0.00    +0.200 C 
ENDBRANCH  11  13
ENDBRANCH   9  11
ENDBRANCH   1   9
BRANCH   6  14
ATOM     14  C   LIG    1       -1.801   1.201   3.401  0.00  0.00    +0.310 C 
BRANCH  14  15
ATOM     15  N   LIG    1       -2.111   0.073   4.283  0.00  0.00    -1.110 NA
ATOM     16  H   LIG    1       -2.060  -0.835   3.945  0.00  0.00    +0.430 HD
BRANCH  15  17
ATOM     17  S   LIG    1       -2.548   0.348   5.856  0.00  0.00    +2.700 S 
ATOM     18  O   LIG    1       -1.590   1.254   6.386  0.00  0.00    -0.950 OA
ATOM     19  O   LIG    1       -2.813  -0.926   6.428  0.00  0.00    -0.940 OA
BRANCH  17  20
ATOM     20  C   LIG    1       -4.085   1.209   5.828  0.00  0.00    -0.680 A 
ATOM     21  C   LIG    1       -4.102   2.591   5.802  0.00  0.00    +0.140 A 
ATOM     22  C   LIG    1       -5.307   3.268   5.775  0.00  0.00    +0.020 A 
ATOM     23  C   LIG    1       -6.497   2.561   5.784  0.00  0.00    +0.020 A 
ATOM     24  C   LIG    1       -6.479   1.178   5.815  0.00  0.00    +0.020 A 
ATOM     25 CL   LIG    1       -8.011   3.410   5.758  0.00  0.00    -0.050 Cl
ATOM     26  C   LIG    1       -5.273   0.503   5.836  0.00  0.00    +0.150 A 
ENDBRANCH  17  20
ENDBRANCH  15  17
ENDBRANCH  14  15
ENDBRANCH   6  14
TORSDOF 7
