REMARK  Name = ZINCrD000006EQCL.1
REMARK                            x       y       z     vdW  Elec       q    Type
REMARK                         _______ _______ _______ _____ _____    ______ ____
ROOT
ATOM      1  O   LIG    1       -0.052   3.456  -3.125  0.00  0.00    -0.530 OA
ATOM      2  C   LIG    1       -0.537   3.908  -2.110  0.00  0.00    +0.520 C 
ATOM      3  N   LIG    1       -0.903   3.080  -1.111  0.00  0.00    -0.620 N 
ATOM      4  C   LIG    1       -0.722   1.626  -1.232  0.00  0.00    +0.300 C 
ATOM      5  C   LIG    1        0.017   1.121   0.012  0.00  0.00    +0.190 C 
ATOM      6  N   LIG    1       -0.701   1.560   1.216  0.00  0.00    -0.480 N 
ATOM      7  C   LIG    1       -0.723   3.025   1.319  0.00  0.00    +0.180 C 
ATOM      8  C   LIG    1       -1.492   3.607   0.129  0.00  0.00    +0.290 C 
ENDROOT
BRANCH   6   9
ATOM      9  C   LIG    1       -0.151   0.984   2.366  0.00  0.00    +0.110 A 
ATOM     10  C   LIG    1        0.495   1.780   3.301  0.00  0.00    +0.020 A 
ATOM     11  C   LIG    1        1.038   1.209   4.436  0.00  0.00    +0.020 A 
ATOM     12  C   LIG    1        0.938  -0.156   4.641  0.00  0.00    +0.090 A 
ATOM     13  C   LIG    1        0.294  -0.953   3.710  0.00  0.00    +0.030 A 
ATOM     14  F   LIG    1        1.470  -0.712   5.752  0.00  0.00    -0.130 F 
ATOM     15  C   LIG    1       -0.256  -0.386   2.576  0.00  0.00    -0.020 A 
ATOM     16 CL   LIG    1       -1.069  -1.385   1.412  0.00  0.00    -0.040 Cl
ENDBRANCH   6   9
BRANCH   2  17
ATOM     17  C   LIG    1       -0.731   5.396  -1.965  0.00  0.00    +0.070 C 
BRANCH  17  18
ATOM     18  C   LIG    1       -0.238   6.100  -3.230  0.00  0.00    +0.160 C 
BRANCH  18  19
ATOM     19  C   LIG    1       -0.432   7.588  -3.085  0.00  0.00    +0.090 A 
ATOM     20  N   LIG    1       -1.497   8.263  -3.440  0.00  0.00    -0.290 NA
ATOM     21  N   LIG    1       -1.282   9.616  -3.136  0.00  0.00    -0.470 N 
ATOM     22  H   LIG    1       -1.906  10.342  -3.291  0.00  0.00    +0.440 HD
ATOM     23  C   LIG    1       -0.057   9.726  -2.596  0.00  0.00    +0.090 A 
ATOM     24  C   LIG    1        0.634  10.974  -2.106  0.00  0.00    +0.110 C 
ATOM     25  C   LIG    1        1.809  10.557  -1.213  0.00  0.00    +0.030 C 
ATOM     26  C   LIG    1        2.652   9.504  -1.937  0.00  0.00    +0.010 C 
ATOM     27  C   LIG    1        1.870   8.188  -2.017  0.00  0.00    +0.100 C 
ATOM     28  C   LIG    1        0.492   8.485  -2.554  0.00  0.00    -0.230 A 
ENDBRANCH  18  19
ENDBRANCH  17  18
ENDBRANCH   2  17
TORSDOF 4
