REMARK  Name = ZINCrD000006EQCL.0
REMARK                            x       y       z     vdW  Elec       q    Type
REMARK                         _______ _______ _______ _____ _____    ______ ____
ROOT
ATOM      1  O   LIG    1       -2.086   2.014   0.151  0.00  0.00    -0.530 OA
ATOM      2  C   LIG    1       -0.970   2.459  -0.011  0.00  0.00    +0.520 C 
ATOM      3  N   LIG    1        0.093   1.632  -0.006  0.00  0.00    -0.620 N 
ATOM      4  C   LIG    1        1.455   2.151  -0.206  0.00  0.00    +0.290 C 
ATOM      5  C   LIG    1        2.349   1.620   0.919  0.00  0.00    +0.180 C 
ATOM      6  N   LIG    1        2.244   0.155   0.974  0.00  0.00    -0.480 N 
ATOM      7  C   LIG    1        0.877  -0.269   1.304  0.00  0.00    +0.190 C 
ATOM      8  C   LIG    1       -0.077   0.185   0.195  0.00  0.00    +0.300 C 
ENDROOT
BRANCH   6   9
ATOM      9  C   LIG    1        3.167  -0.380   1.879  0.00  0.00    +0.110 A 
ATOM     10  C   LIG    1        3.856   0.457   2.746  0.00  0.00    +0.020 A 
ATOM     11  C   LIG    1        4.767  -0.074   3.639  0.00  0.00    +0.020 A 
ATOM     12  C   LIG    1        4.995  -1.439   3.669  0.00  0.00    +0.090 A 
ATOM     13  C   LIG    1        4.309  -2.276   2.805  0.00  0.00    +0.030 A 
ATOM     14  F   LIG    1        5.887  -1.955   4.542  0.00  0.00    -0.130 F 
ATOM     15  C   LIG    1        3.393  -1.751   1.914  0.00  0.00    -0.020 A 
ATOM     16 CL   LIG    1        2.529  -2.801   0.835  0.00  0.00    -0.040 Cl
ENDBRANCH   6   9
BRANCH   2  17
ATOM     17  C   LIG    1       -0.772   3.939  -0.218  0.00  0.00    +0.060 C 
BRANCH  17  18
ATOM     18  C   LIG    1       -2.129   4.645  -0.181  0.00  0.00    +0.140 C 
BRANCH  18  19
ATOM     19  C   LIG    1       -1.931   6.125  -0.388  0.00  0.00    +0.090 A 
ATOM     20  C   LIG    1       -1.829   6.754  -1.573  0.00  0.00    -0.230 A 
ATOM     21  C   LIG    1       -1.904   6.160  -2.958  0.00  0.00    +0.100 C 
ATOM     22  C   LIG    1       -2.162   7.297  -3.955  0.00  0.00    +0.010 C 
ATOM     23  C   LIG    1       -1.160   8.428  -3.719  0.00  0.00    +0.020 C 
ATOM     24  C   LIG    1       -1.500   9.158  -2.413  0.00  0.00    +0.120 C 
ATOM     25  C   LIG    1       -1.654   8.126  -1.323  0.00  0.00    +0.080 A 
ATOM     26  N   LIG    1       -1.646   8.307  -0.034  0.00  0.00    -0.290 NA
ATOM     27  N   LIG    1       -1.819   7.059   0.583  0.00  0.00    -0.480 N 
ATOM     28  H   LIG    1       -1.853   6.895   1.538  0.00  0.00    +0.440 HD
ENDBRANCH  18  19
ENDBRANCH  17  18
ENDBRANCH   2  17
TORSDOF 4
