REMARK  Name = ZINCpe000000UzCP.0
REMARK                            x       y       z     vdW  Elec       q    Type
REMARK                         _______ _______ _______ _____ _____    ______ ____
ROOT
ATOM      1  N   LIG    1       -3.441   2.573   0.099  0.00  0.00    -0.430 N 
ATOM      2  N   LIG    1       -2.490   1.589  -0.202  0.00  0.00    -0.260 NA
ATOM      3  C   LIG    1       -1.311   2.147  -0.182  0.00  0.00    +0.330 A 
ATOM      4  N   LIG    1       -1.464   3.483   0.131  0.00  0.00    -0.550 N 
ATOM      5  C   LIG    1       -0.382   4.463   0.259  0.00  0.00    +0.350 C 
ATOM      6  C   LIG    1       -2.778   3.731   0.296  0.00  0.00    +0.660 A 
ATOM      7  O   LIG    1       -3.277   4.806   0.577  0.00  0.00    -0.550 OA
ENDROOT
BRANCH   3   8
ATOM      8  C   LIG    1       -0.027   1.462  -0.446  0.00  0.00    -0.020 A 
ATOM      9  C   LIG    1        1.118   2.208  -0.727  0.00  0.00    +0.060 A 
ATOM     10  C   LIG    1        2.314   1.567  -0.977  0.00  0.00    +0.050 A 
ATOM     11  C   LIG    1        2.383   0.182  -0.952  0.00  0.00    +0.060 A 
ATOM     12  O   LIG    1        3.426  -0.673  -1.162  0.00  0.00    -0.300 OA
ATOM     13  C   LIG    1        2.826  -1.957  -1.412  0.00  0.00    +0.440 C 
ATOM     14  O   LIG    1        1.572  -1.893  -0.707  0.00  0.00    -0.300 OA
ATOM     15  C   LIG    1        1.242  -0.569  -0.671  0.00  0.00    +0.030 A 
ATOM     16  C   LIG    1        0.041   0.068  -0.419  0.00  0.00    +0.100 A 
ENDBRANCH   3   8
BRANCH   1  17
ATOM     17  C   LIG    1       -4.890   2.379   0.184  0.00  0.00    +0.400 C 
BRANCH  17  20
ATOM     18  C   LIG    1       -7.688   2.130  -0.193  0.00  0.00    +0.280 C 
ATOM     19  N   LIG    1       -6.841   2.494  -1.332  0.00  0.00    -0.610 N 
ATOM     20  C   LIG    1       -5.509   2.617  -1.169  0.00  0.00    +0.500 C 
ATOM     21  O   LIG    1       -4.808   2.918  -2.112  0.00  0.00    -0.520 OA
BRANCH  19  22
ATOM     22  C   LIG    1       -7.443   2.725  -2.647  0.00  0.00    +0.320 C 
BRANCH  22  23
ATOM     23  C   LIG    1       -7.485   1.410  -3.427  0.00  0.00    -0.070 C 
ATOM     24  C   LIG    1       -6.661   1.325  -4.714  0.00  0.00    +0.020 C 
ATOM     25  C   LIG    1       -8.187   1.416  -4.787  0.00  0.00    +0.020 C 
ENDBRANCH  22  23
ENDBRANCH  19  22
ENDBRANCH  17  20
ENDBRANCH   1  17
TORSDOF 5
