REMARK  Name = ZINCtj0000001pkH.1
REMARK                            x       y       z     vdW  Elec       q    Type
REMARK                         _______ _______ _______ _____ _____    ______ ____
ROOT
ATOM      1  C   LIG    1       -2.366   1.360  -0.501  0.00  0.00    +0.360 C 
ENDROOT
BRANCH   1   2
ATOM      2  N   LIG    1       -3.388   2.408  -0.571  0.00  0.00    -0.570 N 
ATOM      3  C   LIG    1       -3.788   2.995  -1.706  0.00  0.00    +0.710 C 
ATOM      4  N   LIG    1       -4.740   3.926  -1.496  0.00  0.00    -0.710 N 
ATOM      5  H   LIG    1       -5.176   4.476  -2.166  0.00  0.00    +0.450 HD
ATOM      6  C   LIG    1       -4.982   3.942  -0.053  0.00  0.00    +0.170 C 
ATOM      7  C   LIG    1       -6.442   3.602   0.274  0.00  0.00    +0.080 C 
ATOM      8  C   LIG    1       -6.694   4.438   1.549  0.00  0.00    +0.090 C 
ATOM      9  C   LIG    1       -5.712   5.588   1.471  0.00  0.00    -0.070 A 
ATOM     10  C   LIG    1       -5.684   6.791   2.154  0.00  0.00    +0.020 A 
ATOM     11  C   LIG    1       -4.674   7.704   1.918  0.00  0.00    +0.040 A 
ATOM     12  C   LIG    1       -3.688   7.415   0.994  0.00  0.00    +0.010 A 
ATOM     13  C   LIG    1       -3.713   6.216   0.310  0.00  0.00    +0.040 A 
ATOM     14  C   LIG    1       -4.723   5.298   0.545  0.00  0.00    -0.120 A 
ATOM     15  O   LIG    1       -3.342   2.720  -2.803  0.00  0.00    -0.540 OA
ATOM     16  C   LIG    1       -4.048   2.898   0.501  0.00  0.00    +0.550 C 
ATOM     17  O   LIG    1       -3.915   2.570   1.661  0.00  0.00    -0.450 OA
ENDBRANCH   1   2
BRANCH   1  20
ATOM     18  N   LIG    1        0.088   1.216  -0.227  0.00  0.00    -0.750 N 
ATOM     19  H   LIG    1        0.006   0.251  -0.280  0.00  0.00    +0.400 HD
ATOM     20  C   LIG    1       -1.010   1.992  -0.318  0.00  0.00    +0.510 C 
ATOM     21  O   LIG    1       -0.907   3.199  -0.252  0.00  0.00    -0.500 OA
BRANCH  18  22
ATOM     22  C   LIG    1        1.407   1.830  -0.055  0.00  0.00    +0.330 C 
BRANCH  22  23
ATOM     23  C   LIG    1        2.462   0.735   0.112  0.00  0.00    +0.310 C 
BRANCH  23  24
ATOM     24  C   LIG    1        2.198  -0.026   1.386  0.00  0.00    -0.110 A 
ATOM     25  C   LIG    1        2.842   0.149   2.554  0.00  0.00    +0.030 A 
ATOM     26  C   LIG    1        2.278  -0.765   3.473  0.00  0.00    -0.050 A 
ATOM     27  C   LIG    1        1.329  -1.450   2.809  0.00  0.00    +0.230 A 
ATOM     28  O   LIG    1        1.286  -0.998   1.546  0.00  0.00    -0.180 OA
ENDBRANCH  23  24
BRANCH  23  30
ATOM     29  C   LIG    1        2.626   0.561  -2.275  0.00  0.00    +0.330 C 
ATOM     30  N   LIG    1        2.397  -0.186  -1.031  0.00  0.00    -0.390 N 
ATOM     31  C   LIG    1        3.429  -1.221  -0.884  0.00  0.00    +0.330 C 
ATOM     32  H   LIG    1        1.487  -0.620  -1.062  0.00  0.00    +0.420 HD
ENDBRANCH  23  30
ENDBRANCH  22  23
ENDBRANCH  18  22
ENDBRANCH   1  20
TORSDOF 6
