REMARK  Name = ZINCvU0000000IIi.0
REMARK                            x       y       z     vdW  Elec       q    Type
REMARK                         _______ _______ _______ _____ _____    ______ ____
ROOT
ATOM      1  N   LIG    1       -2.102   3.500  -0.096  0.00  0.00    -1.250 N 
ENDROOT
BRANCH   1   2
ATOM      2  C   LIG    1       -1.021   2.625   0.028  0.00  0.00    +0.110 A 
ATOM      3  C   LIG    1       -0.989   1.448  -0.710  0.00  0.00    +0.090 A 
ATOM      4  C   LIG    1        0.079   0.582  -0.581  0.00  0.00    +0.050 A 
ATOM      5  C   LIG    1        1.121   0.891   0.274  0.00  0.00    +0.090 A 
ATOM      6  C   LIG    1        1.096   2.064   1.006  0.00  0.00    -0.170 A 
ATOM      7  C   LIG    1        0.029   2.931   0.886  0.00  0.00    +0.110 A 
BRANCH   6   8
ATOM      8  C   LIG    1        2.235   2.396   1.935  0.00  0.00    +0.510 C 
ATOM      9  F   LIG    1        1.750   2.518   3.242  0.00  0.00    -0.170 F 
ATOM     10  F   LIG    1        2.822   3.603   1.541  0.00  0.00    -0.170 F 
ATOM     11  F   LIG    1        3.190   1.375   1.886  0.00  0.00    -0.170 F 
ENDBRANCH   6   8
ENDBRANCH   1   2
BRANCH   1  12
ATOM     12  S   LIG    1       -3.650   2.910  -0.085  0.00  0.00    +2.660 S 
ATOM     13  O   LIG    1       -3.550   1.516  -0.339  0.00  0.00    -0.920 OA
ATOM     14  O   LIG    1       -4.421   3.793  -0.888  0.00  0.00    -0.920 OA
BRANCH  12  19
ATOM     15  C   LIG    1       -5.735   3.473   5.549  0.00  0.00    +0.100 C 
ATOM     16  C   LIG    1       -5.215   3.332   4.142  0.00  0.00    -0.010 A 
ATOM     17  C   LIG    1       -5.681   4.169   3.146  0.00  0.00    -0.020 A 
ATOM     18  C   LIG    1       -5.203   4.040   1.855  0.00  0.00    +0.050 A 
ATOM     19  C   LIG    1       -4.259   3.075   1.560  0.00  0.00    -0.700 A 
ATOM     20  C   LIG    1       -3.796   2.234   2.555  0.00  0.00    +0.040 A 
ATOM     21  C   LIG    1       -2.772   1.177   2.233  0.00  0.00    +0.100 C 
ATOM     22  C   LIG    1       -5.711   4.953   0.769  0.00  0.00    +0.130 C 
ATOM     23  C   LIG    1       -4.271   2.365   3.847  0.00  0.00    -0.030 A 
ENDBRANCH  12  19
ENDBRANCH   1  12
BRANCH   1  24
ATOM     24  S   LIG    1       -1.837   5.127  -0.253  0.00  0.00    +2.690 S 
ATOM     25  O   LIG    1       -0.501   5.359   0.173  0.00  0.00    -0.910 OA
ATOM     26  O   LIG    1       -2.961   5.775   0.326  0.00  0.00    -0.910 OA
BRANCH  24  27
ATOM     27  C   LIG    1       -1.881   5.498  -1.975  0.00  0.00    -0.810 A 
ATOM     28  C   LIG    1       -2.974   5.842  -2.660  0.00  0.00    +0.200 A 
ATOM     29  C   LIG    1       -2.765   6.088  -4.006  0.00  0.00    -0.010 A 
ATOM     30  C   LIG    1       -1.503   5.945  -4.414  0.00  0.00    +0.020 A 
ATOM     31  S   LIG    1       -0.491   5.480  -3.052  0.00  0.00    +0.220 S 
ENDBRANCH  24  27
ENDBRANCH   1  24
TORSDOF 6
