REMARK  Name = ZINCqH0000034lM4.0
REMARK                            x       y       z     vdW  Elec       q    Type
REMARK                         _______ _______ _______ _____ _____    ______ ____
ROOT
ATOM      1  C   LIG    1        1.663  -1.400  -1.001  0.00  0.00    +0.580 C 
ATOM      2  N   LIG    1        1.219  -0.691   0.055  0.00  0.00    -0.560 N 
ATOM      3  C   LIG    1        2.012  -0.595   1.292  0.00  0.00    +0.300 C 
ATOM      4  C   LIG    1        2.827   0.677   1.296  0.00  0.00    +0.010 C 
ATOM      5  C   LIG    1        1.981   1.943   1.314  0.00  0.00    +0.030 C 
ATOM      6  C   LIG    1        1.254   2.140  -0.013  0.00  0.00    +0.080 C 
ATOM      7  C   LIG    1       -0.048   1.359   0.012  0.00  0.00    -0.120 A 
ATOM      8  C   LIG    1       -1.259   2.027   0.018  0.00  0.00    +0.150 A 
ATOM      9  C   LIG    1       -2.443   1.300   0.000  0.00  0.00    -0.070 A 
ATOM     10  C   LIG    1       -2.406  -0.081  -0.024  0.00  0.00    +0.060 A 
ATOM     11  C   LIG    1       -1.196  -0.747  -0.019  0.00  0.00    -0.030 A 
ATOM     12  C   LIG    1       -0.009  -0.024   0.011  0.00  0.00    +0.160 A 
ATOM     13  O   LIG    1        2.765  -1.912  -0.970  0.00  0.00    -0.510 OA
ENDROOT
BRANCH   1  20
ATOM     14  C   LIG    1       -1.785   0.041  -4.520  0.00  0.00    +0.070 A 
ATOM     15  N   LIG    1       -2.143  -0.751  -5.487  0.00  0.00    -0.310 NA
ATOM     16  O   LIG    1       -1.589  -1.825  -5.461  0.00  0.00    +0.090 OA
ATOM     17  C   LIG    1       -0.730  -1.950  -4.434  0.00  0.00    +0.230 A 
ATOM     18  N   LIG    1        0.079  -2.904  -4.002  0.00  0.00    -0.460 NA
ATOM     19  C   LIG    1        0.834  -2.742  -2.938  0.00  0.00    +0.410 A 
ATOM     20  C   LIG    1        0.811  -1.554  -2.197  0.00  0.00    -0.210 A 
ATOM     21  C   LIG    1       -0.028  -0.513  -2.611  0.00  0.00    +0.200 A 
ATOM     22  C   LIG    1       -0.803  -0.721  -3.742  0.00  0.00    -0.220 A 
BRANCH  14  24
ATOM     23  C   LIG    1       -1.381   2.442  -4.988  0.00  0.00    +0.040 C 
ATOM     24  C   LIG    1       -2.276   1.441  -4.254  0.00  0.00    +0.130 C 
ENDBRANCH  14  24
ENDBRANCH   1  20
BRANCH   8  25
ATOM     25  O   LIG    1       -1.290   3.386   0.043  0.00  0.00    -0.310 OA
ATOM     26  C   LIG    1       -2.578   4.005   0.049  0.00  0.00    +0.240 C 
ENDBRANCH   8  25
TORSDOF 3
