REMARK  Name = ZINCnE000001Cn1F.0
REMARK                            x       y       z     vdW  Elec       q    Type
REMARK                         _______ _______ _______ _____ _____    ______ ____
ROOT
ATOM      1  N   LIG    1       -0.374   0.791   1.136  0.00  0.00    -0.670 NA
ATOM      2  C   LIG    1       -1.072   0.112   2.009  0.00  0.00    +0.440 A 
ATOM      3  N   LIG    1       -1.299  -1.239   2.000  0.00  0.00    -0.540 NA
ATOM      4  N   LIG    1       -2.091  -1.516   3.124  0.00  0.00    -0.270 NA
ATOM      5  C   LIG    1       -2.317  -0.404   3.739  0.00  0.00    +0.070 A 
ATOM      6  O   LIG    1       -1.711   0.609   3.087  0.00  0.00    -0.290 OA
ENDROOT
BRANCH   5   7
ATOM      7  C   LIG    1       -3.134  -0.260   4.997  0.00  0.00    +0.280 C 
ATOM      8  C   LIG    1       -3.952  -1.534   5.223  0.00  0.00    +0.060 C 
BRANCH   7   9
ATOM      9  O   LIG    1       -2.263  -0.051   6.110  0.00  0.00    -0.300 OA
BRANCH   9  10
ATOM     10  C   LIG    1       -2.781   0.598   7.186  0.00  0.00    +0.140 A 
ATOM     11  C   LIG    1       -4.129   0.923   7.218  0.00  0.00    -0.090 A 
ATOM     12  C   LIG    1       -4.653   1.583   8.313  0.00  0.00    +0.040 A 
ATOM     13  C   LIG    1       -3.836   1.917   9.377  0.00  0.00    -0.040 A 
ATOM     14  C   LIG    1       -2.492   1.593   9.347  0.00  0.00    -0.050 A 
ATOM     15  C   LIG    1       -1.604   1.960  10.508  0.00  0.00    +0.100 C 
ATOM     16  C   LIG    1       -1.964   0.930   8.257  0.00  0.00    -0.120 A 
ATOM     17  C   LIG    1       -0.500   0.571   8.229  0.00  0.00    +0.090 C 
ENDBRANCH   9  10
ENDBRANCH   7   9
ENDBRANCH   5   7
BRANCH   1  18
ATOM     18  C   LIG    1        0.263   0.101   0.012  0.00  0.00    +0.210 C 
BRANCH  18  19
ATOM     19  C   LIG    1       -0.369   0.572  -1.300  0.00  0.00    +0.140 C 
BRANCH  19  20
ATOM     20  O   LIG    1       -0.082   1.958  -1.496  0.00  0.00    -0.360 OA
BRANCH  20  21
ATOM     21  C   LIG    1       -0.630   2.500  -2.699  0.00  0.00    +0.180 C 
BRANCH  21  23
ATOM     22  C   LIG    1        0.166   4.447  -3.938  0.00  0.00    -0.010 C 
ATOM     23  C   LIG    1       -0.268   3.959  -2.803  0.00  0.00    -0.010 C 
ENDBRANCH  21  23
ENDBRANCH  20  21
ENDBRANCH  19  20
ENDBRANCH  18  19
ENDBRANCH   1  18
TORSDOF 8
