REMARK  Name = ZINCvU0000000BWY.0
REMARK                            x       y       z     vdW  Elec       q    Type
REMARK                         _______ _______ _______ _____ _____    ______ ____
ROOT
ATOM      1  C   LIG    1        1.569   5.606   1.258  0.00  0.00    +0.180 C 
ENDROOT
BRANCH   1   4
ATOM      2  C   LIG    1       -0.080   8.021   3.429  0.00  0.00    +0.130 A 
ATOM      3  N   LIG    1        0.610   6.973   3.078  0.00  0.00    -0.450 NA
ATOM      4  C   LIG    1        0.789   6.780   1.791  0.00  0.00    +0.080 A 
ATOM      5  C   LIG    1        0.242   7.694   0.983  0.00  0.00    -0.050 A 
ATOM      6  S   LIG    1       -0.580   8.892   1.981  0.00  0.00    +0.100 S 
BRANCH   2  10
ATOM      7  C   LIG    1       -0.981   9.150   7.428  0.00  0.00    +0.120 A 
ATOM      8  C   LIG    1       -0.234   8.008   7.181  0.00  0.00    -0.040 A 
ATOM      9  C   LIG    1        0.060   7.638   5.885  0.00  0.00    +0.080 A 
ATOM     10  C   LIG    1       -0.394   8.415   4.818  0.00  0.00    -0.030 A 
ATOM     11  C   LIG    1       -1.141   9.568   5.066  0.00  0.00    -0.010 A 
ATOM     12  C   LIG    1       -1.437   9.930   6.367  0.00  0.00    +0.100 A 
BRANCH   7  14
ATOM     13  C   LIG    1       -0.769   8.665   9.746  0.00  0.00    +0.240 C 
ATOM     14  O   LIG    1       -1.269   9.509   8.707  0.00  0.00    -0.300 OA
ENDBRANCH   7  14
BRANCH  12  15
ATOM     15  O   LIG    1       -2.170  11.049   6.612  0.00  0.00    -0.300 OA
ATOM     16  C   LIG    1       -2.605  11.801   5.478  0.00  0.00    +0.240 C 
ENDBRANCH  12  15
ENDBRANCH   2  10
ENDBRANCH   1   4
BRANCH   1  17
ATOM     17  S   LIG    1        0.447   4.212   0.983  0.00  0.00    +0.030 S 
BRANCH  17  18
ATOM     18  C   LIG    1        1.590   3.014   0.380  0.00  0.00    +0.150 A 
ATOM     19  N   LIG    1        2.881   3.182   0.214  0.00  0.00    -0.280 NA
ATOM     20  N   LIG    1        3.406   2.103  -0.248  0.00  0.00    -0.270 NA
ATOM     21  C   LIG    1        2.489   1.189  -0.399  0.00  0.00    +0.200 A 
ATOM     22  N   LIG    1        1.300   1.736  -0.001  0.00  0.00    -0.430 N 
BRANCH  22  23
ATOM     23  C   LIG    1       -0.013   1.086   0.008  0.00  0.00    +0.200 C 
ATOM     24  C   LIG    1       -1.116   1.735   0.846  0.00  0.00    +0.070 C 
ATOM     25  C   LIG    1       -1.167   1.816  -0.682  0.00  0.00    +0.060 C 
ENDBRANCH  22  23
BRANCH  21  26
ATOM     26  C   LIG    1        2.700  -0.210  -0.916  0.00  0.00    +0.250 C 
BRANCH  26  27
ATOM     27  C   LIG    1        2.536  -0.223  -2.414  0.00  0.00    -0.190 A 
ATOM     28  C   LIG    1        3.516  -0.019  -3.296  0.00  0.00    +0.040 A 
ATOM     29  C   LIG    1        3.127  -0.081  -4.623  0.00  0.00    +0.010 A 
ATOM     30  C   LIG    1        1.830  -0.325  -4.819  0.00  0.00    -0.030 A 
ATOM     31  S   LIG    1        1.023  -0.499  -3.266  0.00  0.00    +0.100 S 
ENDBRANCH  26  27
ENDBRANCH  21  26
ENDBRANCH  17  18
ENDBRANCH   1  17
TORSDOF 9
