REMARK  Name = ZINCrD0000070Yoh.0
REMARK                            x       y       z     vdW  Elec       q    Type
REMARK                         _______ _______ _______ _____ _____    ______ ____
ROOT
ATOM      1  O   LIG    1        3.453   6.052   1.191  0.00  0.00    -0.330 OA
ENDROOT
BRANCH   1   2
ATOM      2  C   LIG    1        4.689   5.603   0.889  0.00  0.00    +0.540 C 
ATOM      3  O   LIG    1        4.852   4.443   0.565  0.00  0.00    -0.490 OA
BRANCH   2   8
ATOM      4  C   LIG    1        7.899   7.363   0.857  0.00  0.00    -0.260 A 
ATOM      5  C   LIG    1        7.024   8.365   1.246  0.00  0.00    +0.120 A 
ATOM      6  N   LIG    1        5.787   7.850   1.296  0.00  0.00    -0.510 N 
ATOM      7  H   LIG    1        4.985   8.338   1.538  0.00  0.00    +0.430 HD
ATOM      8  C   LIG    1        5.835   6.516   0.951  0.00  0.00    -0.050 A 
ATOM      9  C   LIG    1        7.398   9.792   1.557  0.00  0.00    +0.160 C 
ATOM     10  C   LIG    1        7.129   6.190   0.671  0.00  0.00    -0.020 A 
ATOM     11  C   LIG    1        7.643   4.839   0.246  0.00  0.00    +0.140 C 
BRANCH   4  13
ATOM     12  C   LIG    1        9.903   7.895  -0.671  0.00  0.00    +0.060 C 
ATOM     13  C   LIG    1        9.348   7.494   0.671  0.00  0.00    +0.440 C 
ATOM     14  O   LIG    1       10.100   7.279   1.599  0.00  0.00    -0.450 OA
ENDBRANCH   4  13
ENDBRANCH   2   8
ENDBRANCH   1   2
BRANCH   1  15
ATOM     15  C   LIG    1        2.365   5.093   1.108  0.00  0.00    +0.200 C 
ATOM     16  C   LIG    1        2.192   4.400   2.461  0.00  0.00    +0.080 C 
BRANCH  15  17
ATOM     17  C   LIG    1        1.091   5.810   0.744  0.00  0.00    +0.520 C 
ATOM     18  N   LIG    1       -0.022   5.104   0.460  0.00  0.00    -0.550 N 
ATOM     19  C   LIG    1        0.026   3.639   0.371  0.00  0.00    +0.270 C 
ATOM     20  C   LIG    1       -0.763   3.218  -0.876  0.00  0.00    +0.020 C 
ATOM     21  C   LIG    1       -2.224   3.630  -0.698  0.00  0.00    +0.080 C 
ATOM     22  C   LIG    1       -2.319   5.083  -0.313  0.00  0.00    -0.110 A 
ATOM     23  C   LIG    1       -3.514   5.753  -0.515  0.00  0.00    +0.030 A 
ATOM     24  C   LIG    1       -3.633   7.086  -0.173  0.00  0.00    -0.020 A 
ATOM     25  C   LIG    1       -2.561   7.758   0.385  0.00  0.00    +0.030 A 
ATOM     26  C   LIG    1       -1.367   7.096   0.593  0.00  0.00    +0.010 A 
ATOM     27  C   LIG    1       -1.244   5.756   0.244  0.00  0.00    +0.150 A 
ATOM     28  O   LIG    1        1.066   7.022   0.707  0.00  0.00    -0.490 OA
ENDBRANCH  15  17
ENDBRANCH   1  15
TORSDOF 5
