REMARK  Name = ZINCvU0000000BEY.0
REMARK                            x       y       z     vdW  Elec       q    Type
REMARK                         _______ _______ _______ _____ _____    ______ ____
ROOT
ATOM      1  O   LIG    1        4.385  -4.508   0.150  0.00  0.00    -0.320 OA
ENDROOT
BRANCH   1   2
ATOM      2  C   LIG    1        5.587  -5.095   0.320  0.00  0.00    +0.520 C 
ATOM      3  O   LIG    1        6.587  -4.412   0.421  0.00  0.00    -0.500 OA
BRANCH   2   4
ATOM      4  C   LIG    1        5.687  -6.561   0.384  0.00  0.00    -0.100 C 
ATOM      5  C   LIG    1        6.902  -7.155   0.556  0.00  0.00    +0.180 C 
BRANCH   5   6
ATOM      6  C   LIG    1        6.985  -8.598   0.805  0.00  0.00    -0.100 A 
ATOM      7  C   LIG    1        5.929  -9.264   1.440  0.00  0.00    +0.090 A 
ATOM      8  C   LIG    1        6.012 -10.621   1.666  0.00  0.00    -0.020 A 
ATOM      9  C   LIG    1        7.141 -11.325   1.277  0.00  0.00    +0.120 A 
ATOM     10  C   LIG    1        8.193 -10.671   0.652  0.00  0.00    -0.020 A 
ATOM     11  F   LIG    1        7.218 -12.654   1.507  0.00  0.00    -0.130 F 
ATOM     12  C   LIG    1        8.123  -9.316   0.415  0.00  0.00    +0.090 A 
ENDBRANCH   5   6
BRANCH   4  13
ATOM     13  C   LIG    1        4.472  -7.389   0.262  0.00  0.00    -0.150 A 
ATOM     14  C   LIG    1        3.418  -7.357   1.105  0.00  0.00    +0.030 A 
ATOM     15  C   LIG    1        2.397  -8.226   0.783  0.00  0.00    +0.010 A 
ATOM     16  C   LIG    1        2.605  -8.965  -0.311  0.00  0.00    -0.040 A 
ATOM     17  S   LIG    1        4.170  -8.566  -1.010  0.00  0.00    +0.130 S 
ENDBRANCH   4  13
ENDBRANCH   2   4
ENDBRANCH   1   2
BRANCH   1  18
ATOM     18  C   LIG    1        4.361  -3.057   0.097  0.00  0.00    +0.270 C 
BRANCH  18  21
ATOM     19  N   LIG    1        2.678  -1.265  -0.176  0.00  0.00    -0.660 N 
ATOM     20  H   LIG    1        3.405  -0.624  -0.184  0.00  0.00    +0.410 HD
ATOM     21  C   LIG    1        2.943  -2.584  -0.097  0.00  0.00    +0.520 C 
ATOM     22  O   LIG    1        2.042  -3.391  -0.181  0.00  0.00    -0.480 OA
BRANCH  19  28
ATOM     23  C   LIG    1        1.056   0.416  -0.822  0.00  0.00    -0.120 A 
ATOM     24  C   LIG    1       -0.260   0.849  -0.888  0.00  0.00    +0.020 A 
ATOM     25  C   LIG    1       -1.275   0.057  -0.384  0.00  0.00    +0.020 A 
ATOM     26  C   LIG    1       -0.983  -1.168   0.186  0.00  0.00    +0.040 A 
ATOM     27  C   LIG    1        0.326  -1.608   0.257  0.00  0.00    +0.040 A 
ATOM     28  C   LIG    1        1.351  -0.821  -0.246  0.00  0.00    +0.180 A 
BRANCH  23  29
ATOM     29  S   LIG    1        2.352   1.423  -1.463  0.00  0.00    -0.080 S 
BRANCH  29  30
ATOM     30  C   LIG    1        1.467   2.881  -2.082  0.00  0.00    +0.260 C 
BRANCH  30  32
ATOM     31  N   LIG    1        3.175   4.566  -3.103  0.00  0.00    -0.390 NA
ATOM     32  C   LIG    1        2.431   3.832  -2.658  0.00  0.00    +0.210 C 
ENDBRANCH  30  32
ENDBRANCH  29  30
ENDBRANCH  23  29
ENDBRANCH  19  28
ENDBRANCH  18  21
ENDBRANCH   1  18
TORSDOF 10
