REMARK  Name = ZINCkj000005kayT.0
REMARK                            x       y       z     vdW  Elec       q    Type
REMARK                         _______ _______ _______ _____ _____    ______ ____
ROOT
ATOM      1  S   LIG    1       -1.999   1.897  -0.648  0.00  0.00    +2.700 S 
ATOM      2  O   LIG    1       -1.877   3.284  -0.931  0.00  0.00    -0.940 OA
ATOM      3  O   LIG    1       -2.769   1.389   0.432  0.00  0.00    -0.940 OA
ENDROOT
BRANCH   1  10
ATOM      4  C   LIG    1       -0.857   2.336  -3.410  0.00  0.00    +0.110 C 
ATOM      5  C   LIG    1       -2.042   1.408  -3.333  0.00  0.00    +0.020 A 
ATOM      6  C   LIG    1       -2.534   0.823  -4.480  0.00  0.00    +0.060 A 
ATOM      7  C   LIG    1       -3.632  -0.037  -4.407  0.00  0.00    +0.050 A 
ATOM      8  C   LIG    1       -4.224  -0.298  -3.170  0.00  0.00    +0.050 A 
ATOM      9  C   LIG    1       -3.718   0.290  -2.028  0.00  0.00    +0.140 A 
ATOM     10  C   LIG    1       -2.634   1.145  -2.110  0.00  0.00    -0.670 A 
BRANCH   7  11
ATOM     11  C   LIG    1       -4.149  -0.647  -5.594  0.00  0.00    +0.230 C 
ATOM     12  N   LIG    1       -4.559  -1.131  -6.537  0.00  0.00    -0.380 NA
ENDBRANCH   7  11
ENDBRANCH   1  10
BRANCH   1  13
ATOM     13  N   LIG    1       -0.459   1.327  -0.433  0.00  0.00    -1.000 NA
ATOM     14  C   LIG    1        0.702   2.158  -0.782  0.00  0.00    +0.320 C 
ATOM     15  C   LIG    1        1.634   2.237   0.431  0.00  0.00    +0.050 C 
ATOM     16  C   LIG    1        1.989   0.821   0.891  0.00  0.00    +0.180 C 
ATOM     17  C   LIG    1        0.715   0.084   1.308  0.00  0.00    +0.040 C 
ATOM     18  C   LIG    1       -0.227  -0.020   0.104  0.00  0.00    +0.250 C 
ATOM     19  C   LIG    1       -1.558  -0.632   0.546  0.00  0.00    +0.060 C 
BRANCH  16  20
ATOM     20  N   LIG    1        2.909   0.894   2.034  0.00  0.00    -0.640 N 
ATOM     21  H   LIG    1        2.465   1.391   2.791  0.00  0.00    +0.430 HD
ATOM     22  H   LIG    1        3.749   1.380   1.759  0.00  0.00    +0.440 HD
ATOM     23  H   LIG    1        3.144  -0.040   2.336  0.00  0.00    +0.440 HD
ENDBRANCH  16  20
ENDBRANCH   1  13
TORSDOF 4
