REMARK  Name = ZINCrH000004sHxN.0
REMARK                            x       y       z     vdW  Elec       q    Type
REMARK                         _______ _______ _______ _____ _____    ______ ____
ROOT
ATOM      1  C   LIG    1        5.127   0.501  -0.038  0.00  0.00    +0.170 A 
ATOM      2  C   LIG    1        4.190  -0.189   0.722  0.00  0.00    +0.020 A 
ATOM      3  C   LIG    1        2.878   0.228   0.746  0.00  0.00    +0.090 A 
ATOM      4  C   LIG    1        2.488   1.345   0.004  0.00  0.00    -0.050 A 
ATOM      5  C   LIG    1        3.431   2.033  -0.763  0.00  0.00    +0.040 A 
ATOM      6  C   LIG    1        4.743   1.614  -0.778  0.00  0.00    -0.020 A 
ENDROOT
BRANCH   4   7
ATOM      7  C   LIG    1        1.081   1.796   0.028  0.00  0.00    +0.330 A 
ATOM      8  N   LIG    1        0.117   1.223   0.707  0.00  0.00    -0.480 NA
ATOM      9  C   LIG    1       -1.044   1.892   0.502  0.00  0.00    +0.050 A 
ATOM     10  C   LIG    1       -2.349   1.715   0.971  0.00  0.00    +0.070 A 
ATOM     11  C   LIG    1       -3.342   2.582   0.574  0.00  0.00    +0.000 A 
ATOM     12  C   LIG    1       -3.058   3.631  -0.289  0.00  0.00    +0.030 A 
ATOM     13  C   LIG    1       -1.776   3.820  -0.761  0.00  0.00    +0.010 A 
ATOM     14  C   LIG    1       -0.760   2.960  -0.368  0.00  0.00    +0.050 A 
ATOM     15  N   LIG    1        0.588   2.874  -0.657  0.00  0.00    -0.600 N 
ATOM     16  H   LIG    1        1.092   3.469  -1.235  0.00  0.00    +0.420 HD
ENDBRANCH   4   7
BRANCH   1  18
ATOM     17  C   LIG    1        6.747  -1.237   0.032  0.00  0.00    +0.510 C 
ATOM     18  N   LIG    1        6.457   0.076  -0.060  0.00  0.00    -0.680 N 
ATOM     19  H   LIG    1        7.173   0.726  -0.141  0.00  0.00    +0.410 HD
ATOM     20  O   LIG    1        5.852  -2.056   0.037  0.00  0.00    -0.500 OA
BRANCH  17  21
ATOM     21  C   LIG    1        8.181  -1.688   0.129  0.00  0.00    +0.150 C 
BRANCH  21  29
ATOM     22  C   LIG    1        8.131  -3.394   2.799  0.00  0.00    +0.150 C 
ATOM     23  C   LIG    1        8.209  -3.945   1.398  0.00  0.00    +0.090 A 
ATOM     24  N   LIG    1        8.263  -5.212   1.074  0.00  0.00    -0.300 NA
ATOM     25  N   LIG    1        8.331  -5.303  -0.323  0.00  0.00    -0.370 N 
ATOM     26  C   LIG    1        8.310  -4.050  -0.823  0.00  0.00    +0.100 A 
ATOM     27  C   LIG    1        8.365  -3.674  -2.281  0.00  0.00    +0.140 C 
ATOM     28  C   LIG    1        8.412  -6.541  -1.102  0.00  0.00    +0.360 C 
ATOM     29  C   LIG    1        8.231  -3.191   0.220  0.00  0.00    -0.230 A 
ENDBRANCH  21  29
ENDBRANCH  17  21
ENDBRANCH   1  18
TORSDOF 4
