REMARK  Name = ZINCpe00000MJJRB.0
REMARK                            x       y       z     vdW  Elec       q    Type
REMARK                         _______ _______ _______ _____ _____    ______ ____
ROOT
ATOM      1  C   LIG    1       -0.013   1.086   0.008  0.00  0.00    -0.020 C 
ATOM      2  C   LIG    1        1.425   1.620  -0.003  0.00  0.00    +0.040 C 
ATOM      3  C   LIG    1        2.199   0.948   1.134  0.00  0.00    +0.070 C 
ATOM      4  C   LIG    1        1.410   1.033   2.409  0.00  0.00    +0.520 C 
ATOM      5  N   LIG    1        0.103   1.297   2.450  0.00  0.00    -0.600 N 
ATOM      6  C   LIG    1       -0.555   1.302   3.759  0.00  0.00    +0.280 C 
ATOM      7  O   LIG    1        1.992   0.851   3.457  0.00  0.00    -0.550 OA
ATOM      8  C   LIG    1       -0.710   1.583   1.275  0.00  0.00    +0.320 C 
ENDROOT
BRANCH   8   9
ATOM      9  C   LIG    1       -2.043   0.893   1.413  0.00  0.00    -0.260 A 
ATOM     10  C   LIG    1       -3.247   1.414   1.080  0.00  0.00    +0.260 A 
ATOM     11  N   LIG    1       -4.187   0.485   1.354  0.00  0.00    -0.370 N 
ATOM     12  N   LIG    1       -3.539  -0.644   1.873  0.00  0.00    -0.290 NA
ATOM     13  C   LIG    1       -5.630   0.632   1.146  0.00  0.00    +0.360 C 
ATOM     14  C   LIG    1       -2.254  -0.400   1.901  0.00  0.00    +0.250 A 
ENDBRANCH   8   9
BRANCH   1  15
ATOM     15  C   LIG    1       -0.759   1.596  -1.226  0.00  0.00    +0.280 C 
BRANCH  15  17
ATOM     16  C   LIG    1       -0.648   1.340  -3.647  0.00  0.00    +0.610 C 
ATOM     17  N   LIG    1       -0.153   1.028  -2.433  0.00  0.00    -0.720 N 
ATOM     18  H   LIG    1        0.606   0.428  -2.358  0.00  0.00    +0.410 HD
ATOM     19  O   LIG    1       -1.599   2.092  -3.741  0.00  0.00    -0.530 OA
BRANCH  16  23
ATOM     20  C   LIG    1        0.389   0.177  -8.470  0.00  0.00    +0.150 C 
ATOM     21  C   LIG    1        0.403   0.271  -6.966  0.00  0.00    +0.010 A 
ATOM     22  C   LIG    1       -0.443   0.999  -6.199  0.00  0.00    -0.020 A 
ATOM     23  C   LIG    1       -0.037   0.767  -4.864  0.00  0.00    -0.020 A 
ATOM     24  N   LIG    1        0.995  -0.052  -4.912  0.00  0.00    -0.260 NA
ATOM     25  N   LIG    1        1.260  -0.355  -6.132  0.00  0.00    -0.280 N 
ATOM     26  C   LIG    1        2.342  -1.246  -6.557  0.00  0.00    +0.370 C 
ENDBRANCH  16  23
ENDBRANCH  15  17
ENDBRANCH   1  15
TORSDOF 4
