REMARK  Name = ZINCvU0000000Ad9.0
REMARK                            x       y       z     vdW  Elec       q    Type
REMARK                         _______ _______ _______ _____ _____    ______ ____
ROOT
ATOM      1  C   LIG    1       -0.411   0.649   1.222  0.00  0.00    +0.230 A 
ATOM      2  N   LIG    1       -0.371  -0.547   1.761  0.00  0.00    -0.270 NA
ATOM      3  N   LIG    1       -1.558  -1.032   1.843  0.00  0.00    -0.290 NA
ATOM      4  C   LIG    1       -2.430  -0.172   1.367  0.00  0.00    +0.150 A 
ATOM      5  N   LIG    1       -1.731   0.925   0.949  0.00  0.00    -0.450 N 
ENDROOT
BRANCH   5   6
ATOM      6  C   LIG    1       -2.274   2.143   0.344  0.00  0.00    +0.240 C 
ATOM      7  C   LIG    1       -3.131   2.885   1.371  0.00  0.00    +0.010 C 
ATOM      8  C   LIG    1       -3.698   4.158   0.739  0.00  0.00    +0.040 C 
ATOM      9  C   LIG    1       -4.560   3.786  -0.469  0.00  0.00    +0.010 C 
ATOM     10  C   LIG    1       -3.703   3.043  -1.497  0.00  0.00    +0.040 C 
ATOM     11  C   LIG    1       -3.136   1.771  -0.865  0.00  0.00    -0.020 C 
ATOM     12  C   LIG    1       -2.280   1.029  -1.893  0.00  0.00    +0.030 C 
ENDBRANCH   5   6
BRANCH   1  16
ATOM     13  C   LIG    1        2.909   3.190   0.463  0.00  0.00    +0.150 A 
ATOM     14  C   LIG    1        1.680   3.740   0.807  0.00  0.00    -0.010 A 
ATOM     15  C   LIG    1        0.601   2.918   1.053  0.00  0.00    +0.060 A 
ATOM     16  C   LIG    1        0.744   1.533   0.958  0.00  0.00    -0.060 A 
ATOM     17  C   LIG    1        1.982   0.985   0.618  0.00  0.00    +0.110 A 
ATOM     18  C   LIG    1        3.055   1.813   0.367  0.00  0.00    -0.070 A 
BRANCH  13  20
ATOM     19  C   LIG    1        5.204   3.372  -0.128  0.00  0.00    +0.240 C 
ATOM     20  O   LIG    1        3.970   4.003   0.221  0.00  0.00    -0.310 OA
ENDBRANCH  13  20
ENDBRANCH   1  16
BRANCH   4  21
ATOM     21  S   LIG    1       -4.176  -0.395   1.280  0.00  0.00    +0.070 S 
BRANCH  21  22
ATOM     22  C   LIG    1       -4.319  -2.046   2.006  0.00  0.00    +0.100 C 
BRANCH  22  23
ATOM     23  C   LIG    1       -5.769  -2.458   2.036  0.00  0.00    +0.540 C 
ATOM     24  N   LIG    1       -6.137  -3.583   2.680  0.00  0.00    -0.600 N 
ATOM     25  O   LIG    1       -6.604  -1.777   1.480  0.00  0.00    -0.530 OA
BRANCH  24  26
ATOM     26  C   LIG    1       -5.122  -4.431   3.312  0.00  0.00    +0.230 C 
ATOM     27  C   LIG    1       -4.564  -3.722   4.548  0.00  0.00    +0.010 C 
ATOM     28  C   LIG    1       -3.988  -4.694   2.319  0.00  0.00    +0.020 C 
ENDBRANCH  24  26
BRANCH  24  29
ATOM     29  C   LIG    1       -7.551  -3.959   2.748  0.00  0.00    +0.230 C 
ATOM     30  C   LIG    1       -7.989  -4.031   4.213  0.00  0.00    +0.030 C 
ATOM     31  C   LIG    1       -7.748  -5.325   2.089  0.00  0.00    +0.030 C 
ENDBRANCH  24  29
ENDBRANCH  22  23
ENDBRANCH  21  22
ENDBRANCH   4  21
TORSDOF 8
