REMARK  Name = ZINCah0000003XNV.0
REMARK                            x       y       z     vdW  Elec       q    Type
REMARK                         _______ _______ _______ _____ _____    ______ ____
ROOT
ATOM      1  C   LIG    1        0.419   5.596   0.027  0.00  0.00    +0.120 A 
ATOM      2  C   LIG    1       -0.953   5.469   0.038  0.00  0.00    +0.240 A 
ATOM      3  N   LIG    1       -1.547   4.264   0.038  0.00  0.00    -0.470 N 
ATOM      4  H   LIG    1       -2.516   4.207   0.046  0.00  0.00    +0.430 HD
ATOM      5  C   LIG    1       -0.802   3.114   0.025  0.00  0.00    +0.240 A 
ATOM      6  N   LIG    1       -1.114   1.827   0.017  0.00  0.00    -0.560 NA
ATOM      7  C   LIG    1       -0.013   1.076   0.008  0.00  0.00    +0.240 A 
ATOM      8  C   LIG    1        1.090   1.872   0.002  0.00  0.00    -0.140 A 
ATOM      9  C   LIG    1        0.617   3.204   0.013  0.00  0.00    -0.130 A 
ATOM     10  C   LIG    1        1.226   4.458   0.013  0.00  0.00    +0.110 A 
ENDROOT
BRANCH   1  11
ATOM     11  N   LIG    1        1.005   6.870   0.028  0.00  0.00    -0.880 N 
ATOM     12  H   LIG    1        1.971   6.960   0.020  0.00  0.00    +0.400 HD
ATOM     13  H   LIG    1        0.444   7.662   0.038  0.00  0.00    +0.400 HD
ENDBRANCH   1  11
TORSDOF 1
