REMARK  Name = ZINCtV00000L6je7.0
REMARK                            x       y       z     vdW  Elec       q    Type
REMARK                         _______ _______ _______ _____ _____    ______ ____
ROOT
ATOM      1  C   LIG    1        2.354   4.108   0.029  0.00  0.00    +0.120 A 
ATOM      2  C   LIG    1        3.540   3.392   0.016  0.00  0.00    -0.020 A 
ATOM      3  C   LIG    1        4.746   4.049   0.181  0.00  0.00    +0.090 A 
ATOM      4  C   LIG    1        4.771   5.418   0.371  0.00  0.00    -0.180 A 
ATOM      5  C   LIG    1        3.592   6.139   0.391  0.00  0.00    +0.120 A 
ATOM      6  C   LIG    1        2.379   5.488   0.221  0.00  0.00    +0.150 A 
ENDROOT
BRANCH   4   7
ATOM      7  C   LIG    1        6.088   6.127   0.556  0.00  0.00    +0.510 C 
ATOM      8  F   LIG    1        5.989   7.431   0.061  0.00  0.00    -0.170 F 
ATOM      9  F   LIG    1        7.090   5.439  -0.139  0.00  0.00    -0.180 F 
ATOM     10  F   LIG    1        6.409   6.167   1.917  0.00  0.00    -0.180 F 
ENDBRANCH   4   7
BRANCH   6  11
ATOM     11  N   LIG    1        1.183   6.216   0.240  0.00  0.00    -0.600 N 
ATOM     12  H   LIG    1        0.332   5.751   0.246  0.00  0.00    +0.440 HD
BRANCH  11  13
ATOM     13  C   LIG    1        1.215   7.593   0.251  0.00  0.00    +0.500 A 
ATOM     14  N   LIG    1        2.301   8.317   0.345  0.00  0.00    -0.520 NA
ATOM     15  C   LIG    1        1.952   9.633   0.321  0.00  0.00    +0.050 A 
ATOM     16  C   LIG    1        2.676  10.823   0.384  0.00  0.00    +0.070 A 
ATOM     17  C   LIG    1        2.013  12.030   0.339  0.00  0.00    +0.030 A 
ATOM     18  C   LIG    1        0.632  12.068   0.232  0.00  0.00    +0.040 A 
ATOM     19  C   LIG    1       -0.097  10.897   0.168  0.00  0.00    +0.060 A 
ATOM     20  C   LIG    1        0.553   9.675   0.212  0.00  0.00    -0.000 A 
ATOM     21  O   LIG    1        0.134   8.389   0.172  0.00  0.00    -0.220 OA
ENDBRANCH  11  13
ENDBRANCH   6  11
BRANCH   1  22
ATOM     22  O   LIG    1        1.168   3.464  -0.139  0.00  0.00    -0.250 OA
BRANCH  22  27
ATOM     23  C   LIG    1        1.500  -0.027   0.843  0.00  0.00    +0.150 A 
ATOM     24  C   LIG    1        1.211  -0.658  -0.358  0.00  0.00    -0.060 A 
ATOM     25  C   LIG    1        0.908   0.091  -1.480  0.00  0.00    +0.080 A 
ATOM     26  C   LIG    1        0.893   1.471  -1.408  0.00  0.00    -0.010 A 
ATOM     27  C   LIG    1        1.183   2.107  -0.209  0.00  0.00    +0.120 A 
ATOM     28  C   LIG    1        1.486   1.358   0.917  0.00  0.00    -0.030 A 
BRANCH  23  30
ATOM     29  C   LIG    1        1.793  -2.185   1.795  0.00  0.00    +0.250 C 
ATOM     30  O   LIG    1        1.797  -0.764   1.945  0.00  0.00    -0.310 OA
ENDBRANCH  23  30
ENDBRANCH  22  27
ENDBRANCH   1  22
TORSDOF 6
