REMARK  Name = ZINCpk00000KfKTD.0
REMARK                            x       y       z     vdW  Elec       q    Type
REMARK                         _______ _______ _______ _____ _____    ______ ____
ROOT
ATOM      1  O   LIG    1        1.274   1.850   2.961  0.00  0.00    -0.580 OA
ATOM      2  C   LIG    1        0.799   2.897   2.567  0.00  0.00    +0.710 C 
ATOM      3  N   LIG    1       -0.235   2.885   1.703  0.00  0.00    -0.740 N 
ATOM      4  H   LIG    1       -0.614   3.721   1.388  0.00  0.00    +0.400 HD
ATOM      5  N   LIG    1        1.308   4.071   2.993  0.00  0.00    -0.740 N 
ATOM      6  H   LIG    1        0.929   4.906   2.678  0.00  0.00    +0.400 HD
ENDROOT
BRANCH   3   7
ATOM      7  C   LIG    1       -0.787   1.610   1.239  0.00  0.00    +0.280 C 
ATOM      8  C   LIG    1       -0.013   1.086   0.008  0.00  0.00    +0.060 C 
ATOM      9  C   LIG    1       -0.793   1.611  -1.176  0.00  0.00    +0.520 C 
ATOM     10  N   LIG    1       -2.016   2.009  -0.784  0.00  0.00    -0.600 N 
ATOM     11  O   LIG    1       -0.377   1.667  -2.314  0.00  0.00    -0.520 OA
ATOM     12  C   LIG    1       -2.209   1.800   0.655  0.00  0.00    +0.280 C 
BRANCH  10  13
ATOM     13  C   LIG    1       -3.027   2.577  -1.680  0.00  0.00    +0.210 C 
ATOM     14  C   LIG    1       -2.743   2.537  -3.183  0.00  0.00    +0.040 C 
ATOM     15  C   LIG    1       -2.668   3.864  -2.425  0.00  0.00    +0.000 C 
ENDBRANCH  10  13
ENDBRANCH   3   7
BRANCH   5  16
ATOM     16  C   LIG    1        2.432   4.084   3.932  0.00  0.00    +0.340 C 
BRANCH  16  17
ATOM     17  C   LIG    1        2.807   5.509   4.247  0.00  0.00    -0.090 A 
ATOM     18  C   LIG    1        3.750   6.162   3.475  0.00  0.00    +0.020 A 
ATOM     19  C   LIG    1        4.092   7.472   3.758  0.00  0.00    +0.050 A 
ATOM     20  C   LIG    1        3.501   8.128   4.819  0.00  0.00    +0.000 A 
ATOM     21  C   LIG    1        2.557   7.473   5.599  0.00  0.00    +0.160 A 
ATOM     22  C   LIG    1        2.211   6.160   5.309  0.00  0.00    +0.040 A 
BRANCH  21  23
ATOM     23  N   LIG    1        1.954   8.137   6.677  0.00  0.00    -0.330 N 
ATOM     24  C   LIG    1        2.198   9.409   7.065  0.00  0.00    +0.230 A 
ATOM     25  C   LIG    1        1.417   9.668   8.139  0.00  0.00    -0.100 A 
ATOM     26  C   LIG    1        0.671   8.518   8.417  0.00  0.00    +0.250 A 
ATOM     27  N   LIG    1        0.987   7.602   7.538  0.00  0.00    -0.290 NA
ENDBRANCH  21  23
ENDBRANCH  16  17
ENDBRANCH   5  16
TORSDOF 5
