REMARK  Name = ZINCkj000005hs9h.0
REMARK                            x       y       z     vdW  Elec       q    Type
REMARK                         _______ _______ _______ _____ _____    ______ ____
ROOT
ATOM      1  C   LIG    1        6.843   5.514   2.239  0.00  0.00    +0.000 C 
ATOM      2  C   LIG    1        6.481   4.984   0.848  0.00  0.00    +0.090 C 
ATOM      3  C   LIG    1        5.180   4.183   0.935  0.00  0.00    +0.260 C 
ATOM      4  N   LIG    1        4.101   5.049   1.426  0.00  0.00    -0.380 N 
ATOM      5  C   LIG    1        4.408   5.501   2.788  0.00  0.00    +0.270 C 
ATOM      6  H   LIG    1        4.011   5.850   0.819  0.00  0.00    +0.430 HD
ATOM      7  C   LIG    1        5.679   6.354   2.772  0.00  0.00    +0.080 C 
ENDROOT
BRANCH   1  11
ATOM      8  C   LIG    1        9.789   7.774   3.166  0.00  0.00    +0.300 C 
ATOM      9  N   LIG    1        8.586   6.944   3.256  0.00  0.00    -0.730 N 
ATOM     10  H   LIG    1        8.153   6.808   4.113  0.00  0.00    +0.400 HD
ATOM     11  C   LIG    1        8.081   6.368   2.147  0.00  0.00    +0.510 C 
ATOM     12  O   LIG    1        8.622   6.538   1.075  0.00  0.00    -0.520 OA
ENDBRANCH   1  11
BRANCH   4  13
ATOM     13  C   LIG    1        2.839   4.298   1.434  0.00  0.00    +0.240 C 
BRANCH  13  14
ATOM     14  C   LIG    1        2.451   3.936  -0.001  0.00  0.00    +0.270 C 
BRANCH  14  15
ATOM     15  C   LIG    1        1.156   3.166   0.007  0.00  0.00    -0.160 A 
ATOM     16  C   LIG    1        1.175   1.783   0.000  0.00  0.00    +0.070 A 
ATOM     17  C   LIG    1       -0.013   1.076   0.008  0.00  0.00    +0.000 A 
ATOM     18  C   LIG    1       -1.221   1.752   0.017  0.00  0.00    +0.120 A 
ATOM     19  C   LIG    1       -1.238   3.136   0.030  0.00  0.00    +0.000 A 
ATOM     20  F   LIG    1       -2.382   1.062   0.019  0.00  0.00    -0.130 F 
ATOM     21  C   LIG    1       -0.050   3.842   0.022  0.00  0.00    +0.050 A 
ENDBRANCH  14  15
BRANCH  14  22
ATOM     22  O   LIG    1        2.290   5.132  -0.767  0.00  0.00    -0.550 OA
ATOM     23  H   LIG    1        1.606   5.726  -0.428  0.00  0.00    +0.390 HD
ENDBRANCH  14  22
ENDBRANCH  13  14
ENDBRANCH   4  13
TORSDOF 5
