REMARK  Name = ZINCqH0000004GqA.0
REMARK                            x       y       z     vdW  Elec       q    Type
REMARK                         _______ _______ _______ _____ _____    ______ ____
ROOT
ATOM      1  C   LIG    1        1.412   4.460  -0.040  0.00  0.00    +0.340 C 
ATOM      2  C   LIG    1        1.533   5.093  -1.399  0.00  0.00    +0.040 C 
ATOM      3  C   LIG    1        2.928   5.718  -1.558  0.00  0.00    +0.020 C 
ATOM      4  C   LIG    1        3.036   7.021  -0.894  0.00  0.00    +0.010 C 
ATOM      5  C   LIG    1        2.838   6.922   0.627  0.00  0.00    +0.020 C 
ATOM      6  C   LIG    1        1.370   6.831   0.943  0.00  0.00    +0.270 C 
ATOM      7  N   LIG    1        0.904   5.424   0.966  0.00  0.00    -0.610 N 
ATOM      8  C   LIG    1        0.019   5.021   1.899  0.00  0.00    +0.600 C 
ATOM      9  O   LIG    1       -0.355   3.863   1.923  0.00  0.00    -0.480 OA
ENDROOT
BRANCH   1  13
ATOM     10  C   LIG    1       -1.392   2.127  -0.201  0.00  0.00    +0.000 A 
ATOM     11  C   LIG    1       -0.378   1.247  -0.278  0.00  0.00    -0.070 A 
ATOM     12  C   LIG    1        0.820   1.997  -0.232  0.00  0.00    -0.070 A 
ATOM     13  C   LIG    1        0.465   3.290  -0.123  0.00  0.00    +0.010 A 
ATOM     14  O   LIG    1       -0.876   3.363  -0.102  0.00  0.00    -0.150 OA
BRANCH  10  16
ATOM     15  C   LIG    1       -3.347   1.553   1.213  0.00  0.00    +0.030 C 
ATOM     16  C   LIG    1       -2.860   1.784  -0.219  0.00  0.00    +0.130 C 
ENDBRANCH  10  16
ENDBRANCH   1  13
BRANCH   8  17
ATOM     17  C   LIG    1       -0.492   5.978   2.886  0.00  0.00    -0.050 A 
ATOM     18  C   LIG    1       -1.280   5.678   3.960  0.00  0.00    +0.050 A 
ATOM     19  C   LIG    1       -1.528   6.888   4.628  0.00  0.00    -0.010 A 
ATOM     20  C   LIG    1       -0.889   7.860   3.941  0.00  0.00    -0.010 A 
ATOM     21  O   LIG    1       -0.261   7.307   2.895  0.00  0.00    -0.150 OA
BRANCH  20  22
ATOM     22  C   LIG    1       -0.879   9.325   4.296  0.00  0.00    -0.230 C 
BRANCH  22  23
ATOM     23  S   LIG    1        0.521   9.671   5.397  0.00  0.00    +2.420 S 
ATOM     24  O   LIG    1        1.727   9.451   4.678  0.00  0.00    -0.920 OA
ATOM     25  O   LIG    1        0.311   8.988   6.625  0.00  0.00    -0.920 OA
ATOM     26  C   LIG    1        0.338  11.452   5.687  0.00  0.00    -0.250 C 
ENDBRANCH  22  23
ENDBRANCH  20  22
ENDBRANCH   8  17
TORSDOF 5
