REMARK  Name = ZINCrg000000rFRM.0
REMARK                            x       y       z     vdW  Elec       q    Type
REMARK                         _______ _______ _______ _____ _____    ______ ____
ROOT
ATOM      1  N   LIG    1       -2.266   3.786   5.822  0.00  0.00    -0.720 N 
ATOM      2  H   LIG    1       -1.486   4.250   5.479  0.00  0.00    +0.400 HD
ATOM      3  C   LIG    1       -2.545   3.818   7.140  0.00  0.00    +0.560 C 
ATOM      4  O   LIG    1       -3.522   3.236   7.569  0.00  0.00    -0.520 OA
ENDROOT
BRANCH   3   5
ATOM      5  C   LIG    1       -1.661   4.559   8.065  0.00  0.00    -0.160 A 
ATOM      6  C   LIG    1       -0.534   5.223   7.576  0.00  0.00    +0.100 A 
ATOM      7  C   LIG    1        0.283   5.917   8.444  0.00  0.00    +0.000 A 
ATOM      8  C   LIG    1       -0.005   5.947   9.797  0.00  0.00    +0.160 A 
ATOM      9  C   LIG    1       -1.117   5.287  10.288  0.00  0.00    -0.690 A 
ATOM     10  C   LIG    1       -1.946   4.593   9.431  0.00  0.00    +0.190 A 
BRANCH   9  11
ATOM     11  S   LIG    1       -1.476   5.331  12.013  0.00  0.00    +2.690 S 
ATOM     12  O   LIG    1       -2.869   5.084  12.139  0.00  0.00    -0.950 OA
ATOM     13  O   LIG    1       -0.843   6.497  12.524  0.00  0.00    -0.950 OA
BRANCH  11  14
ATOM     14  N   LIG    1       -0.707   4.040  12.707  0.00  0.00    -1.000 NA
ATOM     15  C   LIG    1       -1.395   2.751  12.819  0.00  0.00    +0.300 C 
ATOM     16  C   LIG    1        0.662   4.185  13.209  0.00  0.00    +0.300 C 
ENDBRANCH  11  14
ENDBRANCH   9  11
ENDBRANCH   3   5
BRANCH   1  18
ATOM     17  C   LIG    1       -4.310   3.947   4.488  0.00  0.00    +0.040 C 
ATOM     18  C   LIG    1       -3.142   3.052   4.905  0.00  0.00    +0.290 C 
BRANCH  18  19
ATOM     19  C   LIG    1       -2.361   2.643   3.683  0.00  0.00    -0.040 A 
ATOM     20  C   LIG    1       -2.559   1.395   3.122  0.00  0.00    +0.010 A 
ATOM     21  C   LIG    1       -1.843   1.021   2.000  0.00  0.00    +0.140 A 
ATOM     22  C   LIG    1       -0.930   1.894   1.440  0.00  0.00    -0.680 A 
ATOM     23  C   LIG    1       -0.728   3.140   2.004  0.00  0.00    +0.130 A 
ATOM     24  C   LIG    1       -1.447   3.516   3.123  0.00  0.00    -0.010 A 
BRANCH  22  25
ATOM     25  S   LIG    1       -0.017   1.417   0.010  0.00  0.00    +2.700 S 
ATOM     26  O   LIG    1        1.162   2.210   0.003  0.00  0.00    -0.960 OA
ATOM     27  O   LIG    1        0.002  -0.004   0.002  0.00  0.00    -0.960 OA
BRANCH  25  28
ATOM     28  N   LIG    1       -0.900   1.880  -1.312  0.00  0.00    -1.240 NA
ATOM     29  H   LIG    1       -1.118   2.815  -1.446  0.00  0.00    +0.420 HD
ATOM     30  H   LIG    1       -1.199   1.215  -1.953  0.00  0.00    +0.420 HD
ENDBRANCH  25  28
ENDBRANCH  22  25
ENDBRANCH  18  19
ENDBRANCH   1  18
TORSDOF 7
