REMARK  Name = ZINCrH000004ndDW.0
REMARK                            x       y       z     vdW  Elec       q    Type
REMARK                         _______ _______ _______ _____ _____    ______ ____
ROOT
ATOM      1  C   LIG    1        4.361   5.646  -0.007  0.00  0.00    +0.260 A 
ATOM      2  N   LIG    1        4.802   4.399  -0.013  0.00  0.00    -0.460 NA
ATOM      3  C   LIG    1        3.697   3.625  -0.012  0.00  0.00    +0.250 A 
ATOM      4  N   LIG    1        2.659   4.425   0.003  0.00  0.00    -0.380 NA
ATOM      5  O   LIG    1        3.019   5.583   0.006  0.00  0.00    +0.080 OA
ENDROOT
BRANCH   3   6
ATOM      6  C   LIG    1        3.663   2.144  -0.021  0.00  0.00    -0.120 A 
ATOM      7  C   LIG    1        4.816   1.431  -0.036  0.00  0.00    +0.360 A 
ATOM      8  N   LIG    1        4.828   0.071  -0.044  0.00  0.00    -0.620 N 
ATOM      9  H   LIG    1        5.683  -0.389  -0.056  0.00  0.00    +0.420 HD
ATOM     10  C   LIG    1        3.698  -0.662  -0.037  0.00  0.00    +0.550 A 
ATOM     11  C   LIG    1        2.397   0.017  -0.021  0.00  0.00    -0.150 A 
ATOM     12  C   LIG    1        1.196  -0.692  -0.014  0.00  0.00    +0.090 A 
ATOM     13  C   LIG    1        0.002  -0.004   0.002  0.00  0.00    +0.000 A 
ATOM     14  C   LIG    1       -0.017   1.384   0.010  0.00  0.00    +0.050 A 
ATOM     15  C   LIG    1        1.158   2.104   0.002  0.00  0.00    +0.020 A 
ATOM     16  O   LIG    1        3.755  -1.878  -0.044  0.00  0.00    -0.510 OA
ATOM     17  C   LIG    1        2.377   1.429  -0.013  0.00  0.00    +0.020 A 
ENDBRANCH   3   6
BRANCH   1  23
ATOM     18  C   LIG    1        7.089  11.028  -0.000  0.00  0.00    +0.170 A 
ATOM     19  C   LIG    1        8.252  10.260  -0.016  0.00  0.00    -0.090 A 
ATOM     20  C   LIG    1        8.184   8.898  -0.024  0.00  0.00    +0.120 A 
ATOM     21  C   LIG    1        6.936   8.262  -0.016  0.00  0.00    -0.150 A 
ATOM     22  C   LIG    1        6.539   6.902  -0.014  0.00  0.00    +0.080 A 
ATOM     23  C   LIG    1        5.181   6.866  -0.007  0.00  0.00    +0.100 A 
ATOM     24  N   LIG    1        4.694   8.159   0.005  0.00  0.00    -0.580 N 
ATOM     25  H   LIG    1        3.757   8.409   0.016  0.00  0.00    +0.430 HD
ATOM     26  C   LIG    1        5.757   9.033   0.001  0.00  0.00    +0.160 A 
ATOM     27  C   LIG    1        5.847  10.421   0.008  0.00  0.00    -0.050 A 
BRANCH  18  29
ATOM     28  C   LIG    1        8.489  12.950  -0.002  0.00  0.00    +0.250 C 
ATOM     29  O   LIG    1        7.177  12.384   0.007  0.00  0.00    -0.310 OA
ENDBRANCH  18  29
ENDBRANCH   1  23
TORSDOF 3
