REMARK  Name = ZINCtV000002M6Wu.0
REMARK                            x       y       z     vdW  Elec       q    Type
REMARK                         _______ _______ _______ _____ _____    ______ ____
ROOT
ATOM      1  O   LIG    1       -1.217  -0.820  -0.098  0.00  0.00    -0.480 OA
ATOM      2  C   LIG    1       -2.302  -0.287  -0.093  0.00  0.00    +0.460 C 
ENDROOT
BRANCH   2   3
ATOM      3  O   LIG    1       -2.394   1.047   0.019  0.00  0.00    -0.290 OA
BRANCH   3   4
ATOM      4  C   LIG    1       -1.230   1.750   0.001  0.00  0.00    +0.070 A 
ATOM      5  C   LIG    1       -0.491   1.835  -1.166  0.00  0.00    +0.060 A 
ATOM      6  C   LIG    1        0.702   2.550  -1.175  0.00  0.00    -0.100 A 
ATOM      7  C   LIG    1        1.153   3.188  -0.012  0.00  0.00    +0.090 A 
ATOM      8  O   LIG    1        2.323   3.806  -0.288  0.00  0.00    -0.200 OA
ATOM      9  C   LIG    1        2.691   3.621  -1.575  0.00  0.00    +0.080 A 
ATOM     10  C   LIG    1        3.792   4.053  -2.305  0.00  0.00    +0.030 A 
ATOM     11  C   LIG    1        3.917   3.710  -3.635  0.00  0.00    +0.060 A 
ATOM     12  C   LIG    1        2.953   2.934  -4.257  0.00  0.00    +0.000 A 
ATOM     13  C   LIG    1        1.854   2.495  -3.549  0.00  0.00    +0.070 A 
ATOM     14  C   LIG    1        0.395   3.099   1.150  0.00  0.00    +0.050 A 
ATOM     15  C   LIG    1        1.717   2.835  -2.207  0.00  0.00    -0.120 A 
ATOM     16  C   LIG    1       -0.785   2.388   1.154  0.00  0.00    +0.070 A 
ENDBRANCH   3   4
ENDBRANCH   2   3
BRANCH   2  17
ATOM     17  C   LIG    1       -3.551  -1.121  -0.212  0.00  0.00    +0.140 C 
BRANCH  17  18
ATOM     18  C   LIG    1       -3.169  -2.599  -0.325  0.00  0.00    +0.080 C 
BRANCH  18  19
ATOM     19  C   LIG    1       -4.438  -3.446  -0.446  0.00  0.00    +0.090 C 
BRANCH  19  20
ATOM     20  S   LIG    1       -3.986  -5.193  -0.580  0.00  0.00    +0.020 S 
BRANCH  20  21
ATOM     21  C   LIG    1       -5.589  -5.915  -0.703  0.00  0.00    +0.080 A 
ATOM     22  N   LIG    1       -6.697  -5.256  -0.682  0.00  0.00    -0.470 NA
ATOM     23  C   LIG    1       -7.846  -5.952  -0.790  0.00  0.00    +0.090 A 
ATOM     24  C   LIG    1       -9.172  -5.470  -0.798  0.00  0.00    +0.070 A 
ATOM     25  C   LIG    1      -10.227  -6.340  -0.912  0.00  0.00    +0.040 A 
ATOM     26  C   LIG    1      -10.008  -7.705  -1.022  0.00  0.00    +0.040 A 
ATOM     27  C   LIG    1       -8.721  -8.198  -1.017  0.00  0.00    +0.060 A 
ATOM     28  C   LIG    1       -7.639  -7.330  -0.902  0.00  0.00    -0.170 A 
ATOM     29  S   LIG    1       -5.904  -7.637  -0.863  0.00  0.00    +0.110 S 
ENDBRANCH  20  21
ENDBRANCH  19  20
ENDBRANCH  18  19
ENDBRANCH  17  18
ENDBRANCH   2  17
TORSDOF 7
