REMARK  Name = ZINCah0000002lwR.0
REMARK                            x       y       z     vdW  Elec       q    Type
REMARK                         _______ _______ _______ _____ _____    ______ ____
ROOT
ATOM      1  C   LIG    1       -2.195   1.080   1.226  0.00  0.00    -0.060 C 
ATOM      2  C   LIG    1       -0.774   1.608   1.453  0.00  0.00    +0.010 C 
ATOM      3  C   LIG    1        0.120   1.155   0.295  0.00  0.00    +0.200 C 
ATOM      4  O   LIG    1       -0.426   1.626  -0.939  0.00  0.00    -0.380 OA
ATOM      5  C   LIG    1       -1.734   1.127  -1.226  0.00  0.00    +0.200 C 
ATOM      6  C   LIG    1       -2.703   1.578  -0.131  0.00  0.00    +0.000 C 
ENDROOT
BRANCH   1   8
ATOM      7  C   LIG    1       -3.601  -0.976   1.027  0.00  0.00    +0.010 C 
ATOM      8  C   LIG    1       -2.180  -0.450   1.236  0.00  0.00    +0.020 C 
ENDBRANCH   1   8
BRANCH   1   9
ATOM      9  C   LIG    1       -3.114   1.592   2.336  0.00  0.00    +0.180 C 
BRANCH   9  10
ATOM     10  O   LIG    1       -2.712   1.028   3.586  0.00  0.00    -0.570 OA
ATOM     11  H   LIG    1       -3.253   1.309   4.337  0.00  0.00    +0.380 HD
ENDBRANCH   9  10
ENDBRANCH   1   9
TORSDOF 3
