REMARK  Name = ZINCvU0000000J7o.0
REMARK                            x       y       z     vdW  Elec       q    Type
REMARK                         _______ _______ _______ _____ _____    ______ ____
ROOT
ATOM      1  N   LIG    1        2.312   4.788  -1.246  0.00  0.00    -0.730 N 
ATOM      2  H   LIG    1        2.473   3.973  -1.746  0.00  0.00    +0.400 HD
ATOM      3  C   LIG    1        2.777   5.966  -1.708  0.00  0.00    +0.700 C 
ATOM      4  N   LIG    1        3.465   6.011  -2.866  0.00  0.00    -0.640 N 
ATOM      5  H   LIG    1        3.626   5.196  -3.367  0.00  0.00    +0.420 HD
ATOM      6  O   LIG    1        2.575   6.987  -1.081  0.00  0.00    -0.520 OA
ENDROOT
BRANCH   4   7
ATOM      7  C   LIG    1        3.944   7.226  -3.343  0.00  0.00    +0.280 A 
ATOM      8  N   LIG    1        3.785   8.369  -2.754  0.00  0.00    -0.470 NA
ATOM      9  C   LIG    1        4.308   9.425  -3.349  0.00  0.00    +0.250 A 
ATOM     10  C   LIG    1        4.938   9.162  -4.494  0.00  0.00    -0.240 A 
ATOM     11  S   LIG    1        4.834   7.428  -4.788  0.00  0.00    +0.120 S 
BRANCH  10  12
ATOM     12  C   LIG    1        5.625  10.170  -5.379  0.00  0.00    +0.140 C 
BRANCH  12  13
ATOM     13  C   LIG    1        7.088  10.308  -4.955  0.00  0.00    +0.070 C 
BRANCH  13  14
ATOM     14  C   LIG    1        7.775  11.316  -5.840  0.00  0.00    -0.080 A 
ATOM     15  C   LIG    1        8.398  10.904  -7.003  0.00  0.00    +0.000 A 
ATOM     16  C   LIG    1        9.024  11.829  -7.817  0.00  0.00    +0.000 A 
ATOM     17  C   LIG    1        9.036  13.165  -7.463  0.00  0.00    +0.000 A 
ATOM     18  C   LIG    1        8.417  13.577  -6.297  0.00  0.00    +0.000 A 
ATOM     19  C   LIG    1        7.787  12.652  -5.485  0.00  0.00    +0.000 A 
ENDBRANCH  13  14
ENDBRANCH  12  13
ENDBRANCH  10  12
ENDBRANCH   4   7
BRANCH   1  20
ATOM     20  C   LIG    1        1.565   4.739   0.013  0.00  0.00    +0.360 C 
BRANCH  20  21
ATOM     21  C   LIG    1        0.663   3.531   0.015  0.00  0.00    +0.200 A 
ATOM     22  N   LIG    1        1.060   2.290   0.004  0.00  0.00    -0.460 NA
ATOM     23  C   LIG    1       -0.018   1.480   0.010  0.00  0.00    +0.040 A 
ATOM     24  C   LIG    1       -1.126   2.266   0.019  0.00  0.00    +0.160 A 
ATOM     25  N   LIG    1       -0.688   3.561   0.028  0.00  0.00    -0.550 N 
ATOM     26  H   LIG    1       -1.245   4.355   0.037  0.00  0.00    +0.420 HD
BRANCH  23  27
ATOM     27  C   LIG    1        0.002  -0.004   0.002  0.00  0.00    -0.000 A 
ATOM     28  C   LIG    1       -1.194  -0.720   0.015  0.00  0.00    +0.010 A 
ATOM     29  C   LIG    1       -1.169  -2.100   0.002  0.00  0.00    +0.000 A 
ATOM     30  C   LIG    1        0.040  -2.772  -0.013  0.00  0.00    +0.000 A 
ATOM     31  C   LIG    1        1.230  -2.067  -0.020  0.00  0.00    +0.000 A 
ATOM     32  C   LIG    1        1.217  -0.687  -0.013  0.00  0.00    +0.040 A 
ENDBRANCH  23  27
ENDBRANCH  20  21
BRANCH  20  34
ATOM     33  C   LIG    1        3.375   5.928   1.258  0.00  0.00    +0.030 C 
ATOM     34  C   LIG    1        2.544   4.645   1.185  0.00  0.00    +0.030 C 
ENDBRANCH  20  34
ENDBRANCH   1  20
TORSDOF 8
