REMARK  Name = ZINCbu0000001MVE.0
REMARK                            x       y       z     vdW  Elec       q    Type
REMARK                         _______ _______ _______ _____ _____    ______ ____
ROOT
ATOM      1  C   LIG    1       -0.019   1.540   0.011  0.00  0.00    +0.280 C 
ATOM      2  C   LIG    1        0.002  -0.004   0.002  0.00  0.00    +0.080 C 
ATOM      3  C   LIG    1        1.364  -0.383  -0.615  0.00  0.00    +0.070 C 
ATOM      4  C   LIG    1        2.051   0.963  -0.928  0.00  0.00    +0.280 C 
ATOM      5  N   LIG    1        1.413   1.933  -0.001  0.00  0.00    -0.520 N 
ATOM      6  H   LIG    1        1.810   1.851   0.923  0.00  0.00    +0.430 HD
ATOM      7  H   LIG    1        1.518   2.875  -0.349  0.00  0.00    +0.440 HD
ENDROOT
BRANCH   1  12
ATOM      8  C   LIG    1       -3.747   3.416   2.859  0.00  0.00    +0.140 C 
ATOM      9  C   LIG    1       -2.358   2.899   2.584  0.00  0.00    -0.100 A 
ATOM     10  C   LIG    1       -1.423   2.814   3.533  0.00  0.00    +0.010 A 
ATOM     11  S   LIG    1        0.058   2.163   2.843  0.00  0.00    +0.100 S 
ATOM     12  C   LIG    1       -0.694   2.049   1.258  0.00  0.00    -0.270 A 
ATOM     13  C   LIG    1       -1.955   2.477   1.329  0.00  0.00    +0.090 A 
ENDBRANCH   1  12
TORSDOF 1
