REMARK  Name = ZINCrH000004quWd.0
REMARK                            x       y       z     vdW  Elec       q    Type
REMARK                         _______ _______ _______ _____ _____    ______ ____
ROOT
ATOM      1  C   LIG    1        4.680   4.168  -0.265  0.00  0.00    +0.170 C 
ATOM      2  C   LIG    1        5.903   3.649  -1.025  0.00  0.00    +0.030 C 
ENDROOT
BRANCH   1   3
ATOM      3  N   LIG    1        4.436   5.570  -0.630  0.00  0.00    -0.510 NA
ATOM      4  C   LIG    1        3.739   5.665  -1.919  0.00  0.00    +0.170 C 
ATOM      5  C   LIG    1        3.372   7.124  -2.197  0.00  0.00    +0.030 C 
ATOM      6  C   LIG    1        4.649   7.970  -2.222  0.00  0.00    +0.230 C 
ATOM      7  C   LIG    1        5.381   7.816  -0.886  0.00  0.00    +0.030 C 
ATOM      8  C   LIG    1        5.689   6.336  -0.646  0.00  0.00    +0.180 C 
BRANCH   6   9
ATOM      9  N   LIG    1        4.300   9.377  -2.430  0.00  0.00    -0.600 N 
ATOM     10  C   LIG    1        4.845  10.050  -3.602  0.00  0.00    +0.240 C 
ATOM     11  C   LIG    1        4.031  11.307  -3.922  0.00  0.00    +0.010 C 
ATOM     12  C   LIG    1        3.908  12.146  -2.644  0.00  0.00    +0.030 C 
ATOM     13  C   LIG    1        3.033  11.384  -1.647  0.00  0.00    +0.060 C 
ATOM     14  C   LIG    1        3.508   9.964  -1.532  0.00  0.00    +0.510 C 
ATOM     15  O   LIG    1        3.152   9.316  -0.570  0.00  0.00    -0.540 OA
ENDBRANCH   6   9
ENDBRANCH   1   3
BRANCH   1  18
ATOM     16  N   LIG    1        4.788   2.890   1.850  0.00  0.00    -0.680 N 
ATOM     17  H   LIG    1        4.573   2.092   1.343  0.00  0.00    +0.410 HD
ATOM     18  C   LIG    1        4.932   4.072   1.218  0.00  0.00    +0.510 C 
ATOM     19  O   LIG    1        5.264   5.057   1.842  0.00  0.00    -0.480 OA
BRANCH  16  24
ATOM     20  C   LIG    1        5.438   2.588   7.479  0.00  0.00    +0.100 C 
ATOM     21  C   LIG    1        5.265   2.669   5.984  0.00  0.00    -0.080 A 
ATOM     22  C   LIG    1        5.821   1.698   5.172  0.00  0.00    +0.030 A 
ATOM     23  C   LIG    1        5.665   1.768   3.801  0.00  0.00    -0.090 A 
ATOM     24  C   LIG    1        4.948   2.816   3.239  0.00  0.00    +0.150 A 
ATOM     25  C   LIG    1        4.390   3.791   4.058  0.00  0.00    -0.030 A 
ATOM     26 CL   LIG    1        3.494   5.103   3.360  0.00  0.00    -0.030 Cl
ATOM     27  C   LIG    1        6.271   0.709   2.917  0.00  0.00    +0.100 C 
ATOM     28  C   LIG    1        4.551   3.714   5.428  0.00  0.00    +0.030 A 
ENDBRANCH  16  24
ENDBRANCH   1  18
TORSDOF 4
