REMARK  Name = ZINCrH00000No57S.0
REMARK                            x       y       z     vdW  Elec       q    Type
REMARK                         _______ _______ _______ _____ _____    ______ ____
ROOT
ATOM      1  N   LIG    1       -0.761   1.636  -1.141  0.00  0.00    -0.610 N 
ATOM      2  C   LIG    1       -0.512   2.900  -1.540  0.00  0.00    +0.540 C 
ATOM      3  O   LIG    1        0.316   3.570  -0.954  0.00  0.00    -0.510 OA
ENDROOT
BRANCH   2   4
ATOM      4  C   LIG    1       -1.243   3.468  -2.683  0.00  0.00    -0.100 C 
ATOM      5  C   LIG    1       -0.998   4.714  -3.076  0.00  0.00    +0.120 C 
ENDBRANCH   2   4
BRANCH   1   6
ATOM      6  C   LIG    1       -1.758   0.829  -1.847  0.00  0.00    +0.280 C 
BRANCH   6   7
ATOM      7  C   LIG    1       -3.149   1.128  -1.283  0.00  0.00    +0.060 C 
BRANCH   7  11
ATOM      8  C   LIG    1       -6.093  -0.965  -3.565  0.00  0.00    +0.130 A 
ATOM      9  C   LIG    1       -5.592  -1.524  -2.398  0.00  0.00    -0.020 A 
ATOM     10  C   LIG    1       -4.640  -0.846  -1.663  0.00  0.00    +0.060 A 
ATOM     11  C   LIG    1       -4.187   0.390  -2.088  0.00  0.00    -0.120 A 
ATOM     12  C   LIG    1       -4.689   0.951  -3.247  0.00  0.00    +0.060 A 
ATOM     13  C   LIG    1       -5.637   0.274  -3.990  0.00  0.00    -0.080 A 
BRANCH   8  14
ATOM     14  O   LIG    1       -7.030  -1.631  -4.291  0.00  0.00    -0.310 OA
BRANCH  14  15
ATOM     15  C   LIG    1       -7.501  -0.995  -5.481  0.00  0.00    +0.350 C 
BRANCH  15  17
ATOM     16  C   LIG    1       -9.304  -2.539  -6.651  0.00  0.00    +0.080 C 
ATOM     17  C   LIG    1       -8.504  -1.854  -6.132  0.00  0.00    -0.210 C 
ENDBRANCH  15  17
ENDBRANCH  14  15
ENDBRANCH   8  14
ENDBRANCH   7  11
ENDBRANCH   6   7
ENDBRANCH   1   6
BRANCH   1  18
ATOM     18  C   LIG    1       -0.033   1.071  -0.003  0.00  0.00    +0.340 C 
BRANCH  18  19
ATOM     19  C   LIG    1        1.143   0.273  -0.504  0.00  0.00    -0.140 A 
ATOM     20  C   LIG    1        1.048  -1.101  -0.619  0.00  0.00    +0.060 A 
ATOM     21  C   LIG    1        2.124  -1.833  -1.083  0.00  0.00    -0.130 A 
ATOM     22  C   LIG    1        3.302  -1.195  -1.425  0.00  0.00    +0.050 A 
ATOM     23  C   LIG    1        3.404   0.178  -1.307  0.00  0.00    -0.080 A 
ATOM     24  C   LIG    1        2.016  -3.331  -1.213  0.00  0.00    +0.080 C 
ATOM     25  C   LIG    1        2.324   0.916  -0.846  0.00  0.00    +0.140 A 
BRANCH  25  26
ATOM     26  O   LIG    1        2.422   2.266  -0.729  0.00  0.00    -0.280 OA
ATOM     27  C   LIG    1        3.627   2.872  -1.201  0.00  0.00    +0.230 C 
ENDBRANCH  25  26
ENDBRANCH  18  19
ENDBRANCH   1  18
TORSDOF 10
