REMARK  Name = ZINCqH00000381US.0
REMARK                            x       y       z     vdW  Elec       q    Type
REMARK                         _______ _______ _______ _____ _____    ______ ____
ROOT
ATOM      1  C   LIG    1        1.178  -0.662  -0.012  0.00  0.00    +0.510 C 
ATOM      2  N   LIG    1        0.002  -0.004   0.002  0.00  0.00    -0.630 N 
ATOM      3  H   LIG    1       -0.831  -0.500   0.007  0.00  0.00    +0.420 HD
ATOM      4  O   LIG    1        2.220  -0.041  -0.018  0.00  0.00    -0.500 OA
ENDROOT
BRANCH   2   5
ATOM      5  C   LIG    1       -0.017   1.382   0.010  0.00  0.00    +0.040 A 
ATOM      6  C   LIG    1       -1.152   2.144   0.019  0.00  0.00    -0.210 A 
ATOM      7  C   LIG    1       -0.887   3.571   0.030  0.00  0.00    -0.050 A 
ATOM      8  C   LIG    1        0.422   3.847   0.019  0.00  0.00    -0.240 A 
ATOM      9  C   LIG    1        1.001   5.249   0.022  0.00  0.00    +0.120 C 
ATOM     10  C   LIG    1       -0.100   6.236  -0.377  0.00  0.00    +0.020 C 
ATOM     11  C   LIG    1       -1.344   5.968   0.475  0.00  0.00    +0.020 C 
ATOM     12  C   LIG    1       -1.970   4.638   0.046  0.00  0.00    +0.100 C 
ATOM     13  S   LIG    1        1.371   2.369   0.002  0.00  0.00    +0.300 S 
BRANCH   6  14
ATOM     14  C   LIG    1       -2.503   1.575   0.021  0.00  0.00    +0.590 C 
ATOM     15  O   LIG    1       -3.060   1.334   1.076  0.00  0.00    -0.530 OA
ATOM     16  N   LIG    1       -3.129   1.320  -1.145  0.00  0.00    -0.850 N 
ATOM     17  H   LIG    1       -4.023   0.944  -1.144  0.00  0.00    +0.400 HD
ATOM     18  H   LIG    1       -2.685   1.513  -1.986  0.00  0.00    +0.400 HD
ENDBRANCH   6  14
ENDBRANCH   2   5
BRANCH   1  19
ATOM     19  C   LIG    1        1.199  -2.169  -0.021  0.00  0.00    +0.100 C 
BRANCH  19  20
ATOM     20  C   LIG    1        2.648  -2.659  -0.036  0.00  0.00    +0.210 C 
BRANCH  20  21
ATOM     21  O   LIG    1        2.667  -4.088  -0.044  0.00  0.00    -0.310 OA
BRANCH  21  27
ATOM     22  C   LIG    1        7.532  -3.695  -0.087  0.00  0.00    +0.090 C 
ATOM     23  C   LIG    1        6.278  -4.531  -0.080  0.00  0.00    -0.050 A 
ATOM     24  C   LIG    1        6.368  -5.911  -0.088  0.00  0.00    -0.030 A 
ATOM     25  C   LIG    1        5.219  -6.681  -0.081  0.00  0.00    +0.050 A 
ATOM     26  C   LIG    1        3.979  -6.073  -0.061  0.00  0.00    -0.120 A 
ATOM     27  C   LIG    1        3.886  -4.688  -0.059  0.00  0.00    +0.130 A 
ATOM     28  C   LIG    1        2.728  -6.913  -0.047  0.00  0.00    +0.100 C 
ATOM     29  C   LIG    1        5.040  -3.918  -0.065  0.00  0.00    -0.070 A 
ENDBRANCH  21  27
ENDBRANCH  20  21
ENDBRANCH  19  20
ENDBRANCH   1  19
TORSDOF 6
