REMARK  Name = ZINCpk00000FbjyX.0
REMARK                            x       y       z     vdW  Elec       q    Type
REMARK                         _______ _______ _______ _____ _____    ______ ____
ROOT
ATOM      1  C   LIG    1       -1.230   3.120   1.153  0.00  0.00    +0.250 C 
ATOM      2  C   LIG    1       -1.288   2.084   0.019  0.00  0.00    +0.310 C 
ATOM      3  N   LIG    1       -0.016   1.344   0.009  0.00  0.00    -0.610 N 
ATOM      4  C   LIG    1        1.235   2.118   0.002  0.00  0.00    +0.250 C 
ATOM      5  C   LIG    1        1.170   3.153   1.131  0.00  0.00    +0.230 C 
ATOM      6  C   LIG    1        0.002  -0.004   0.002  0.00  0.00    +0.520 C 
ATOM      7  O   LIG    1       -1.040  -0.625   0.009  0.00  0.00    -0.500 OA
ATOM      8  O   LIG    1       -0.042   3.903   1.013  0.00  0.00    -0.360 OA
ENDROOT
BRANCH   6   9
ATOM      9  C   LIG    1        1.317  -0.740  -0.015  0.00  0.00    +0.180 C 
ATOM     10  C   LIG    1        2.078  -0.532   1.316  0.00  0.00    +0.110 C 
ATOM     11  C   LIG    1        2.731  -1.885   1.519  0.00  0.00    -0.150 A 
ATOM     12  C   LIG    1        3.752  -2.305   2.343  0.00  0.00    +0.060 A 
ATOM     13  C   LIG    1        4.162  -3.627   2.319  0.00  0.00    +0.030 A 
ATOM     14  C   LIG    1        3.543  -4.522   1.467  0.00  0.00    +0.030 A 
ATOM     15  C   LIG    1        2.516  -4.105   0.643  0.00  0.00    +0.090 A 
ATOM     16  F   LIG    1        1.917  -4.987  -0.187  0.00  0.00    -0.130 F 
ATOM     17  C   LIG    1        2.096  -2.776   0.664  0.00  0.00    +0.070 A 
ATOM     18  O   LIG    1        1.105  -2.161  -0.045  0.00  0.00    -0.260 OA
ENDBRANCH   6   9
BRANCH   1  22
ATOM     19  C   LIG    1       -4.237   5.121   1.555  0.00  0.00    +0.190 A 
ATOM     20  N   LIG    1       -3.891   5.364   0.320  0.00  0.00    -0.290 NA
ATOM     21  N   LIG    1       -2.821   4.709   0.034  0.00  0.00    -0.260 NA
ATOM     22  C   LIG    1       -2.437   4.020   1.074  0.00  0.00    +0.170 A 
ATOM     23  N   LIG    1       -3.328   4.257   2.067  0.00  0.00    -0.570 N 
ATOM     24  H   LIG    1       -3.315   3.886   2.963  0.00  0.00    +0.430 HD
BRANCH  19  26
ATOM     25  C   LIG    1       -5.389   7.219   2.202  0.00  0.00    +0.050 C 
ATOM     26  C   LIG    1       -5.431   5.692   2.276  0.00  0.00    +0.140 C 
ENDBRANCH  19  26
ENDBRANCH   1  22
TORSDOF 3
