REMARK  Name = ZINCpk00000FbjyX.1
REMARK                            x       y       z     vdW  Elec       q    Type
REMARK                         _______ _______ _______ _____ _____    ______ ____
ROOT
ATOM      1  C   LIG    1        4.392   3.289   1.595  0.00  0.00    +0.280 C 
ATOM      2  C   LIG    1        5.470   2.206   1.722  0.00  0.00    +0.290 C 
ATOM      3  N   LIG    1        6.605   2.767   2.473  0.00  0.00    -0.610 N 
ATOM      4  C   LIG    1        7.152   4.060   2.034  0.00  0.00    +0.250 C 
ATOM      5  C   LIG    1        5.993   5.053   1.892  0.00  0.00    +0.230 C 
ATOM      6  C   LIG    1        7.127   2.115   3.530  0.00  0.00    +0.520 C 
ATOM      7  O   LIG    1        6.661   1.050   3.876  0.00  0.00    -0.500 OA
ATOM      8  O   LIG    1        4.980   4.479   1.063  0.00  0.00    -0.360 OA
ENDROOT
BRANCH   6   9
ATOM      9  C   LIG    1        8.290   2.709   4.282  0.00  0.00    +0.180 C 
ATOM     10  C   LIG    1        7.861   3.996   5.026  0.00  0.00    +0.110 C 
ATOM     11  C   LIG    1        8.672   3.904   6.304  0.00  0.00    -0.150 A 
ATOM     12  C   LIG    1        8.979   4.835   7.273  0.00  0.00    +0.060 A 
ATOM     13  C   LIG    1        9.764   4.474   8.355  0.00  0.00    +0.030 A 
ATOM     14  C   LIG    1       10.236   3.179   8.459  0.00  0.00    +0.030 A 
ATOM     15  C   LIG    1        9.927   2.244   7.492  0.00  0.00    +0.090 A 
ATOM     16  F   LIG    1       10.393   0.981   7.602  0.00  0.00    -0.130 F 
ATOM     17  C   LIG    1        9.134   2.599   6.400  0.00  0.00    +0.070 A 
ATOM     18  O   LIG    1        8.702   1.841   5.352  0.00  0.00    -0.260 OA
ENDBRANCH   6   9
BRANCH   1  21
ATOM     19  C   LIG    1        1.395   2.047  -0.000  0.00  0.00    +0.290 A 
ATOM     20  N   LIG    1        2.092   2.399   1.050  0.00  0.00    -0.530 NA
ATOM     21  C   LIG    1        3.302   2.809   0.672  0.00  0.00    +0.230 A 
ATOM     22  N   LIG    1        3.389   2.732  -0.630  0.00  0.00    -0.280 NA
ATOM     23  N   LIG    1        2.158   2.238  -1.091  0.00  0.00    -0.480 N 
ATOM     24  H   LIG    1        1.908   2.068  -2.012  0.00  0.00    +0.440 HD
BRANCH  19  26
ATOM     25  C   LIG    1        0.002  -0.004   0.002  0.00  0.00    +0.050 C 
ATOM     26  C   LIG    1       -0.019   1.526   0.010  0.00  0.00    +0.150 C 
ENDBRANCH  19  26
ENDBRANCH   1  21
TORSDOF 3
