REMARK  Name = ZINCrH00000No576.0
REMARK                            x       y       z     vdW  Elec       q    Type
REMARK                         _______ _______ _______ _____ _____    ______ ____
ROOT
ATOM      1  C   LIG    1       -4.266  -0.689   1.520  0.00  0.00    +0.260 A 
ATOM      2  C   LIG    1       -4.936  -0.820   2.723  0.00  0.00    +0.060 A 
ATOM      3  N   LIG    1       -6.116  -1.416   2.478  0.00  0.00    -0.410 NA
ATOM      4  C   LIG    1       -6.214  -1.671   1.184  0.00  0.00    +0.150 A 
ATOM      5  C   LIG    1       -7.224  -2.277   0.409  0.00  0.00    +0.210 A 
ATOM      6  C   LIG    1       -7.042  -2.408  -0.932  0.00  0.00    -0.010 A 
ATOM      7  C   LIG    1       -5.863  -1.943  -1.534  0.00  0.00    +0.210 A 
ATOM      8  N   LIG    1       -4.923  -1.380  -0.823  0.00  0.00    -0.260 NA
ATOM      9 CL   LIG    1       -5.650  -2.118  -3.248  0.00  0.00    +0.030 Cl
ATOM     10  N   LIG    1       -5.069  -1.226   0.560  0.00  0.00    -0.290 N 
ENDROOT
BRANCH   2  11
ATOM     11  C   LIG    1       -4.442  -0.379   4.046  0.00  0.00    +0.160 A 
ATOM     12  N   LIG    1       -3.202  -0.672   4.428  0.00  0.00    -0.410 NA
ATOM     13  C   LIG    1       -2.764  -0.271   5.608  0.00  0.00    +0.210 A 
ATOM     14  C   LIG    1       -3.596   0.443   6.451  0.00  0.00    +0.230 A 
ATOM     15  N   LIG    1       -4.832   0.733   6.080  0.00  0.00    -0.440 NA
ATOM     16  C   LIG    1       -5.278   0.342   4.902  0.00  0.00    +0.110 A 
ATOM     17  C   LIG    1       -6.686   0.674   4.479  0.00  0.00    +0.150 C 
ENDBRANCH   2  11
BRANCH   1  18
ATOM     18  N   LIG    1       -3.008  -0.121   1.327  0.00  0.00    -0.570 N 
ATOM     19  H   LIG    1       -2.980   0.824   1.681  0.00  0.00    +0.370 HD
BRANCH  18  20
ATOM     20  C   LIG    1       -2.621  -0.166  -0.089  0.00  0.00    +0.250 C 
BRANCH  20  24
ATOM     21  C   LIG    1        1.242   1.595  -0.573  0.00  0.00    +0.130 A 
ATOM     22  C   LIG    1        1.125   0.236  -0.322  0.00  0.00    -0.020 A 
ATOM     23  C   LIG    1       -0.125  -0.330  -0.162  0.00  0.00    +0.080 A 
ATOM     24  C   LIG    1       -1.259   0.456  -0.258  0.00  0.00    -0.130 A 
ATOM     25  C   LIG    1       -1.144   1.812  -0.502  0.00  0.00    +0.050 A 
ATOM     26  C   LIG    1        0.104   2.382  -0.663  0.00  0.00    -0.080 A 
BRANCH  21  28
ATOM     27  C   LIG    1        2.516   3.559  -0.988  0.00  0.00    +0.250 C 
ATOM     28  O   LIG    1        2.471   2.154  -0.732  0.00  0.00    -0.320 OA
ENDBRANCH  21  28
ENDBRANCH  20  24
ENDBRANCH  18  20
ENDBRANCH   1  18
TORSDOF 5
