REMARK  Name = ZINCkj000005g1J6.1
REMARK                            x       y       z     vdW  Elec       q    Type
REMARK                         _______ _______ _______ _____ _____    ______ ____
ROOT
ATOM      1  C   LIG    1        0.002  -0.004   0.002  0.00  0.00    +0.220 C 
ENDROOT
BRANCH   1   2
ATOM      2  O   LIG    1        0.671  -0.465  -1.174  0.00  0.00    -0.540 OA
ATOM      3  H   LIG    1        0.256  -0.181  -1.999  0.00  0.00    +0.390 HD
ENDBRANCH   1   2
BRANCH   1   4
ATOM      4  C   LIG    1       -0.019   1.526   0.010  0.00  0.00    +0.250 C 
BRANCH   4   8
ATOM      5  N   LIG    1        3.469   3.623   1.088  0.00  0.00    -0.540 NA
ATOM      6  C   LIG    1        2.776   4.027  -0.143  0.00  0.00    +0.210 C 
ATOM      7  C   LIG    1        1.340   3.499  -0.113  0.00  0.00    +0.280 C 
ATOM      8  N   LIG    1        1.359   2.034   0.000  0.00  0.00    -0.380 N 
ATOM      9  C   LIG    1        2.033   1.647   1.246  0.00  0.00    +0.270 C 
ATOM     10  H   LIG    1        1.856   1.643  -0.786  0.00  0.00    +0.430 HD
ATOM     11  C   LIG    1        3.475   2.160   1.228  0.00  0.00    +0.210 C 
BRANCH   5  13
ATOM     12  C   LIG    1        5.437   3.936   2.512  0.00  0.00    +0.040 C 
ATOM     13  C   LIG    1        4.836   4.161   1.123  0.00  0.00    +0.190 C 
ENDBRANCH   5  13
ENDBRANCH   4   8
ENDBRANCH   1   4
BRANCH   1  14
ATOM     14  C   LIG    1       -1.433  -0.534   0.013  0.00  0.00    +0.190 C 
BRANCH  14  15
ATOM     15  O   LIG    1       -1.415  -1.958   0.122  0.00  0.00    -0.300 OA
BRANCH  15  16
ATOM     16  C   LIG    1       -2.617  -2.591   0.146  0.00  0.00    +0.120 A 
ATOM     17  C   LIG    1       -3.791  -1.856   0.071  0.00  0.00    -0.100 A 
ATOM     18  C   LIG    1       -5.012  -2.502   0.089  0.00  0.00    +0.050 A 
ATOM     19  C   LIG    1       -5.065  -3.879   0.195  0.00  0.00    -0.020 A 
ATOM     20  C   LIG    1       -3.896  -4.614   0.275  0.00  0.00    -0.040 A 
ATOM     21  C   LIG    1       -3.958  -6.116   0.389  0.00  0.00    +0.100 C 
ATOM     22  C   LIG    1       -2.673  -3.974   0.251  0.00  0.00    -0.020 A 
ENDBRANCH  15  16
ENDBRANCH  14  15
ENDBRANCH   1  14
TORSDOF 7
