REMARK  Name = ZINCkj000005g1J6.0
REMARK                            x       y       z     vdW  Elec       q    Type
REMARK                         _______ _______ _______ _____ _____    ______ ____
ROOT
ATOM      1  C   LIG    1       -0.998   1.387  -3.608  0.00  0.00    +0.230 C 
ENDROOT
BRANCH   1   2
ATOM      2  O   LIG    1       -2.267   0.755  -3.429  0.00  0.00    -0.540 OA
ATOM      3  H   LIG    1       -2.220  -0.208  -3.353  0.00  0.00    +0.380 HD
ENDBRANCH   1   2
BRANCH   1   4
ATOM      4  C   LIG    1       -0.098   1.072  -2.412  0.00  0.00    +0.180 C 
BRANCH   4   8
ATOM      5  N   LIG    1       -0.768   3.048   1.264  0.00  0.00    -0.390 N 
ATOM      6  C   LIG    1       -0.730   1.580   1.266  0.00  0.00    +0.270 C 
ATOM      7  C   LIG    1       -0.013   1.086   0.008  0.00  0.00    +0.210 C 
ATOM      8  N   LIG    1       -0.725   1.573  -1.182  0.00  0.00    -0.530 NA
ATOM      9  C   LIG    1       -0.792   3.041  -1.185  0.00  0.00    +0.210 C 
ATOM     10  C   LIG    1       -1.503   3.519   0.083  0.00  0.00    +0.280 C 
ATOM     11  H   LIG    1        0.174   3.408   1.239  0.00  0.00    +0.420 HD
BRANCH   5  13
ATOM     12  C   LIG    1       -0.609   3.139   3.706  0.00  0.00    +0.080 C 
ATOM     13  C   LIG    1       -1.441   3.522   2.480  0.00  0.00    +0.250 C 
ENDBRANCH   5  13
ENDBRANCH   4   8
ENDBRANCH   1   4
BRANCH   1  14
ATOM     14  C   LIG    1       -0.345   0.865  -4.890  0.00  0.00    +0.170 C 
BRANCH  14  15
ATOM     15  O   LIG    1       -1.128   1.261  -6.018  0.00  0.00    -0.300 OA
BRANCH  15  16
ATOM     16  C   LIG    1       -0.683   0.875  -7.243  0.00  0.00    +0.130 A 
ATOM     17  C   LIG    1        0.485   0.136  -7.357  0.00  0.00    -0.100 A 
ATOM     18  C   LIG    1        0.932  -0.260  -8.603  0.00  0.00    +0.050 A 
ATOM     19  C   LIG    1        0.223   0.090  -9.737  0.00  0.00    -0.020 A 
ATOM     20  C   LIG    1       -0.940   0.831  -9.626  0.00  0.00    -0.040 A 
ATOM     21  C   LIG    1       -1.711   1.210 -10.864  0.00  0.00    +0.100 C 
ATOM     22  C   LIG    1       -1.394   1.224  -8.382  0.00  0.00    -0.020 A 
ENDBRANCH  15  16
ENDBRANCH  14  15
ENDBRANCH   1  14
TORSDOF 7
