REMARK  Name = ZINCtV00000L6kz0.0
REMARK                            x       y       z     vdW  Elec       q    Type
REMARK                         _______ _______ _______ _____ _____    ______ ____
ROOT
ATOM      1  C   LIG    1       -4.091   2.859   0.469  0.00  0.00    +0.080 C 
ENDROOT
BRANCH   1   4
ATOM      2  C   LIG    1       -7.243   3.924  -1.324  0.00  0.00    +0.160 A 
ATOM      3  C   LIG    1       -6.005   3.357  -1.064  0.00  0.00    -0.080 A 
ATOM      4  C   LIG    1       -5.438   3.476   0.191  0.00  0.00    -0.020 A 
ATOM      5  C   LIG    1       -6.105   4.155   1.193  0.00  0.00    -0.070 A 
ATOM      6  C   LIG    1       -7.341   4.729   0.940  0.00  0.00    +0.160 A 
ATOM      7  C   LIG    1       -7.915   4.612  -0.321  0.00  0.00    +0.030 A 
BRANCH   2   9
ATOM      8  C   LIG    1       -7.054   3.085  -3.542  0.00  0.00    +0.250 C 
ATOM      9  O   LIG    1       -7.800   3.807  -2.559  0.00  0.00    -0.300 OA
ENDBRANCH   2   9
BRANCH   6  10
ATOM     10  O   LIG    1       -7.995   5.402   1.925  0.00  0.00    -0.300 OA
ATOM     11  C   LIG    1       -7.346   5.483   3.196  0.00  0.00    +0.240 C 
ENDBRANCH   6  10
BRANCH   7  12
ATOM     12  O   LIG    1       -9.130   5.170  -0.572  0.00  0.00    -0.310 OA
ATOM     13  C   LIG    1      -10.280   4.356  -0.333  0.00  0.00    +0.210 C 
ENDBRANCH   7  12
ENDBRANCH   1   4
BRANCH   1  14
ATOM     14  S   LIG    1       -2.980   4.117   1.156  0.00  0.00    -0.070 S 
BRANCH  14  15
ATOM     15  C   LIG    1       -2.710   5.197  -0.210  0.00  0.00    -0.080 A 
ATOM     16  C   LIG    1       -3.215   4.873  -1.464  0.00  0.00    +0.010 A 
ATOM     17  C   LIG    1       -2.997   5.718  -2.534  0.00  0.00    +0.040 A 
ATOM     18  C   LIG    1       -2.285   6.892  -2.356  0.00  0.00    -0.040 A 
ATOM     19  C   LIG    1       -1.786   7.220  -1.108  0.00  0.00    +0.050 A 
ATOM     20 CL   LIG    1       -2.020   7.956  -3.702  0.00  0.00    -0.070 Cl
ATOM     21  C   LIG    1       -1.996   6.376  -0.035  0.00  0.00    +0.050 A 
ENDBRANCH  14  15
ENDBRANCH   1  14
BRANCH   1  22
ATOM     22  C   LIG    1       -4.252   1.716   1.473  0.00  0.00    +0.080 C 
BRANCH  22  23
ATOM     23  C   LIG    1       -2.932   1.010   1.646  0.00  0.00    +0.420 C 
ATOM     24  O   LIG    1       -1.982   1.320   0.954  0.00  0.00    -0.430 OA
BRANCH  23  25
ATOM     25  C   LIG    1       -2.798  -0.011   2.612  0.00  0.00    -0.310 A 
ATOM     26  C   LIG    1       -1.654  -0.725   2.863  0.00  0.00    +0.120 A 
ATOM     27  C   LIG    1       -1.806  -1.659   3.857  0.00  0.00    -0.010 A 
ATOM     28  C   LIG    1       -3.027  -1.714   4.404  0.00  0.00    -0.050 A 
ATOM     29  S   LIG    1       -4.070  -0.568   3.691  0.00  0.00    +0.220 S 
ENDBRANCH  23  25
ENDBRANCH  22  23
ENDBRANCH   1  22
TORSDOF 9
