REMARK  Name = ZINCpe00000gMP0b.0
REMARK                            x       y       z     vdW  Elec       q    Type
REMARK                         _______ _______ _______ _____ _____    ______ ____
ROOT
ATOM      1  C   LIG    1       -1.411   5.740  -1.882  0.00  0.00    +0.240 C 
ENDROOT
BRANCH   1   2
ATOM      2  C   LIG    1       -2.414   6.276  -2.871  0.00  0.00    +0.430 C 
ATOM      3  O   LIG    1       -2.838   5.561  -3.754  0.00  0.00    -0.450 OA
BRANCH   2   7
ATOM      4  C   LIG    1       -3.052  11.078  -1.291  0.00  0.00    +0.130 C 
ATOM      5  C   LIG    1       -3.148   9.782  -2.053  0.00  0.00    +0.020 A 
ATOM      6  C   LIG    1       -2.476   8.655  -1.760  0.00  0.00    -0.010 A 
ATOM      7  C   LIG    1       -2.878   7.662  -2.765  0.00  0.00    -0.270 A 
ATOM      8  C   LIG    1       -3.788   8.300  -3.586  0.00  0.00    +0.130 A 
ATOM      9  C   LIG    1       -4.492   7.689  -4.769  0.00  0.00    +0.150 C 
ATOM     10  N   LIG    1       -3.935   9.563  -3.146  0.00  0.00    -0.410 N 
BRANCH  10  11
ATOM     11  C   LIG    1       -4.817  10.562  -3.755  0.00  0.00    +0.180 C 
ATOM     12  C   LIG    1       -5.733  11.357  -2.822  0.00  0.00    +0.060 C 
ATOM     13  C   LIG    1       -6.321  10.281  -3.738  0.00  0.00    +0.040 C 
ENDBRANCH  10  11
ENDBRANCH   2   7
ENDBRANCH   1   2
BRANCH   1  14
ATOM     14  O   LIG    1       -1.115   4.354  -2.197  0.00  0.00    -0.340 OA
BRANCH  14  15
ATOM     15  C   LIG    1       -0.232   3.724  -1.406  0.00  0.00    +0.460 C 
ATOM     16  O   LIG    1        0.275   4.312  -0.480  0.00  0.00    -0.490 OA
BRANCH  15  17
ATOM     17  C   LIG    1        0.125   2.285  -1.671  0.00  0.00    +0.290 C 
BRANCH  17  18
ATOM     18  N   LIG    1        1.103   1.831  -0.673  0.00  0.00    -0.550 NA
ATOM     19  C   LIG    1        2.361   2.571  -0.796  0.00  0.00    +0.230 C 
ATOM     20  C   LIG    1        3.193   2.399   0.478  0.00  0.00    -0.300 C 
ATOM     21  S   LIG    1        3.611   0.640   0.668  0.00  0.00    +2.410 S 
ATOM     22  C   LIG    1        1.967  -0.124   0.531  0.00  0.00    -0.320 C 
ATOM     23  O   LIG    1        4.397   0.233  -0.443  0.00  0.00    -0.940 OA
ATOM     24  O   LIG    1        4.104   0.429   1.984  0.00  0.00    -0.940 OA
ATOM     25  C   LIG    1        1.297   0.381  -0.750  0.00  0.00    +0.240 C 
ENDBRANCH  17  18
ENDBRANCH  15  17
ENDBRANCH  14  15
ENDBRANCH   1  14
TORSDOF 7
