REMARK  Name = ZINCkj000005jpkd.1
REMARK                            x       y       z     vdW  Elec       q    Type
REMARK                         _______ _______ _______ _____ _____    ______ ____
ROOT
ATOM      1  C   LIG    1       -2.668   2.760   6.428  0.00  0.00    +0.100 C 
ATOM      2  C   LIG    1       -1.706   1.574   6.335  0.00  0.00    +0.150 C 
ATOM      3  C   LIG    1       -1.670   0.815   7.690  0.00  0.00    +0.080 C 
ATOM      4  C   LIG    1       -0.185   0.437   7.801  0.00  0.00    +0.000 C 
ATOM      5  C   LIG    1        0.334   0.252   9.217  0.00  0.00    +0.060 C 
ATOM      6  C   LIG    1        1.848   0.008   9.120  0.00  0.00    +0.020 C 
ATOM      7  C   LIG    1        2.557   1.164   8.422  0.00  0.00    +0.040 C 
ATOM      8  C   LIG    1        1.945   1.445   7.040  0.00  0.00    +0.060 C 
ATOM      9  C   LIG    1        0.472   1.732   7.248  0.00  0.00    +0.150 C 
ATOM     10  N   LIG    1       -0.326   2.061   6.073  0.00  0.00    -0.380 N 
ATOM     11  H   LIG    1       -0.333   3.060   5.931  0.00  0.00    +0.430 HD
ENDROOT
BRANCH  10  12
ATOM     12  C   LIG    1        0.225   1.389   4.889  0.00  0.00    +0.230 C 
BRANCH  12  13
ATOM     13  C   LIG    1       -0.542   1.839   3.644  0.00  0.00    +0.210 C 
BRANCH  13  14
ATOM     14  O   LIG    1       -0.320   3.233   3.425  0.00  0.00    -0.540 OA
ATOM     15  H   LIG    1        0.608   3.467   3.288  0.00  0.00    +0.390 HD
ENDBRANCH  13  14
BRANCH  13  16
ATOM     16  C   LIG    1       -0.053   1.047   2.430  0.00  0.00    +0.160 C 
BRANCH  16  17
ATOM     17  N   LIG    1       -0.798   1.471   1.236  0.00  0.00    -0.520 NA
ATOM     18  C   LIG    1       -2.218   1.106   1.345  0.00  0.00    +0.140 C 
ATOM     19  C   LIG    1       -2.967   1.616   0.112  0.00  0.00    +0.220 C 
ATOM     20  O   LIG    1       -2.359   1.079  -1.066  0.00  0.00    -0.380 OA
ATOM     21  C   LIG    1       -0.976   1.415  -1.204  0.00  0.00    +0.220 C 
ATOM     22  C   LIG    1       -0.207   0.903   0.016  0.00  0.00    +0.160 C 
ENDBRANCH  16  17
ENDBRANCH  13  16
ENDBRANCH  12  13
ENDBRANCH  10  12
TORSDOF 5
