REMARK  Name = ZINCkj000005jpkd.0
REMARK                            x       y       z     vdW  Elec       q    Type
REMARK                         _______ _______ _______ _____ _____    ______ ____
ROOT
ATOM      1  C   LIG    1       -5.046   0.352   2.211  0.00  0.00    +0.090 C 
ATOM      2  C   LIG    1       -4.224   1.620   1.976  0.00  0.00    +0.170 C 
ATOM      3  C   LIG    1       -4.153   1.931   0.456  0.00  0.00    +0.080 C 
ATOM      4  C   LIG    1       -2.713   2.445   0.305  0.00  0.00    +0.010 C 
ATOM      5  C   LIG    1       -2.098   2.256  -1.071  0.00  0.00    +0.060 C 
ATOM      6  C   LIG    1       -0.633   2.711  -0.983  0.00  0.00    +0.020 C 
ATOM      7  C   LIG    1        0.134   1.923   0.075  0.00  0.00    +0.040 C 
ATOM      8  C   LIG    1       -0.563   1.999   1.444  0.00  0.00    +0.050 C 
ATOM      9  C   LIG    1       -1.971   1.475   1.264  0.00  0.00    +0.140 C 
ATOM     10  N   LIG    1       -2.828   1.418   2.443  0.00  0.00    -0.380 N 
ATOM     11  H   LIG    1       -2.573   2.148   3.092  0.00  0.00    +0.430 HD
ENDROOT
BRANCH  10  12
ATOM     12  C   LIG    1       -2.702   0.105   3.091  0.00  0.00    +0.230 C 
BRANCH  12  13
ATOM     13  C   LIG    1       -1.303  -0.033   3.694  0.00  0.00    +0.200 C 
BRANCH  13  14
ATOM     14  O   LIG    1       -1.076   1.031   4.621  0.00  0.00    -0.540 OA
ATOM     15  H   LIG    1       -1.721   1.070   5.340  0.00  0.00    +0.390 HD
ENDBRANCH  13  14
BRANCH  13  16
ATOM     16  C   LIG    1       -1.192  -1.375   4.422  0.00  0.00    +0.160 C 
BRANCH  16  17
ATOM     17  N   LIG    1        0.151  -1.508   5.002  0.00  0.00    -0.520 NA
ATOM     18  C   LIG    1        1.173  -1.603   3.948  0.00  0.00    +0.140 C 
ATOM     19  C   LIG    1        2.558  -1.680   4.594  0.00  0.00    +0.220 C 
ATOM     20  O   LIG    1        2.600  -2.793   5.491  0.00  0.00    -0.380 OA
ATOM     21  C   LIG    1        1.619  -2.733   6.530  0.00  0.00    +0.220 C 
ATOM     22  C   LIG    1        0.224  -2.666   5.903  0.00  0.00    +0.160 C 
ENDBRANCH  16  17
ENDBRANCH  13  16
ENDBRANCH  12  13
ENDBRANCH  10  12
TORSDOF 5
