REMARK  Name = ZINCpk00000KfKRg.0
REMARK                            x       y       z     vdW  Elec       q    Type
REMARK                         _______ _______ _______ _____ _____    ______ ____
ROOT
ATOM      1  N   LIG    1       -0.685   1.856  -3.592  0.00  0.00    -0.540 NA
ATOM      2  C   LIG    1       -2.052   1.331  -3.716  0.00  0.00    +0.190 C 
ATOM      3  C   LIG    1       -2.788   2.088  -4.824  0.00  0.00    +0.180 C 
ATOM      4  N   LIG    1       -2.053   1.939  -6.088  0.00  0.00    -0.530 NA
ATOM      5  C   LIG    1       -0.686   2.465  -5.964  0.00  0.00    +0.170 C 
ATOM      6  C   LIG    1        0.050   1.707  -4.856  0.00  0.00    +0.180 C 
ENDROOT
BRANCH   1   7
ATOM      7  C   LIG    1        0.031   1.205  -2.487  0.00  0.00    +0.210 C 
BRANCH   7   8
ATOM      8  C   LIG    1        1.221   2.072  -2.070  0.00  0.00    +0.140 C 
BRANCH   8   9
ATOM      9  C   LIG    1        0.731   3.348  -1.524  0.00  0.00    +0.220 C 
ATOM     10  N   LIG    1        0.353   4.333  -1.103  0.00  0.00    -0.430 NA
ENDBRANCH   8   9
BRANCH   8  11
ATOM     11  C   LIG    1        2.035   1.339  -1.002  0.00  0.00    +0.070 C 
BRANCH  11  12
ATOM     12  C   LIG    1        3.292   2.148  -0.675  0.00  0.00    +0.200 C 
BRANCH  12  14
ATOM     13  N   LIG    1        4.681   0.900   1.146  0.00  0.00    -0.430 NA
ATOM     14  C   LIG    1        4.076   1.444   0.353  0.00  0.00    +0.200 C 
ENDBRANCH  12  14
ENDBRANCH  11  12
ENDBRANCH   8  11
ENDBRANCH   7   8
ENDBRANCH   1   7
BRANCH   4  15
ATOM     15  C   LIG    1       -2.769   2.590  -7.193  0.00  0.00    +0.160 C 
BRANCH  15  16
ATOM     16  C   LIG    1       -4.250   2.207  -7.137  0.00  0.00    +0.220 C 
BRANCH  16  17
ATOM     17  O   LIG    1       -4.380   0.789  -7.255  0.00  0.00    -0.540 OA
ATOM     18  H   LIG    1       -4.022   0.428  -8.078  0.00  0.00    +0.380 HD
ENDBRANCH  16  17
BRANCH  16  19
ATOM     19  C   LIG    1       -4.995   2.885  -8.289  0.00  0.00    +0.170 C 
BRANCH  19  20
ATOM     20  O   LIG    1       -6.395   2.623  -8.170  0.00  0.00    -0.300 OA
BRANCH  20  21
ATOM     21  C   LIG    1       -7.206   3.157  -9.120  0.00  0.00    +0.130 A 
ATOM     22  C   LIG    1       -6.666   3.923 -10.143  0.00  0.00    -0.080 A 
ATOM     23  C   LIG    1       -7.492   4.461 -11.111  0.00  0.00    +0.040 A 
ATOM     24  C   LIG    1       -8.857   4.245 -11.055  0.00  0.00    -0.040 A 
ATOM     25  C   LIG    1       -9.398   3.486 -10.034  0.00  0.00    +0.050 A 
ATOM     26  C   LIG    1       -8.575   2.942  -9.066  0.00  0.00    -0.020 A 
ENDBRANCH  20  21
ENDBRANCH  19  20
ENDBRANCH  16  19
ENDBRANCH  15  16
ENDBRANCH   4  15
TORSDOF 12
