REMARK  Name = ZINCqH0000035UFf.0
REMARK                            x       y       z     vdW  Elec       q    Type
REMARK                         _______ _______ _______ _____ _____    ______ ____
ROOT
ATOM      1  N   LIG    1       -4.148   0.506   1.460  0.00  0.00    -0.740 N 
ATOM      2  H   LIG    1       -4.606   0.325   0.625  0.00  0.00    +0.400 HD
ATOM      3  C   LIG    1       -4.669   0.066   2.623  0.00  0.00    +0.710 C 
ATOM      4  N   LIG    1       -5.826  -0.625   2.624  0.00  0.00    -0.660 N 
ATOM      5  H   LIG    1       -6.284  -0.806   1.788  0.00  0.00    +0.410 HD
ATOM      6  O   LIG    1       -4.095   0.293   3.671  0.00  0.00    -0.570 OA
ENDROOT
BRANCH   4   7
ATOM      7  C   LIG    1       -6.371  -1.084   3.839  0.00  0.00    +0.030 A 
ATOM      8  C   LIG    1       -7.523  -1.788   3.983  0.00  0.00    +0.050 A 
ATOM      9  N   LIG    1       -7.689  -2.034   5.309  0.00  0.00    -0.380 N 
ATOM     10  N   LIG    1       -6.607  -1.464   5.992  0.00  0.00    -0.270 NA
ATOM     11  C   LIG    1       -8.448  -2.218   2.875  0.00  0.00    +0.150 C 
ATOM     12  C   LIG    1       -5.816  -0.901   5.114  0.00  0.00    +0.280 A 
BRANCH   9  13
ATOM     13  C   LIG    1       -8.803  -2.766   5.917  0.00  0.00    +0.380 C 
BRANCH  13  14
ATOM     14  C   LIG    1       -8.456  -4.254   5.992  0.00  0.00    +0.440 C 
ATOM     15  F   LIG    1       -8.224  -4.744   4.702  0.00  0.00    -0.180 F 
ATOM     16  F   LIG    1       -9.520  -4.953   6.572  0.00  0.00    -0.170 F 
ATOM     17  F   LIG    1       -7.305  -4.426   6.769  0.00  0.00    -0.170 F 
ENDBRANCH  13  14
ENDBRANCH   9  13
ENDBRANCH   4   7
BRANCH   1  18
ATOM     18  C   LIG    1       -2.890   1.257   1.459  0.00  0.00    +0.280 C 
BRANCH  18  19
ATOM     19  C   LIG    1       -2.523   1.635   0.022  0.00  0.00    +0.080 C 
BRANCH  19  23
ATOM     20  C   LIG    1        1.146   3.826   0.012  0.00  0.00    +0.140 A 
ATOM     21  C   LIG    1       -0.066   4.500   0.027  0.00  0.00    -0.060 A 
ATOM     22  C   LIG    1       -1.251   3.789   0.034  0.00  0.00    +0.080 A 
ATOM     23  C   LIG    1       -1.230   2.407   0.021  0.00  0.00    -0.110 A 
ATOM     24  C   LIG    1       -0.021   1.732   0.012  0.00  0.00    +0.010 A 
ATOM     25 CL   LIG    1        0.002  -0.004   0.002  0.00  0.00    -0.050 Cl
ATOM     26  C   LIG    1        1.166   2.439   0.004  0.00  0.00    +0.000 A 
BRANCH  20  28
ATOM     27  C   LIG    1        2.216   5.949   0.012  0.00  0.00    +0.250 C 
ATOM     28  O   LIG    1        2.312   4.524   0.004  0.00  0.00    -0.310 OA
ENDBRANCH  20  28
ENDBRANCH  19  23
ENDBRANCH  18  19
ENDBRANCH   1  18
TORSDOF 7
