REMARK  Name = ZINCpk00000eakfY.0
REMARK                            x       y       z     vdW  Elec       q    Type
REMARK                         _______ _______ _______ _____ _____    ______ ____
ROOT
ATOM      1  C   LIG    1       -4.984   4.616   3.242  0.00  0.00    +0.160 C 
ATOM      2  C   LIG    1       -4.275   3.694   2.212  0.00  0.00    +0.090 C 
ATOM      3  C   LIG    1       -3.649   2.601   3.105  0.00  0.00    +0.340 C 
ATOM      4  N   LIG    1       -3.521   3.160   4.459  0.00  0.00    -0.600 N 
ATOM      5  C   LIG    1       -3.037   2.508   5.535  0.00  0.00    +0.590 C 
ATOM      6  O   LIG    1       -2.661   1.357   5.430  0.00  0.00    -0.530 OA
ATOM      7  C   LIG    1       -4.010   4.551   4.445  0.00  0.00    +0.270 C 
ENDROOT
BRANCH   3   8
ATOM      8  C   LIG    1       -2.289   2.224   2.575  0.00  0.00    +0.210 A 
ATOM      9  N   LIG    1       -2.031   1.822   1.361  0.00  0.00    -0.480 NA
ATOM     10  C   LIG    1       -0.718   1.572   1.248  0.00  0.00    +0.000 A 
ATOM     11  C   LIG    1       -0.140   1.837   2.435  0.00  0.00    -0.030 A 
ATOM     12  C   LIG    1        1.323   1.704   2.771  0.00  0.00    +0.130 C 
ATOM     13  C   LIG    1       -0.013   1.086   0.008  0.00  0.00    +0.140 C 
ATOM     14  N   LIG    1       -1.136   2.251   3.277  0.00  0.00    -0.550 N 
ATOM     15  H   LIG    1       -1.033   2.514   4.205  0.00  0.00    +0.410 HD
ENDBRANCH   3   8
BRANCH   5  16
ATOM     16  C   LIG    1       -2.964   3.193   6.843  0.00  0.00    -0.060 A 
ATOM     17  C   LIG    1       -2.464   2.519   7.956  0.00  0.00    +0.360 A 
ATOM     18  N   LIG    1       -2.398   3.131   9.124  0.00  0.00    -0.510 NA
ATOM     19  C   LIG    1       -2.809   4.389   9.238  0.00  0.00    +0.380 A 
ATOM     20  C   LIG    1       -3.310   5.065   8.120  0.00  0.00    +0.160 A 
ATOM     21  N   LIG    1       -3.371   4.457   6.957  0.00  0.00    -0.370 NA
BRANCH  19  22
ATOM     22  N   LIG    1       -2.740   5.031  10.462  0.00  0.00    -0.590 N 
ATOM     23  C   LIG    1       -2.115   4.362  11.605  0.00  0.00    +0.300 C 
ATOM     24  C   LIG    1       -3.293   6.379  10.614  0.00  0.00    +0.300 C 
ENDBRANCH  19  22
ENDBRANCH   5  16
BRANCH   1  26
ATOM     25  C   LIG    1       -7.181   5.080   4.080  0.00  0.00    +0.200 C 
ATOM     26  O   LIG    1       -6.268   4.095   3.594  0.00  0.00    -0.370 OA
ENDBRANCH   1  26
TORSDOF 4
