REMARK  Name = ZINCqH0000038AP2.0
REMARK                            x       y       z     vdW  Elec       q    Type
REMARK                         _______ _______ _______ _____ _____    ______ ____
ROOT
ATOM      1  C   LIG    1        5.363   2.418  -4.219  0.00  0.00    -0.040 A 
ATOM      2  C   LIG    1        5.200   1.924  -2.926  0.00  0.00    +0.060 A 
ATOM      3  C   LIG    1        4.454   2.627  -2.007  0.00  0.00    +0.000 A 
ATOM      4  C   LIG    1        3.860   3.842  -2.358  0.00  0.00    +0.160 A 
ATOM      5  C   LIG    1        4.020   4.326  -3.648  0.00  0.00    -0.130 A 
ATOM      6  C   LIG    1        3.278   5.639  -3.765  0.00  0.00    +0.110 C 
ATOM      7  C   LIG    1        2.656   5.855  -2.375  0.00  0.00    +0.290 C 
ATOM      8  N   LIG    1        3.069   4.694  -1.584  0.00  0.00    -0.940 N 
ATOM      9  C   LIG    1        4.766   3.626  -4.574  0.00  0.00    +0.100 A 
ENDROOT
BRANCH   1  13
ATOM     10  C   LIG    1        7.402   1.646  -8.659  0.00  0.00    +0.180 C 
ATOM     11  C   LIG    1        7.075   1.336  -7.221  0.00  0.00    +0.050 A 
ATOM     12  N   LIG    1        6.357   2.081  -6.453  0.00  0.00    -0.470 NA
ATOM     13  C   LIG    1        6.166   1.662  -5.211  0.00  0.00    +0.120 A 
ATOM     14  C   LIG    1        6.771   0.491  -4.926  0.00  0.00    -0.080 A 
ATOM     15  S   LIG    1        7.606  -0.053  -6.378  0.00  0.00    +0.130 S 
ENDBRANCH   1  13
BRANCH   8  16
ATOM     16  S   LIG    1        2.664   4.433   0.001  0.00  0.00    +2.700 S 
ATOM     17  O   LIG    1        3.657   3.565   0.531  0.00  0.00    -0.930 OA
ATOM     18  O   LIG    1        2.370   5.707   0.555  0.00  0.00    -0.930 OA
BRANCH  16  19
ATOM     19  C   LIG    1        1.154   3.525   0.010  0.00  0.00    -0.680 A 
ATOM     20  C   LIG    1       -0.055   4.197   0.025  0.00  0.00    +0.160 A 
ATOM     21  C   LIG    1       -1.246   3.492   0.032  0.00  0.00    +0.020 A 
ATOM     22  C   LIG    1       -1.234   2.113   0.019  0.00  0.00    +0.140 A 
ATOM     23  C   LIG    1       -0.017   1.428   0.010  0.00  0.00    -0.040 A 
ATOM     24  C   LIG    1        1.180   2.145   0.002  0.00  0.00    +0.180 A 
BRANCH  23  25
ATOM     25  C   LIG    1        0.002  -0.004   0.002  0.00  0.00    +0.240 C 
ATOM     26  N   LIG    1        0.018  -1.140  -0.004  0.00  0.00    -0.400 NA
ENDBRANCH  23  25
ENDBRANCH  16  19
ENDBRANCH   8  16
TORSDOF 4
