REMARK  Name = ZINCvU00000005sU.0
REMARK                            x       y       z     vdW  Elec       q    Type
REMARK                         _______ _______ _______ _____ _____    ______ ____
ROOT
ATOM      1  N   LIG    1        1.051  -4.588  -0.039  0.00  0.00    -0.420 N 
ATOM      2  C   LIG    1       -0.127  -5.289  -0.026  0.00  0.00    +0.160 A 
ATOM      3  N   LIG    1       -1.102  -4.410  -0.013  0.00  0.00    -0.280 NA
ATOM      4  N   LIG    1       -0.624  -3.218  -0.011  0.00  0.00    -0.270 NA
ATOM      5  C   LIG    1        0.689  -3.259  -0.022  0.00  0.00    +0.290 A 
ENDROOT
BRANCH   5   6
ATOM      6  C   LIG    1        1.604  -2.100  -0.025  0.00  0.00    -0.120 A 
ATOM      7  C   LIG    1        2.961  -2.138  -0.038  0.00  0.00    +0.270 A 
ATOM      8  N   LIG    1        3.458  -0.866  -0.036  0.00  0.00    -0.580 N 
ATOM      9  H   LIG    1        4.401  -0.638  -0.044  0.00  0.00    +0.420 HD
ATOM     10  C   LIG    1        2.426   0.048  -0.021  0.00  0.00    +0.090 A 
ATOM     11  C   LIG    1        2.385   1.438  -0.013  0.00  0.00    -0.010 A 
ATOM     12  C   LIG    1        1.171   2.090   0.002  0.00  0.00    +0.040 A 
ATOM     13  C   LIG    1       -0.017   1.373   0.010  0.00  0.00    -0.010 A 
ATOM     14  C   LIG    1        0.002  -0.004   0.002  0.00  0.00    +0.070 A 
ATOM     15  C   LIG    1        1.222  -0.677  -0.013  0.00  0.00    -0.070 A 
ENDBRANCH   5   6
BRANCH   1  21
ATOM     16  C   LIG    1        4.550  -7.137  -2.374  0.00  0.00    +0.100 C 
ATOM     17  C   LIG    1        4.071  -6.352  -1.179  0.00  0.00    -0.070 A 
ATOM     18  C   LIG    1        4.915  -6.150  -0.103  0.00  0.00    +0.030 A 
ATOM     19  C   LIG    1        4.479  -5.431   0.995  0.00  0.00    +0.040 A 
ATOM     20  C   LIG    1        3.200  -4.913   1.020  0.00  0.00    +0.020 A 
ATOM     21  C   LIG    1        2.350  -5.114  -0.060  0.00  0.00    +0.110 A 
ATOM     22  C   LIG    1        2.788  -5.840  -1.159  0.00  0.00    +0.030 A 
ENDBRANCH   1  21
BRANCH   2  23
ATOM     23  S   LIG    1       -0.300  -7.043  -0.034  0.00  0.00    +0.020 S 
BRANCH  23  24
ATOM     24  C   LIG    1       -2.104  -7.181  -0.019  0.00  0.00    +0.150 C 
BRANCH  24  25
ATOM     25  C   LIG    1       -2.497  -8.635  -0.024  0.00  0.00    -0.050 A 
ATOM     26  C   LIG    1       -2.693  -9.292  -1.226  0.00  0.00    +0.040 A 
ATOM     27  C   LIG    1       -3.048 -10.625  -1.238  0.00  0.00    +0.070 A 
ATOM     28  C   LIG    1       -3.220 -11.309  -0.033  0.00  0.00    -0.020 A 
ATOM     29  C   LIG    1       -3.026 -10.639   1.177  0.00  0.00    +0.070 A 
ATOM     30  C   LIG    1       -2.666  -9.307   1.174  0.00  0.00    +0.040 A 
BRANCH  28  31
ATOM     31  C   LIG    1       -3.595 -12.691  -0.037  0.00  0.00    +0.250 C 
ATOM     32  N   LIG    1       -3.892 -13.787  -0.041  0.00  0.00    -0.410 NA
ENDBRANCH  28  31
ENDBRANCH  24  25
ENDBRANCH  23  24
ENDBRANCH   2  23
TORSDOF 6
