REMARK  Name = ZINCrH000004k29f.0
REMARK                            x       y       z     vdW  Elec       q    Type
REMARK                         _______ _______ _______ _____ _____    ______ ____
ROOT
ATOM      1  C   LIG    1        5.832   3.189   0.466  0.00  0.00    +0.280 C 
ATOM      2  N   LIG    1        6.036   1.781   0.118  0.00  0.00    -0.620 N 
ATOM      3  C   LIG    1        4.974   0.974  -0.079  0.00  0.00    +0.710 C 
ATOM      4  N   LIG    1        3.727   1.485  -0.056  0.00  0.00    -0.670 N 
ATOM      5  H   LIG    1        3.596   2.443   0.021  0.00  0.00    +0.410 HD
ATOM      6  O   LIG    1        5.142  -0.214  -0.277  0.00  0.00    -0.550 OA
ENDROOT
BRANCH   4   7
ATOM      7  C   LIG    1        2.618   0.630  -0.142  0.00  0.00    +0.130 A 
ATOM      8  C   LIG    1        2.741  -0.705   0.211  0.00  0.00    +0.100 A 
ATOM      9  C   LIG    1        1.647  -1.546   0.125  0.00  0.00    -0.020 A 
ATOM     10  C   LIG    1        0.428  -1.058  -0.313  0.00  0.00    +0.120 A 
ATOM     11  C   LIG    1        0.299   0.274  -0.667  0.00  0.00    -0.080 A 
ATOM     12  F   LIG    1       -0.638  -1.884  -0.396  0.00  0.00    -0.140 F 
ATOM     13  C   LIG    1        1.391   1.121  -0.583  0.00  0.00    +0.130 A 
BRANCH  13  14
ATOM     14  O   LIG    1        1.267   2.430  -0.930  0.00  0.00    -0.310 OA
BRANCH  14  15
ATOM     15  C   LIG    1       -0.021   2.864  -1.374  0.00  0.00    +0.230 C 
BRANCH  15  16
ATOM     16  C   LIG    1        0.034   4.354  -1.717  0.00  0.00    -0.040 C 
ATOM     17  C   LIG    1       -0.827   5.303  -0.881  0.00  0.00    +0.030 C 
ATOM     18  C   LIG    1       -1.221   4.985  -2.325  0.00  0.00    +0.030 C 
ENDBRANCH  15  16
ENDBRANCH  14  15
ENDBRANCH  13  14
ENDBRANCH   4   7
BRANCH   2  19
ATOM     19  C   LIG    1        7.395   1.249  -0.017  0.00  0.00    +0.430 C 
BRANCH  19  20
ATOM     20  C   LIG    1        7.895   1.500  -1.416  0.00  0.00    +0.190 A 
ATOM     21  N   LIG    1        7.647   0.754  -2.458  0.00  0.00    -0.460 NA
ATOM     22  C   LIG    1        8.253   1.280  -3.533  0.00  0.00    +0.150 A 
ATOM     23  C   LIG    1        8.902   2.393  -3.142  0.00  0.00    +0.130 A 
ATOM     24  N   LIG    1        8.671   2.537  -1.801  0.00  0.00    -0.460 N 
BRANCH  24  25
ATOM     25  C   LIG    1        9.173   3.612  -0.942  0.00  0.00    +0.290 C 
BRANCH  25  26
ATOM     26  C   LIG    1       10.484   3.171  -0.287  0.00  0.00    +0.370 C 
ATOM     27  F   LIG    1       10.239   2.086   0.561  0.00  0.00    -0.190 F 
ATOM     28  F   LIG    1       11.015   4.232   0.454  0.00  0.00    -0.190 F 
ENDBRANCH  25  26
ENDBRANCH  24  25
ENDBRANCH  19  20
ENDBRANCH   2  19
TORSDOF 8
