REMARK  Name = ZINCtj00000rYUus.0
REMARK                            x       y       z     vdW  Elec       q    Type
REMARK                         _______ _______ _______ _____ _____    ______ ____
ROOT
ATOM      1  C   LIG    1        2.306   0.904  -0.580  0.00  0.00    +0.730 C 
ENDROOT
BRANCH   1   2
ATOM      2  N   LIG    1        1.805  -0.128  -1.337  0.00  0.00    -0.620 NA
ATOM      3  C   LIG    1        1.500   0.061  -2.764  0.00  0.00    +0.330 C 
ATOM      4  C   LIG    1        2.186  -1.063  -3.556  0.00  0.00    +0.210 C 
ATOM      5  N   LIG    1        1.781  -2.362  -3.002  0.00  0.00    -0.470 N 
ATOM      6  C   LIG    1        2.231  -2.512  -1.612  0.00  0.00    +0.230 C 
ATOM      7  C   LIG    1        1.554  -1.449  -0.741  0.00  0.00    +0.320 C 
BRANCH   5   8
ATOM      8  C   LIG    1        2.246  -3.407  -3.792  0.00  0.00    +0.300 A 
ATOM      9  C   LIG    1        1.924  -3.445  -5.145  0.00  0.00    -0.040 A 
ATOM     10  C   LIG    1        2.394  -4.490  -5.919  0.00  0.00    +0.090 A 
ATOM     11  C   LIG    1        3.172  -5.467  -5.312  0.00  0.00    -0.050 A 
ATOM     12  C   LIG    1        3.452  -5.367  -3.964  0.00  0.00    +0.290 A 
ATOM     13  N   LIG    1        2.995  -4.356  -3.251  0.00  0.00    -0.520 NA
ENDBRANCH   5   8
ENDBRANCH   1   2
BRANCH   1  14
ATOM     14  N   LIG    1        1.866   1.097   0.632  0.00  0.00    -0.640 NA
ATOM     15  H   LIG    1        2.296   1.749   1.207  0.00  0.00    +0.430 HD
BRANCH  14  16
ATOM     16  C   LIG    1        0.722   0.327   1.127  0.00  0.00    +0.240 C 
ATOM     17  C   LIG    1       -0.575   1.065   0.786  0.00  0.00    +0.060 C 
BRANCH  16  18
ATOM     18  C   LIG    1        0.833   0.166   2.644  0.00  0.00    +0.200 C 
BRANCH  18  20
ATOM     19  C   LIG    1        0.817   1.408   4.694  0.00  0.00    +0.230 C 
ATOM     20  O   LIG    1        0.726   1.446   3.268  0.00  0.00    -0.390 OA
ENDBRANCH  18  20
ENDBRANCH  16  18
ENDBRANCH  14  16
ENDBRANCH   1  14
BRANCH   1  21
ATOM     21  N   LIG    1        3.271   1.734  -1.100  0.00  0.00    -0.680 NA
ATOM     22  H   LIG    1        3.662   1.539  -1.966  0.00  0.00    +0.430 HD
BRANCH  21  23
ATOM     23  C   LIG    1        3.708   2.912  -0.347  0.00  0.00    +0.320 C 
BRANCH  23  24
ATOM     24  C   LIG    1        4.781   3.657  -1.144  0.00  0.00    +0.140 C 
ATOM     25  O   LIG    1        4.209   4.173  -2.349  0.00  0.00    -0.380 OA
ATOM     26  C   LIG    1        5.129   4.932  -3.140  0.00  0.00    +0.220 C 
ATOM     27  C   LIG    1        5.673   6.094  -2.303  0.00  0.00    +0.200 C 
ATOM     28  O   LIG    1        6.246   5.576  -1.099  0.00  0.00    -0.360 OA
ATOM     29  C   LIG    1        5.326   4.818  -0.307  0.00  0.00    +0.090 C 
ATOM     30  C   LIG    1        6.044   4.267   0.926  0.00  0.00    +0.070 C 
ATOM     31  C   LIG    1        4.169   5.718   0.134  0.00  0.00    +0.040 C 
ENDBRANCH  23  24
ENDBRANCH  21  23
ENDBRANCH   1  21
TORSDOF 9
