REMARK  Name = ZINCwl0000000llV.0
REMARK                            x       y       z     vdW  Elec       q    Type
REMARK                         _______ _______ _______ _____ _____    ______ ____
ROOT
ATOM      1  N   LIG    1        4.904   3.989  -0.024  0.00  0.00    -0.290 N 
ATOM      2  C   LIG    1        3.588   3.680  -0.013  0.00  0.00    +0.200 A 
ATOM      3  C   LIG    1        3.521   2.316  -0.019  0.00  0.00    +0.020 A 
ATOM      4  N   LIG    1        4.793   1.878  -0.028  0.00  0.00    -0.240 NA
ATOM      5  N   LIG    1        5.580   2.895  -0.036  0.00  0.00    -0.080 NA
ENDROOT
BRANCH   3   6
ATOM      6  C   LIG    1        2.292   1.485  -0.012  0.00  0.00    +0.200 A 
ATOM      7  C   LIG    1        2.399   0.096  -0.020  0.00  0.00    +0.080 A 
ATOM      8  C   LIG    1        1.232  -0.670  -0.013  0.00  0.00    -0.080 A 
ATOM      9  C   LIG    1        0.002  -0.004   0.002  0.00  0.00    +0.000 A 
ATOM     10  C   LIG    1       -0.017   1.377   0.010  0.00  0.00    +0.280 A 
ATOM     11  N   LIG    1        1.103   2.072   0.003  0.00  0.00    -0.460 NA
BRANCH   8  12
ATOM     12  C   LIG    1        1.296  -2.151  -0.022  0.00  0.00    +0.560 C 
ATOM     13  N   LIG    1        0.158  -2.873  -0.016  0.00  0.00    -0.720 N 
ATOM     14  H   LIG    1       -0.702  -2.425  -0.005  0.00  0.00    +0.400 HD
ATOM     15  O   LIG    1        2.373  -2.713  -0.036  0.00  0.00    -0.520 OA
BRANCH  13  16
ATOM     16  C   LIG    1        0.220  -4.337  -0.025  0.00  0.00    +0.270 C 
BRANCH  16  17
ATOM     17  C   LIG    1       -1.199  -4.908  -0.015  0.00  0.00    +0.050 C 
BRANCH  17  18
ATOM     18  C   LIG    1       -1.134  -6.437  -0.024  0.00  0.00    +0.050 C 
ATOM     19  C   LIG    1       -0.990  -7.024  -1.430  0.00  0.00    -0.320 C 
ATOM     20  S   LIG    1       -1.934  -8.484  -0.912  0.00  0.00    +2.410 S 
ATOM     21  O   LIG    1       -2.894  -8.889  -1.879  0.00  0.00    -0.920 OA
ATOM     22  O   LIG    1       -1.149  -9.416  -0.182  0.00  0.00    -0.910 OA
ATOM     23  C   LIG    1       -2.508  -7.098   0.108  0.00  0.00    -0.320 C 
ENDBRANCH  17  18
ENDBRANCH  16  17
ENDBRANCH  13  16
ENDBRANCH   8  12
ENDBRANCH   3   6
BRANCH   1  24
ATOM     24  C   LIG    1        5.465   5.342  -0.021  0.00  0.00    +0.350 C 
BRANCH  24  28
ATOM     25  C   LIG    1        8.055   5.735   3.107  0.00  0.00    +0.060 C 
ATOM     26  C   LIG    1        7.994   7.050   2.328  0.00  0.00    +0.050 C 
ATOM     27  C   LIG    1        7.022   6.902   1.154  0.00  0.00    +0.080 C 
ATOM     28  C   LIG    1        6.436   5.489   1.152  0.00  0.00    -0.070 C 
ATOM     29  C   LIG    1        7.567   4.468   1.009  0.00  0.00    +0.070 C 
ATOM     30  C   LIG    1        5.690   5.244   2.465  0.00  0.00    +0.050 C 
ATOM     31  C   LIG    1        8.538   4.616   2.183  0.00  0.00    +0.050 C 
ATOM     32  C   LIG    1        6.661   5.391   3.638  0.00  0.00    +0.050 C 
BRANCH  25  33
ATOM     33  N   LIG    1        8.987   5.876   4.234  0.00  0.00    -0.630 N 
ATOM     34  H   LIG    1        9.906   6.103   3.883  0.00  0.00    +0.440 HD
ATOM     35  H   LIG    1        9.027   5.009   4.748  0.00  0.00    +0.440 HD
ATOM     36  H   LIG    1        8.668   6.614   4.843  0.00  0.00    +0.430 HD
ENDBRANCH  25  33
ENDBRANCH  24  28
ENDBRANCH   1  24
TORSDOF 8
