REMARK  Name = ZINCqH0000004fXk.0
REMARK                            x       y       z     vdW  Elec       q    Type
REMARK                         _______ _______ _______ _____ _____    ______ ____
ROOT
ATOM      1  C   LIG    1       -1.212   3.103  -1.212  0.00  0.00    +0.520 C 
ATOM      2  N   LIG    1       -2.171   4.046  -1.133  0.00  0.00    -0.680 N 
ATOM      3  H   LIG    1       -2.822   4.016  -0.415  0.00  0.00    +0.420 HD
ATOM      4  O   LIG    1       -0.448   3.092  -2.154  0.00  0.00    -0.500 OA
ENDROOT
BRANCH   2   5
ATOM      5  C   LIG    1       -2.226   5.070  -2.085  0.00  0.00    +0.130 A 
ATOM      6  C   LIG    1       -1.053   5.627  -2.576  0.00  0.00    +0.080 A 
ATOM      7  C   LIG    1       -1.111   6.633  -3.521  0.00  0.00    +0.020 A 
ATOM      8  C   LIG    1       -2.335   7.094  -3.969  0.00  0.00    +0.110 A 
ATOM      9  C   LIG    1       -3.505   6.545  -3.477  0.00  0.00    -0.660 A 
ATOM     10  C   LIG    1       -3.454   5.534  -2.537  0.00  0.00    +0.090 A 
BRANCH   9  11
ATOM     11  S   LIG    1       -5.063   7.134  -4.052  0.00  0.00    +2.690 S 
ATOM     12  O   LIG    1       -5.995   6.083  -3.834  0.00  0.00    -0.950 OA
ATOM     13  O   LIG    1       -4.827   7.712  -5.329  0.00  0.00    -0.950 OA
BRANCH  11  14
ATOM     14  N   LIG    1       -5.516   8.375  -3.053  0.00  0.00    -1.010 NA
ATOM     15  C   LIG    1       -6.309   8.098  -1.853  0.00  0.00    +0.300 C 
ATOM     16  C   LIG    1       -5.124   9.751  -3.370  0.00  0.00    +0.300 C 
ENDBRANCH  11  14
ENDBRANCH   9  11
ENDBRANCH   2   5
BRANCH   1  17
ATOM     17  C   LIG    1       -1.089   2.060  -0.131  0.00  0.00    +0.050 C 
BRANCH  17  18
ATOM     18  C   LIG    1       -0.051   1.042  -0.530  0.00  0.00    -0.060 A 
ATOM     19  C   LIG    1        1.269   1.423  -0.677  0.00  0.00    +0.030 A 
ATOM     20  C   LIG    1        2.220   0.491  -1.049  0.00  0.00    +0.000 A 
ATOM     21  C   LIG    1        1.850  -0.822  -1.273  0.00  0.00    +0.000 A 
ATOM     22  C   LIG    1        0.530  -1.202  -1.126  0.00  0.00    +0.000 A 
ATOM     23  C   LIG    1       -0.421  -0.270  -0.755  0.00  0.00    +0.010 A 
ENDBRANCH  17  18
BRANCH  17  24
ATOM     24  C   LIG    1       -0.669   2.730   1.179  0.00  0.00    +0.000 C 
ATOM     25  C   LIG    1       -1.613   3.896   1.480  0.00  0.00    +0.020 C 
BRANCH  24  27
ATOM     26  C   LIG    1        0.454   0.757   2.220  0.00  0.00    +0.000 C 
ATOM     27  C   LIG    1       -0.738   1.711   2.318  0.00  0.00    +0.020 C 
ENDBRANCH  24  27
ENDBRANCH  17  24
ENDBRANCH   1  17
TORSDOF 7
