REMARK  Name = ZINCvU0000000CDY.0
REMARK                            x       y       z     vdW  Elec       q    Type
REMARK                         _______ _______ _______ _____ _____    ______ ____
ROOT
ATOM      1  C   LIG    1        4.826   4.233  -0.248  0.00  0.00    -0.150 A 
ATOM      2  C   LIG    1        6.044   3.547  -0.250  0.00  0.00    +0.070 A 
ATOM      3  C   LIG    1        7.225   4.246  -0.362  0.00  0.00    -0.010 A 
ATOM      4  C   LIG    1        7.207   5.634  -0.463  0.00  0.00    +0.170 A 
ATOM      5  C   LIG    1        5.997   6.319  -0.456  0.00  0.00    +0.020 A 
ATOM      6  C   LIG    1        4.812   5.627  -0.349  0.00  0.00    +0.110 A 
ENDROOT
BRANCH   1   9
ATOM      7  N   LIG    1        3.574   2.142  -0.036  0.00  0.00    -0.660 N 
ATOM      8  H   LIG    1        4.418   1.671   0.040  0.00  0.00    +0.410 HD
ATOM      9  C   LIG    1        3.558   3.486  -0.134  0.00  0.00    +0.560 C 
ATOM     10  O   LIG    1        2.499   4.084  -0.127  0.00  0.00    -0.520 OA
BRANCH   7  16
ATOM     11  C   LIG    1        2.302   0.168   0.550  0.00  0.00    +0.100 A 
ATOM     12  C   LIG    1        1.109  -0.536   0.539  0.00  0.00    -0.060 A 
ATOM     13  C   LIG    1       -0.010   0.009  -0.063  0.00  0.00    +0.030 A 
ATOM     14  C   LIG    1        0.057   1.257  -0.653  0.00  0.00    +0.000 A 
ATOM     15  C   LIG    1        1.243   1.967  -0.646  0.00  0.00    +0.050 A 
ATOM     16  C   LIG    1        2.370   1.426  -0.045  0.00  0.00    +0.120 A 
BRANCH  11  18
ATOM     17  C   LIG    1        3.260  -1.661   1.730  0.00  0.00    +0.250 C 
ATOM     18  O   LIG    1        3.404  -0.368   1.141  0.00  0.00    -0.320 OA
ENDBRANCH  11  18
ENDBRANCH   7  16
ENDBRANCH   1   9
BRANCH   4  19
ATOM     19  N   LIG    1        8.405   6.339  -0.571  0.00  0.00    -0.670 N 
ATOM     20  H   LIG    1        9.150   5.958  -1.063  0.00  0.00    +0.420 HD
ATOM     21  C   LIG    1        8.530   7.550   0.009  0.00  0.00    +0.530 C 
ATOM     22  O   LIG    1        7.574   8.064   0.550  0.00  0.00    -0.490 OA
BRANCH  21  23
ATOM     23  C   LIG    1        9.856   8.264  -0.016  0.00  0.00    +0.080 C 
BRANCH  23  24
ATOM     24  S   LIG    1        9.701   9.856   0.839  0.00  0.00    -0.020 S 
BRANCH  24  25
ATOM     25  C   LIG    1       11.322  10.535   0.710  0.00  0.00    -0.100 A 
ATOM     26  C   LIG    1       12.324   9.828   0.058  0.00  0.00    -0.020 A 
ATOM     27  C   LIG    1       13.591  10.365  -0.041  0.00  0.00    +0.030 A 
ATOM     28  C   LIG    1       13.870  11.606   0.509  0.00  0.00    -0.100 A 
ATOM     29  C   LIG    1       15.159  12.399   0.534  0.00  0.00    +0.080 C 
ATOM     30  C   LIG    1       14.962  13.456   1.641  0.00  0.00    +0.030 C 
ATOM     31  C   LIG    1       13.428  13.627   1.666  0.00  0.00    +0.080 C 
ATOM     32  C   LIG    1       12.874  12.313   1.160  0.00  0.00    -0.080 A 
ATOM     33  C   LIG    1       11.601  11.781   1.256  0.00  0.00    +0.050 A 
ENDBRANCH  24  25
ENDBRANCH  23  24
ENDBRANCH  21  23
ENDBRANCH   4  19
TORSDOF 7
