REMARK  Name = ZINCrD00000lakQQ.0
REMARK                            x       y       z     vdW  Elec       q    Type
REMARK                         _______ _______ _______ _____ _____    ______ ____
ROOT
ATOM      1  N   LIG    1       -0.299   7.941  -2.189  0.00  0.00    -0.630 N 
ATOM      2  C   LIG    1       -0.186   7.332  -0.992  0.00  0.00    +0.710 C 
ATOM      3  N   LIG    1       -0.162   5.986  -0.921  0.00  0.00    -0.740 N 
ATOM      4  H   LIG    1       -0.225   5.456  -1.731  0.00  0.00    +0.400 HD
ATOM      5  O   LIG    1       -0.108   7.996   0.024  0.00  0.00    -0.590 OA
ATOM      6  C   LIG    1       -0.394   7.141  -3.412  0.00  0.00    +0.290 C 
ENDROOT
BRANCH   1   7
ATOM      7  C   LIG    1       -0.325   9.404  -2.266  0.00  0.00    +0.360 C 
BRANCH   7  11
ATOM      8  C   LIG    1        3.662  10.882  -2.689  0.00  0.00    +0.130 A 
ATOM      9  C   LIG    1        2.911  10.576  -3.815  0.00  0.00    -0.030 A 
ATOM     10  C   LIG    1        1.622  10.099  -3.675  0.00  0.00    +0.060 A 
ATOM     11  C   LIG    1        1.081   9.925  -2.415  0.00  0.00    -0.150 A 
ATOM     12  C   LIG    1        1.825  10.234  -1.292  0.00  0.00    +0.080 A 
ATOM     13  C   LIG    1        3.116  10.706  -1.425  0.00  0.00    -0.080 A 
BRANCH   8  15
ATOM     14  C   LIG    1        5.644  11.646  -1.621  0.00  0.00    +0.250 C 
ATOM     15  O   LIG    1        4.930  11.352  -2.824  0.00  0.00    -0.320 OA
ENDBRANCH   8  15
ENDBRANCH   7  11
ENDBRANCH   1   7
BRANCH   3  16
ATOM     16  C   LIG    1       -0.040   5.323   0.380  0.00  0.00    +0.340 C 
BRANCH  16  17
ATOM     17  C   LIG    1       -0.036   3.829   0.184  0.00  0.00    -0.090 A 
ATOM     18  C   LIG    1        1.159   3.161  -0.009  0.00  0.00    +0.020 A 
ATOM     19  C   LIG    1        1.166   1.789  -0.188  0.00  0.00    +0.030 A 
ATOM     20  C   LIG    1       -0.021   1.083  -0.176  0.00  0.00    +0.030 A 
ATOM     21  C   LIG    1       -1.223   1.752   0.012  0.00  0.00    +0.140 A 
ATOM     22  C   LIG    1       -1.227   3.128   0.199  0.00  0.00    +0.000 A 
BRANCH  21  23
ATOM     23  N   LIG    1       -2.428   1.041   0.019  0.00  0.00    -0.670 N 
ATOM     24  H   LIG    1       -3.236   1.452  -0.326  0.00  0.00    +0.410 HD
ATOM     25  C   LIG    1       -2.465  -0.215   0.506  0.00  0.00    +0.540 C 
ATOM     26  O   LIG    1       -1.479  -0.695   1.025  0.00  0.00    -0.520 OA
BRANCH  25  27
ATOM     27  C   LIG    1       -3.733  -1.025   0.405  0.00  0.00    -0.070 C 
ATOM     28  C   LIG    1       -4.476  -1.337   1.706  0.00  0.00    +0.060 C 
ATOM     29  C   LIG    1       -3.712  -2.444   0.976  0.00  0.00    +0.080 C 
ENDBRANCH  25  27
ENDBRANCH  21  23
ENDBRANCH  16  17
ENDBRANCH   3  16
TORSDOF 7
