REMARK  Name = ZINCrH000004kf50.0
REMARK                            x       y       z     vdW  Elec       q    Type
REMARK                         _______ _______ _______ _____ _____    ______ ____
ROOT
ATOM      1  C   LIG    1       -2.782   3.648   0.035  0.00  0.00    +0.230 A 
ATOM      2  N   LIG    1       -1.477   3.455   0.033  0.00  0.00    -0.470 NA
ATOM      3  C   LIG    1       -1.311   2.115   0.020  0.00  0.00    +0.230 A 
ATOM      4  N   LIG    1       -2.503   1.574   0.023  0.00  0.00    -0.380 NA
ATOM      5  O   LIG    1       -3.356   2.436   0.032  0.00  0.00    +0.090 OA
ENDROOT
BRANCH   1  10
ATOM      6  C   LIG    1       -5.519   6.234   0.060  0.00  0.00    -0.140 A 
ATOM      7  C   LIG    1       -4.770   7.413   0.062  0.00  0.00    +0.080 A 
ATOM      8  C   LIG    1       -3.391   7.358   0.056  0.00  0.00    +0.010 A 
ATOM      9  C   LIG    1       -2.742   6.140   0.052  0.00  0.00    +0.110 A 
ATOM     10  C   LIG    1       -3.478   4.953   0.044  0.00  0.00    -0.040 A 
ATOM     11  C   LIG    1       -4.870   5.001   0.051  0.00  0.00    +0.130 A 
BRANCH   6  15
ATOM     12  C   LIG    1       -9.086   7.548   0.083  0.00  0.00    +0.290 C 
ATOM     13  N   LIG    1       -7.622   7.488   0.076  0.00  0.00    -0.730 N 
ATOM     14  H   LIG    1       -7.103   8.307   0.078  0.00  0.00    +0.400 HD
ATOM     15  C   LIG    1       -6.996   6.294   0.067  0.00  0.00    +0.560 C 
ATOM     16  O   LIG    1       -7.646   5.267   0.064  0.00  0.00    -0.530 OA
ENDBRANCH   6  15
ENDBRANCH   1  10
BRANCH   3  17
ATOM     17  C   LIG    1       -0.017   1.390   0.010  0.00  0.00    -0.060 A 
ATOM     18  C   LIG    1        1.182   2.102   0.002  0.00  0.00    +0.100 A 
ATOM     19  C   LIG    1        2.383   1.426  -0.013  0.00  0.00    -0.040 A 
ATOM     20  C   LIG    1        2.400   0.036  -0.020  0.00  0.00    +0.140 A 
ATOM     21  C   LIG    1        1.205  -0.676  -0.013  0.00  0.00    -0.010 A 
ATOM     22  C   LIG    1        0.002  -0.004   0.002  0.00  0.00    +0.080 A 
BRANCH  20  23
ATOM     23  N   LIG    1        3.616  -0.646  -0.035  0.00  0.00    -0.490 N 
ATOM     24  C   LIG    1        3.709  -1.581   1.094  0.00  0.00    +0.190 C 
ATOM     25  C   LIG    1        4.987  -2.413   0.965  0.00  0.00    +0.020 C 
ATOM     26  C   LIG    1        6.199  -1.478   0.953  0.00  0.00    +0.010 C 
ATOM     27  C   LIG    1        6.055  -0.483  -0.202  0.00  0.00    +0.020 C 
ATOM     28  C   LIG    1        4.745   0.293  -0.040  0.00  0.00    +0.180 C 
ENDBRANCH  20  23
ENDBRANCH   3  17
TORSDOF 4
