REMARK  Name = ZINCrH000004k929.0
REMARK                            x       y       z     vdW  Elec       q    Type
REMARK                         _______ _______ _______ _____ _____    ______ ____
ROOT
ATOM      1  C   LIG    1       -0.232   0.473  -4.851  0.00  0.00    +0.560 C 
ATOM      2  N   LIG    1        0.081   0.027  -6.084  0.00  0.00    -0.720 N 
ATOM      3  H   LIG    1        0.612  -0.778  -6.188  0.00  0.00    +0.400 HD
ATOM      4  O   LIG    1       -0.897   1.482  -4.721  0.00  0.00    -0.540 OA
ENDROOT
BRANCH   1  13
ATOM      5  C   LIG    1       -0.018   1.465   0.010  0.00  0.00    +0.220 C 
ATOM      6  N   LIG    1        0.002  -0.004   0.002  0.00  0.00    -0.490 N 
ATOM      7  C   LIG    1        0.881  -0.524   1.056  0.00  0.00    +0.180 C 
ATOM      8  C   LIG    1        0.960  -2.050   0.918  0.00  0.00    +0.260 C 
ATOM      9  O   LIG    1        1.566  -2.347  -0.344  0.00  0.00    -0.310 OA
ATOM     10  C   LIG    1        1.114  -1.647  -1.419  0.00  0.00    +0.120 A 
ATOM     11  C   LIG    1        1.432  -2.105  -2.692  0.00  0.00    +0.010 A 
ATOM     12  C   LIG    1        0.998  -1.423  -3.807  0.00  0.00    +0.050 A 
ATOM     13  C   LIG    1        0.234  -0.263  -3.660  0.00  0.00    -0.140 A 
ATOM     14  C   LIG    1       -0.089   0.197  -2.382  0.00  0.00    +0.080 A 
ATOM     15  C   LIG    1        0.349  -0.494  -1.262  0.00  0.00    +0.030 A 
ENDBRANCH   1  13
BRANCH   2  16
ATOM     16  C   LIG    1       -0.381   0.758  -7.266  0.00  0.00    +0.290 C 
BRANCH  16  17
ATOM     17  C   LIG    1        0.108   0.045  -8.529  0.00  0.00    +0.140 C 
ATOM     18  C   LIG    1       -0.306   0.836  -9.797  0.00  0.00    +0.010 C 
ATOM     19  C   LIG    1       -0.327  -0.275 -10.878  0.00  0.00    +0.010 C 
ATOM     20  C   LIG    1       -0.462  -1.580 -10.074  0.00  0.00    +0.110 C 
ATOM     21  C   LIG    1       -1.722  -2.326 -10.510  0.00  0.00    +0.040 C 
ATOM     22  C   LIG    1       -1.852  -3.620  -9.703  0.00  0.00    +0.020 C 
ATOM     23  C   LIG    1       -0.621  -4.496  -9.942  0.00  0.00    -0.060 C 
ATOM     24  C   LIG    1        0.635  -3.747  -9.493  0.00  0.00    +0.030 C 
ATOM     25  C   LIG    1       -0.754  -5.793  -9.141  0.00  0.00    +0.010 C 
ATOM     26  C   LIG    1       -0.512  -4.827 -11.432  0.00  0.00    +0.010 C 
ATOM     27  C   LIG    1        0.772  -2.453 -10.300  0.00  0.00    +0.000 C 
ATOM     28  O   LIG    1       -0.560  -1.225  -8.687  0.00  0.00    -0.350 OA
ENDBRANCH  16  17
ENDBRANCH   2  16
TORSDOF 3
