REMARK  Name = ZINCpe000000XEU3.0
REMARK                            x       y       z     vdW  Elec       q    Type
REMARK                         _______ _______ _______ _____ _____    ______ ____
ROOT
ATOM      1  C   LIG    1        1.689   3.210   0.003  0.00  0.00    +0.610 C 
ATOM      2  N   LIG    1        3.002   3.500   0.093  0.00  0.00    -0.580 N 
ATOM      3  C   LIG    1        4.008   2.429   0.080  0.00  0.00    +0.290 C 
ATOM      4  C   LIG    1        5.034   2.730  -1.016  0.00  0.00    +0.030 C 
ATOM      5  C   LIG    1        5.611   4.131  -0.798  0.00  0.00    +0.060 C 
ATOM      6  C   LIG    1        4.488   5.166  -0.890  0.00  0.00    -0.020 C 
ATOM      7  C   LIG    1        3.455   4.893   0.202  0.00  0.00    +0.300 C 
ATOM      8  O   LIG    1        0.876   4.105  -0.121  0.00  0.00    -0.510 OA
ENDROOT
BRANCH   1  16
ATOM      9  C   LIG    1       -2.373  -0.577  -0.485  0.00  0.00    +0.160 C 
ATOM     10  C   LIG    1       -0.959  -0.960  -0.134  0.00  0.00    +0.210 A 
ATOM     11  C   LIG    1       -0.630  -2.259   0.077  0.00  0.00    -0.040 A 
ATOM     12  C   LIG    1        0.694  -2.587   0.403  0.00  0.00    +0.240 A 
ATOM     13  N   LIG    1        1.604  -1.647   0.503  0.00  0.00    -0.460 NA
ATOM     14  C   LIG    1        1.291  -0.361   0.297  0.00  0.00    +0.450 A 
ATOM     15  N   LIG    1        2.011   0.751   0.337  0.00  0.00    -0.500 NA
ATOM     16  C   LIG    1        1.236   1.800   0.054  0.00  0.00    +0.240 A 
ATOM     17  N   LIG    1        0.004   1.386  -0.173  0.00  0.00    -0.270 NA
ATOM     18  C   LIG    1        1.072  -4.026   0.641  0.00  0.00    +0.170 C 
ATOM     19  N   LIG    1        0.008  -0.007  -0.023  0.00  0.00    -0.330 N 
ENDBRANCH   1  16
BRANCH   6  20
ATOM     20  C   LIG    1        5.062   6.548  -0.708  0.00  0.00    +0.530 C 
ATOM     21  N   LIG    1        4.252   7.625  -0.751  0.00  0.00    -0.700 N 
ATOM     22  H   LIG    1        3.301   7.511  -0.900  0.00  0.00    +0.400 HD
ATOM     23  O   LIG    1        6.252   6.691  -0.523  0.00  0.00    -0.530 OA
BRANCH  21  24
ATOM     24  C   LIG    1        4.810   8.968  -0.574  0.00  0.00    +0.220 C 
ATOM     25  C   LIG    1        4.047   9.935   0.333  0.00  0.00    +0.010 C 
ATOM     26  C   LIG    1        4.038  10.139  -1.184  0.00  0.00    +0.010 C 
ENDBRANCH  21  24
ENDBRANCH   6  20
TORSDOF 3
