REMARK  Name = ZINCpe000027pHpL.0
REMARK                            x       y       z     vdW  Elec       q    Type
REMARK                         _______ _______ _______ _____ _____    ______ ____
ROOT
ATOM      1  N   LIG    1        1.421  -0.418  -0.044  0.00  0.00    -0.450 N 
ATOM      2  C   LIG    1        2.191   0.705   0.550  0.00  0.00    +0.250 C 
ATOM      3  C   LIG    1        1.468   1.960  -0.001  0.00  0.00    +0.280 C 
ATOM      4  C   LIG    1       -0.019   1.536   0.011  0.00  0.00    +0.250 C 
ATOM      5  C   LIG    1        0.002  -0.004   0.002  0.00  0.00    +0.220 C 
ENDROOT
BRANCH   1  11
ATOM      6  C   LIG    1        0.932  -2.757   0.302  0.00  0.00    -0.090 A 
ATOM      7  C   LIG    1        1.150  -3.927   1.038  0.00  0.00    +0.150 A 
ATOM      8  C   LIG    1        2.036  -3.880   2.100  0.00  0.00    -0.040 A 
ATOM      9  C   LIG    1        2.675  -2.691   2.401  0.00  0.00    +0.330 A 
ATOM     10  N   LIG    1        2.461  -1.600   1.692  0.00  0.00    -0.510 NA
ATOM     11  C   LIG    1        1.620  -1.587   0.670  0.00  0.00    +0.350 A 
BRANCH   6  13
ATOM     12  N   LIG    1       -0.694  -2.747  -1.686  0.00  0.00    -0.390 NA
ATOM     13  C   LIG    1        0.025  -2.751  -0.807  0.00  0.00    +0.250 C 
ENDBRANCH   6  13
ENDBRANCH   1  11
BRANCH   3  14
ATOM     14  N   LIG    1        1.685   3.111   0.878  0.00  0.00    -0.280 N 
ATOM     15  C   LIG    1        1.904   3.060   2.212  0.00  0.00    +0.120 A 
ATOM     16  C   LIG    1        2.054   4.342   2.619  0.00  0.00    +0.150 A 
ATOM     17  N   LIG    1        1.913   5.105   1.530  0.00  0.00    -0.260 NA
ATOM     18  N   LIG    1        1.696   4.346   0.514  0.00  0.00    -0.070 NA
ENDBRANCH   3  14
BRANCH   4  19
ATOM     19  N   LIG    1       -0.678   2.029   1.222  0.00  0.00    -0.730 N 
ATOM     20  H   LIG    1       -0.151   2.248   2.006  0.00  0.00    +0.400 HD
ATOM     21  C   LIG    1       -2.018   2.176   1.248  0.00  0.00    +0.520 C 
ATOM     22  O   LIG    1       -2.677   1.901   0.267  0.00  0.00    -0.520 OA
BRANCH  21  23
ATOM     23  C   LIG    1       -2.696   2.684   2.494  0.00  0.00    +0.090 C 
BRANCH  23  24
ATOM     24  C   LIG    1       -4.206   2.758   2.258  0.00  0.00    -0.030 C 
ATOM     25  C   LIG    1       -4.862   4.139   2.308  0.00  0.00    +0.010 C 
ATOM     26  C   LIG    1       -5.089   3.142   3.448  0.00  0.00    +0.020 C 
ENDBRANCH  23  24
ENDBRANCH  21  23
ENDBRANCH   4  19
TORSDOF 6
