REMARK  Name = ZINCrD000000AXzL.0
REMARK                            x       y       z     vdW  Elec       q    Type
REMARK                         _______ _______ _______ _____ _____    ______ ____
ROOT
ATOM      1  C   LIG    1       -1.358   5.623   2.305  0.00  0.00    -0.070 A 
ATOM      2  C   LIG    1       -0.692   6.360   1.335  0.00  0.00    +0.020 A 
ATOM      3  C   LIG    1       -0.744   7.761   1.379  0.00  0.00    +0.190 A 
ATOM      4  N   LIG    1       -1.395   8.412   2.318  0.00  0.00    -0.440 NA
ATOM      5  C   LIG    1       -2.056   7.786   3.292  0.00  0.00    +0.130 A 
ATOM      6  C   LIG    1       -2.744   8.510   4.285  0.00  0.00    +0.050 A 
ATOM      7  C   LIG    1       -3.411   7.842   5.266  0.00  0.00    +0.040 A 
ATOM      8  C   LIG    1       -3.425   6.450   5.307  0.00  0.00    +0.020 A 
ATOM      9  C   LIG    1       -2.771   5.716   4.362  0.00  0.00    +0.060 A 
ATOM     10  C   LIG    1       -2.075   6.369   3.340  0.00  0.00    -0.060 A 
ENDROOT
BRANCH   3  11
ATOM     11  C   LIG    1       -0.034   8.536   0.332  0.00  0.00    -0.010 A 
ATOM     12  C   LIG    1        0.676   7.888  -0.684  0.00  0.00    -0.020 A 
ATOM     13  C   LIG    1        1.319   8.648  -1.640  0.00  0.00    +0.260 A 
ATOM     14  N   LIG    1        1.278   9.965  -1.599  0.00  0.00    -0.480 NA
ATOM     15  C   LIG    1        0.624  10.615  -0.656  0.00  0.00    +0.260 A 
ATOM     16  C   LIG    1       -0.051   9.933   0.337  0.00  0.00    +0.020 A 
ENDBRANCH   3  11
BRANCH   1  18
ATOM     17  O   LIG    1       -1.841   3.525   3.214  0.00  0.00    -0.520 OA
ATOM     18  C   LIG    1       -1.338   4.144   2.297  0.00  0.00    +0.570 C 
ATOM     19  N   LIG    1       -0.762   3.484   1.273  0.00  0.00    -0.720 N 
ATOM     20  H   LIG    1       -0.360   3.978   0.542  0.00  0.00    +0.400 HD
BRANCH  19  21
ATOM     21  C   LIG    1       -0.742   2.019   1.265  0.00  0.00    +0.280 C 
BRANCH  21  22
ATOM     22  C   LIG    1       -0.035   1.526   0.002  0.00  0.00    +0.020 C 
BRANCH  22  23
ATOM     23  C   LIG    1       -0.014  -0.004  -0.007  0.00  0.00    +0.330 C 
BRANCH  23  24
ATOM     24  N   LIG    1        0.663  -0.477  -1.217  0.00  0.00    -0.380 N 
ATOM     25  C   LIG    1        1.718  -1.317  -1.259  0.00  0.00    +0.220 A 
ATOM     26  C   LIG    1        2.044  -1.504  -2.559  0.00  0.00    -0.120 A 
ATOM     27  C   LIG    1        1.158  -0.753  -3.338  0.00  0.00    +0.230 A 
ATOM     28  N   LIG    1        0.326  -0.141  -2.534  0.00  0.00    -0.300 NA
ENDBRANCH  23  24
ENDBRANCH  22  23
ENDBRANCH  21  22
ENDBRANCH  19  21
ENDBRANCH   1  18
TORSDOF 6
