REMARK  Name = ZINCqH00000352kY.0
REMARK                            x       y       z     vdW  Elec       q    Type
REMARK                         _______ _______ _______ _____ _____    ______ ____
ROOT
ATOM      1  N   LIG    1        0.644   4.950  -1.413  0.00  0.00    -0.670 N 
ATOM      2  H   LIG    1        1.546   5.159  -1.706  0.00  0.00    +0.420 HD
ATOM      3  C   LIG    1       -0.383   5.742  -1.781  0.00  0.00    +0.520 C 
ATOM      4  O   LIG    1       -1.491   5.546  -1.329  0.00  0.00    -0.480 OA
ENDROOT
BRANCH   1  12
ATOM      5  C   LIG    1       -0.400   2.788  -1.082  0.00  0.00    -0.100 A 
ATOM      6  C   LIG    1       -0.621   1.670  -0.272  0.00  0.00    +0.010 A 
ATOM      7  C   LIG    1       -0.049   1.607   0.983  0.00  0.00    +0.040 A 
ATOM      8  C   LIG    1        0.751   2.641   1.439  0.00  0.00    +0.080 A 
ATOM      9  C   LIG    1        0.982   3.749   0.648  0.00  0.00    -0.090 A 
ATOM     10  C   LIG    1        1.854   4.868   1.156  0.00  0.00    +0.110 C 
ATOM     11 CL   LIG    1       -1.616   0.367  -0.840  0.00  0.00    -0.040 Cl
ATOM     12  C   LIG    1        0.412   3.834  -0.614  0.00  0.00    +0.200 A 
BRANCH   5  13
ATOM     13  C   LIG    1       -1.011   2.866  -2.420  0.00  0.00    +0.520 C 
ATOM     14  O   LIG    1       -0.308   3.006  -3.402  0.00  0.00    -0.500 OA
BRANCH  13  16
ATOM     15  C   LIG    1       -2.882   2.866  -3.904  0.00  0.00    +0.270 C 
ATOM     16  O   LIG    1       -2.349   2.782  -2.556  0.00  0.00    -0.330 OA
ENDBRANCH  13  16
ENDBRANCH   5  13
ENDBRANCH   1  12
BRANCH   3  17
ATOM     17  C   LIG    1       -0.154   6.870  -2.754  0.00  0.00    +0.180 C 
ATOM     18  C   LIG    1        0.873   7.843  -2.174  0.00  0.00    +0.060 C 
BRANCH  17  19
ATOM     19  O   LIG    1       -1.386   7.558  -2.984  0.00  0.00    -0.280 OA
BRANCH  19  20
ATOM     20  C   LIG    1       -1.566   8.105  -4.213  0.00  0.00    +0.160 A 
ATOM     21  C   LIG    1       -2.789   8.674  -4.545  0.00  0.00    +0.000 A 
ATOM     22  C   LIG    1       -2.975   9.235  -5.789  0.00  0.00    +0.110 A 
ATOM     23  C   LIG    1       -1.934   9.222  -6.722  0.00  0.00    -0.070 A 
ATOM     24  C   LIG    1       -0.708   8.643  -6.386  0.00  0.00    +0.120 A 
ATOM     25  C   LIG    1       -0.529   8.089  -5.137  0.00  0.00    -0.080 A 
BRANCH  23  26
ATOM     26  C   LIG    1       -2.125   9.798  -8.019  0.00  0.00    +0.250 C 
ATOM     27  N   LIG    1       -2.276  10.256  -9.047  0.00  0.00    -0.420 NA
ENDBRANCH  23  26
ENDBRANCH  19  20
ENDBRANCH  17  19
ENDBRANCH   3  17
TORSDOF 7
