REMARK  Name = ZINCrH000004np8p.0
REMARK                            x       y       z     vdW  Elec       q    Type
REMARK                         _______ _______ _______ _____ _____    ______ ____
ROOT
ATOM      1  C   LIG    1        0.119   1.172  -0.459  0.00  0.00    +0.520 C 
ATOM      2  N   LIG    1        0.030  -0.156  -0.249  0.00  0.00    -0.600 N 
ATOM      3  C   LIG    1        1.243  -0.981  -0.412  0.00  0.00    +0.260 C 
ATOM      4  C   LIG    1        1.375  -2.038   0.704  0.00  0.00    +0.020 C 
ATOM      5  C   LIG    1        0.975  -1.447   2.033  0.00  0.00    +0.010 C 
ATOM      6  C   LIG    1       -0.510  -1.698   2.272  0.00  0.00    +0.000 C 
ATOM      7  C   LIG    1       -1.400  -0.698   1.662  0.00  0.00    +0.010 C 
ATOM      8  C   LIG    1       -1.251  -0.715   0.121  0.00  0.00    +0.250 C 
ATOM      9  O   LIG    1       -0.876   1.863  -0.407  0.00  0.00    -0.520 OA
ENDROOT
BRANCH   8  10
ATOM     10  C   LIG    1       -2.371   0.117  -0.508  0.00  0.00    +0.010 C 
ATOM     11  C   LIG    1       -2.138   0.235  -2.018  0.00  0.00    +0.030 C 
ATOM     12  C   LIG    1       -3.330   0.946  -2.662  0.00  0.00    +0.010 C 
ATOM     13  C   LIG    1       -4.594   0.103  -2.484  0.00  0.00    +0.020 C 
ATOM     14  C   LIG    1       -4.919  -0.020  -0.992  0.00  0.00    +0.020 C 
ATOM     15  C   LIG    1       -3.701  -0.564  -0.278  0.00  0.00    +0.360 C 
ATOM     16  O   LIG    1       -3.789  -1.518   0.458  0.00  0.00    -0.460 OA
ENDBRANCH   8  10
BRANCH   1  17
ATOM     17  C   LIG    1        1.456   1.799  -0.764  0.00  0.00    +0.120 C 
BRANCH  17  23
ATOM     18  C   LIG    1        1.021   3.796  -2.216  0.00  0.00    +0.180 A 
ATOM     19  C   LIG    1        0.857   5.163  -2.388  0.00  0.00    -0.110 A 
ATOM     20  C   LIG    1        0.964   6.014  -1.306  0.00  0.00    +0.090 A 
ATOM     21  C   LIG    1        1.230   5.507  -0.048  0.00  0.00    -0.110 A 
ATOM     22  C   LIG    1        1.389   4.140   0.130  0.00  0.00    +0.180 A 
ATOM     23  C   LIG    1        1.282   3.283  -0.955  0.00  0.00    -0.130 A 
BRANCH  18  25
ATOM     24  C   LIG    1        0.651   3.556  -4.552  0.00  0.00    +0.250 C 
ATOM     25  O   LIG    1        0.921   2.959  -3.282  0.00  0.00    -0.310 OA
ENDBRANCH  18  25
BRANCH  22  26
ATOM     26  O   LIG    1        1.651   3.642   1.367  0.00  0.00    -0.310 OA
ATOM     27  C   LIG    1        1.747   4.582   2.438  0.00  0.00    +0.250 C 
ENDBRANCH  22  26
ENDBRANCH  17  23
ENDBRANCH   1  17
TORSDOF 5
