REMARK  Name = ZINCkj000005m5Rz.0
REMARK                            x       y       z     vdW  Elec       q    Type
REMARK                         _______ _______ _______ _____ _____    ______ ____
ROOT
ATOM      1  O   LIG    1       -2.382  -0.629  -0.073  0.00  0.00    -0.510 OA
ATOM      2  C   LIG    1       -3.112   0.336   0.035  0.00  0.00    +0.580 C 
ATOM      3  N   LIG    1       -4.444   0.164   0.149  0.00  0.00    -0.620 N 
ATOM      4  C   LIG    1       -5.447   1.239   0.177  0.00  0.00    +0.250 C 
ATOM      5  C   LIG    1       -6.832   0.573   0.344  0.00  0.00    +0.070 C 
ATOM      6  C   LIG    1       -6.479  -0.803   0.931  0.00  0.00    -0.100 C 
ATOM      7  C   LIG    1       -7.548  -1.848   0.610  0.00  0.00    +0.100 C 
ATOM      8  C   LIG    1       -8.004  -2.373   1.992  0.00  0.00    +0.280 C 
ATOM      9  N   LIG    1       -7.669  -1.278   2.940  0.00  0.00    -0.520 N 
ATOM     10  H   LIG    1       -7.578  -1.640   3.878  0.00  0.00    +0.440 HD
ATOM     11  H   LIG    1       -8.373  -0.556   2.906  0.00  0.00    +0.430 HD
ATOM     12  C   LIG    1       -6.362  -0.754   2.456  0.00  0.00    +0.290 C 
ATOM     13  C   LIG    1       -5.136  -1.136   0.260  0.00  0.00    +0.300 C 
ENDROOT
BRANCH   2  14
ATOM     14  C   LIG    1       -2.538   1.704   0.040  0.00  0.00    +0.010 A 
ATOM     15  C   LIG    1       -2.433   2.434   1.231  0.00  0.00    -0.130 A 
ATOM     16  C   LIG    1       -2.767   2.221   2.581  0.00  0.00    -0.120 A 
ATOM     17  C   LIG    1       -2.410   3.351   3.252  0.00  0.00    +0.250 A 
ATOM     18  N   LIG    1       -1.886   4.252   2.421  0.00  0.00    -0.530 NA
ATOM     19  C   LIG    1       -1.862   3.790   1.183  0.00  0.00    +0.260 A 
ATOM     20  N   LIG    1       -1.443   4.282  -0.020  0.00  0.00    -0.480 N 
ATOM     21  H   LIG    1       -1.061   5.173  -0.066  0.00  0.00    +0.430 HD
ATOM     22  C   LIG    1       -1.554   3.551  -1.138  0.00  0.00    +0.340 A 
ATOM     23  C   LIG    1       -2.081   2.296  -1.143  0.00  0.00    -0.030 A 
ENDBRANCH   2  14
TORSDOF 1
