REMARK  Name = ZINCkj000005m5Rz.1
REMARK                            x       y       z     vdW  Elec       q    Type
REMARK                         _______ _______ _______ _____ _____    ______ ____
ROOT
ATOM      1  O   LIG    1        0.287  -2.808   0.072  0.00  0.00    -0.510 OA
ATOM      2  C   LIG    1        1.306  -2.153  -0.023  0.00  0.00    +0.590 C 
ATOM      3  N   LIG    1        2.498  -2.772  -0.140  0.00  0.00    -0.620 N 
ATOM      4  C   LIG    1        3.810  -2.108  -0.161  0.00  0.00    +0.260 C 
ATOM      5  C   LIG    1        4.881  -3.210  -0.334  0.00  0.00    +0.070 C 
ATOM      6  C   LIG    1        4.076  -4.375  -0.931  0.00  0.00    -0.100 C 
ATOM      7  C   LIG    1        4.720  -5.726  -0.618  0.00  0.00    +0.100 C 
ATOM      8  C   LIG    1        4.969  -6.367  -2.004  0.00  0.00    +0.280 C 
ATOM      9  N   LIG    1        5.033  -5.217  -2.944  0.00  0.00    -0.520 N 
ATOM     10  H   LIG    1        4.825  -5.518  -3.884  0.00  0.00    +0.440 HD
ATOM     11  H   LIG    1        5.943  -4.781  -2.906  0.00  0.00    +0.430 HD
ATOM     12  C   LIG    1        3.986  -4.278  -2.455  0.00  0.00    +0.290 C 
ATOM     13  C   LIG    1        2.700  -4.230  -0.261  0.00  0.00    +0.300 C 
ENDROOT
BRANCH   2  14
ATOM     14  C   LIG    1        1.240  -0.677  -0.011  0.00  0.00    -0.050 A 
ATOM     15  C   LIG    1        0.279   0.015  -0.773  0.00  0.00    -0.110 A 
ATOM     16  C   LIG    1       -0.792  -0.390  -1.677  0.00  0.00    -0.050 A 
ATOM     17  C   LIG    1       -1.383   0.737  -2.114  0.00  0.00    +0.270 A 
ATOM     18  N   LIG    1       -0.776   1.827  -1.556  0.00  0.00    -0.580 N 
ATOM     19  H   LIG    1       -1.028   2.749  -1.721  0.00  0.00    +0.430 HD
ATOM     20  C   LIG    1        0.250   1.424  -0.733  0.00  0.00    +0.290 A 
ATOM     21  N   LIG    1        1.121   2.081   0.017  0.00  0.00    -0.480 NA
ATOM     22  C   LIG    1        2.029   1.460   0.739  0.00  0.00    +0.310 A 
ATOM     23  C   LIG    1        2.127   0.080   0.757  0.00  0.00    -0.030 A 
ENDBRANCH   2  14
TORSDOF 1
