REMARK  Name = ZINCrH000004umim.0
REMARK                            x       y       z     vdW  Elec       q    Type
REMARK                         _______ _______ _______ _____ _____    ______ ____
ROOT
ATOM      1  O   LIG    1       -1.469   2.091   3.808  0.00  0.00    -0.500 OA
ATOM      2  C   LIG    1       -0.473   1.407   3.684  0.00  0.00    +0.570 C 
ATOM      3  N   LIG    1       -0.020   1.094   2.454  0.00  0.00    -0.710 N 
ATOM      4  H   LIG    1        0.775   0.547   2.354  0.00  0.00    +0.410 HD
ENDROOT
BRANCH   2   5
ATOM      5  C   LIG    1        0.244   0.915   4.886  0.00  0.00    +0.170 A 
ATOM      6  N   LIG    1        1.336   0.165   4.761  0.00  0.00    -0.490 NA
ATOM      7  C   LIG    1        1.979  -0.275   5.831  0.00  0.00    +0.490 A 
ATOM      8  N   LIG    1        1.567   0.010   7.058  0.00  0.00    -0.520 NA
ATOM      9  C   LIG    1        0.491   0.750   7.260  0.00  0.00    +0.380 A 
ATOM     10  C   LIG    1       -0.212   1.237   6.165  0.00  0.00    -0.130 A 
ATOM     11 CL   LIG    1       -1.628   2.219   6.383  0.00  0.00    +0.000 Cl
BRANCH   7  12
ATOM     12  N   LIG    1        3.112  -1.053   5.664  0.00  0.00    -0.440 N 
ATOM     13  C   LIG    1        4.181  -0.294   4.965  0.00  0.00    +0.210 C 
ATOM     14  C   LIG    1        5.468  -1.075   5.331  0.00  0.00    +0.040 C 
ATOM     15  C   LIG    1        5.213  -1.491   6.798  0.00  0.00    +0.020 C 
ATOM     16  C   LIG    1        3.684  -1.444   6.970  0.00  0.00    +0.220 C 
ENDBRANCH   7  12
ENDBRANCH   2   5
BRANCH   3  17
ATOM     17  C   LIG    1       -0.729   1.579   1.267  0.00  0.00    +0.290 C 
BRANCH  17  18
ATOM     18  C   LIG    1       -0.013   1.086   0.008  0.00  0.00    +0.070 C 
BRANCH  18  19
ATOM     19  C   LIG    1       -0.742   1.585  -1.213  0.00  0.00    -0.030 A 
ATOM     20  C   LIG    1       -1.681   0.783  -1.833  0.00  0.00    +0.030 A 
ATOM     21  C   LIG    1       -2.350   1.241  -2.953  0.00  0.00    +0.060 A 
ATOM     22  C   LIG    1       -2.079   2.501  -3.453  0.00  0.00    +0.020 A 
ATOM     23  C   LIG    1       -1.140   3.304  -2.832  0.00  0.00    +0.070 A 
ATOM     24  C   LIG    1       -0.474   2.847  -1.710  0.00  0.00    -0.180 A 
BRANCH  24  25
ATOM     25  C   LIG    1        0.546   3.724  -1.030  0.00  0.00    +0.510 C 
ATOM     26  F   LIG    1        1.791   3.086  -1.041  0.00  0.00    -0.170 F 
ATOM     27  F   LIG    1        0.153   3.957   0.292  0.00  0.00    -0.170 F 
ATOM     28  F   LIG    1        0.640   4.943  -1.710  0.00  0.00    -0.180 F 
ENDBRANCH  24  25
ENDBRANCH  18  19
ENDBRANCH  17  18
ENDBRANCH   3  17
TORSDOF 6
