REMARK  Name = ZINCpe00000bpPDW.0
REMARK                            x       y       z     vdW  Elec       q    Type
REMARK                         _______ _______ _______ _____ _____    ______ ____
ROOT
ATOM      1  C   LIG    1       -3.416   2.284   1.096  0.00  0.00    +0.250 C 
ATOM      2  C   LIG    1       -4.312   2.899   2.175  0.00  0.00    +0.050 C 
ATOM      3  C   LIG    1       -5.313   3.852   1.518  0.00  0.00    +0.200 C 
ATOM      4  N   LIG    1       -6.126   3.115   0.541  0.00  0.00    -0.450 N 
ATOM      5  C   LIG    1       -5.291   2.557  -0.530  0.00  0.00    +0.220 C 
ATOM      6  C   LIG    1       -4.291   1.564   0.065  0.00  0.00    +0.030 C 
ENDROOT
BRANCH   4   7
ATOM      7  C   LIG    1       -7.128   3.919   0.022  0.00  0.00    +0.360 A 
ATOM      8  N   LIG    1       -7.180   4.417  -1.191  0.00  0.00    -0.310 NA
ATOM      9  N   LIG    1       -8.250   5.114  -1.331  0.00  0.00    -0.280 NA
ATOM     10  C   LIG    1       -8.939   5.103  -0.226  0.00  0.00    +0.180 A 
ATOM     11  C   LIG    1      -10.253   5.801   0.015  0.00  0.00    +0.200 C 
ATOM     12  N   LIG    1       -8.252   4.337   0.674  0.00  0.00    -0.470 N 
BRANCH  12  13
ATOM     13  C   LIG    1       -8.640   4.030   2.053  0.00  0.00    +0.320 C 
BRANCH  13  14
ATOM     14  C   LIG    1       -9.374   2.689   2.091  0.00  0.00    -0.040 C 
ATOM     15  C   LIG    1       -9.715   2.298   3.546  0.00  0.00    +0.010 C 
ATOM     16  C   LIG    1      -11.258   2.226   3.564  0.00  0.00    +0.200 C 
ATOM     17  O   LIG    1      -11.632   1.977   2.191  0.00  0.00    -0.370 OA
ATOM     18  C   LIG    1      -10.752   2.806   1.401  0.00  0.00    +0.200 C 
ENDBRANCH  13  14
ENDBRANCH  12  13
ENDBRANCH   4   7
BRANCH   1  19
ATOM     19  N   LIG    1       -2.495   1.326   1.712  0.00  0.00    -0.990 NA
BRANCH  19  20
ATOM     20  S   LIG    1       -0.862   1.597   1.659  0.00  0.00    +2.600 S 
ATOM     21  O   LIG    1       -0.744   3.008   1.548  0.00  0.00    -0.950 OA
ATOM     22  O   LIG    1       -0.356   0.906   2.794  0.00  0.00    -0.950 OA
ATOM     23  C   LIG    1       -0.319   0.789   0.129  0.00  0.00    -0.280 C 
ENDBRANCH  19  20
BRANCH  19  25
ATOM     24  C   LIG    1       -3.329   0.450   3.837  0.00  0.00    +0.020 C 
ATOM     25  C   LIG    1       -3.019   0.129   2.374  0.00  0.00    +0.280 C 
ENDBRANCH  19  25
ENDBRANCH   1  19
TORSDOF 6
