REMARK  Name = ZINCqH000003637A.0
REMARK                            x       y       z     vdW  Elec       q    Type
REMARK                         _______ _______ _______ _____ _____    ______ ____
ROOT
ATOM      1  N   LIG    1       -0.023   0.950   0.024  0.00  0.00    -0.670 N 
ATOM      2  H   LIG    1       -0.118   0.008   0.237  0.00  0.00    +0.410 HD
ATOM      3  C   LIG    1        1.201   1.471  -0.196  0.00  0.00    +0.710 C 
ATOM      4  N   LIG    1        2.295   0.694  -0.074  0.00  0.00    -0.620 N 
ATOM      5  C   LIG    1        2.174  -0.750   0.180  0.00  0.00    +0.300 C 
ATOM      6  C   LIG    1        2.741  -1.519  -1.018  0.00  0.00    +0.110 C 
ATOM      7  C   LIG    1        4.061  -0.904  -1.417  0.00  0.00    +0.080 A 
ATOM      8  C   LIG    1        4.461   0.333  -1.054  0.00  0.00    -0.180 A 
ATOM      9  C   LIG    1        5.769   0.550  -1.636  0.00  0.00    -0.090 A 
ATOM     10  C   LIG    1        6.656   1.630  -1.601  0.00  0.00    +0.060 A 
ATOM     11  C   LIG    1        7.838   1.484  -2.285  0.00  0.00    -0.030 A 
ATOM     12  C   LIG    1        8.149   0.327  -2.979  0.00  0.00    +0.020 A 
ATOM     13  C   LIG    1        7.289  -0.757  -3.031  0.00  0.00    +0.000 A 
ATOM     14  C   LIG    1        6.082  -0.638  -2.345  0.00  0.00    +0.100 A 
ATOM     15  N   LIG    1        5.029  -1.493  -2.190  0.00  0.00    -0.580 N 
ATOM     16  H   LIG    1        4.974  -2.385  -2.569  0.00  0.00    +0.420 HD
ATOM     17  C   LIG    1        3.648   1.266  -0.197  0.00  0.00    +0.390 C 
ATOM     18  O   LIG    1        1.317   2.641  -0.505  0.00  0.00    -0.560 OA
ENDROOT
BRANCH   1  23
ATOM     19  C   LIG    1       -2.142   3.943  -0.314  0.00  0.00    +0.120 A 
ATOM     20  C   LIG    1       -3.407   3.382  -0.227  0.00  0.00    -0.070 A 
ATOM     21  C   LIG    1       -3.550   2.017  -0.057  0.00  0.00    -0.010 A 
ATOM     22  C   LIG    1       -2.430   1.206   0.021  0.00  0.00    +0.050 A 
ATOM     23  C   LIG    1       -1.158   1.768  -0.060  0.00  0.00    +0.180 A 
ATOM     24  C   LIG    1       -1.017   3.136  -0.231  0.00  0.00    +0.040 A 
BRANCH  19  26
ATOM     25  C   LIG    1       -3.205   6.056  -0.559  0.00  0.00    +0.230 C 
ATOM     26  O   LIG    1       -2.004   5.285  -0.481  0.00  0.00    -0.310 OA
ENDBRANCH  19  26
BRANCH  22  27
ATOM     27  O   LIG    1       -2.572  -0.138   0.182  0.00  0.00    -0.330 OA
ATOM     28  C   LIG    1       -3.906  -0.644   0.258  0.00  0.00    +0.240 C 
ENDBRANCH  22  27
ENDBRANCH   1  23
TORSDOF 3
