REMARK  Name = ZINCqH0000037j77.0
REMARK                            x       y       z     vdW  Elec       q    Type
REMARK                         _______ _______ _______ _____ _____    ______ ____
ROOT
ATOM      1  C   LIG    1       -0.636   3.240   1.404  0.00  0.00    +0.520 C 
ATOM      2  N   LIG    1        0.383   3.978   1.885  0.00  0.00    -0.670 N 
ATOM      3  H   LIG    1        1.213   3.549   2.145  0.00  0.00    +0.420 HD
ATOM      4  O   LIG    1       -1.638   3.785   0.991  0.00  0.00    -0.480 OA
ENDROOT
BRANCH   2   5
ATOM      5  C   LIG    1        0.244   5.365   2.010  0.00  0.00    +0.200 A 
ATOM      6  C   LIG    1        1.345   6.194   1.831  0.00  0.00    -0.030 A 
ATOM      7  C   LIG    1        1.203   7.562   1.950  0.00  0.00    +0.150 A 
ATOM      8  C   LIG    1       -0.030   8.107   2.257  0.00  0.00    -0.680 A 
ATOM      9  C   LIG    1       -1.127   7.285   2.441  0.00  0.00    +0.150 A 
ATOM     10  C   LIG    1       -0.993   5.915   2.318  0.00  0.00    +0.000 A 
BRANCH   8  11
ATOM     11  S   LIG    1       -0.205   9.853   2.415  0.00  0.00    +2.500 S 
ATOM     12  O   LIG    1       -1.571  10.098   2.110  0.00  0.00    -0.940 OA
ATOM     13  O   LIG    1        0.833  10.384   1.603  0.00  0.00    -0.940 OA
ATOM     14  C   LIG    1        0.125  10.185   4.168  0.00  0.00    -0.260 C 
ENDBRANCH   8  11
ENDBRANCH   2   5
BRANCH   1  16
ATOM     15  C   LIG    1        0.585   1.319   0.420  0.00  0.00    +0.060 C 
ATOM     16  C   LIG    1       -0.531   1.736   1.379  0.00  0.00    +0.170 C 
BRANCH  16  17
ATOM     17  O   LIG    1       -1.771   1.180   0.938  0.00  0.00    -0.290 OA
BRANCH  17  18
ATOM     18  C   LIG    1       -2.049  -0.093   1.326  0.00  0.00    +0.120 A 
ATOM     19  C   LIG    1       -3.284  -0.653   1.036  0.00  0.00    -0.010 A 
ATOM     20  C   LIG    1       -3.562  -1.949   1.427  0.00  0.00    +0.060 A 
ATOM     21  C   LIG    1       -2.614  -2.683   2.116  0.00  0.00    -0.100 A 
ATOM     22  C   LIG    1       -1.384  -2.124   2.411  0.00  0.00    +0.050 A 
ATOM     23  C   LIG    1       -1.100  -0.831   2.017  0.00  0.00    -0.080 A 
BRANCH  21  24
ATOM     24  C   LIG    1       -2.922  -4.094   2.546  0.00  0.00    -0.030 C 
ATOM     25  C   LIG    1       -1.917  -5.053   1.906  0.00  0.00    +0.040 C 
ATOM     26  C   LIG    1       -4.338  -4.466   2.100  0.00  0.00    +0.030 C 
ATOM     27  C   LIG    1       -2.825  -4.195   4.070  0.00  0.00    +0.040 C 
ENDBRANCH  21  24
ENDBRANCH  17  18
ENDBRANCH  16  17
ENDBRANCH   1  16
TORSDOF 6
