REMARK  Name = ZINCpk000005JPNc.0
REMARK                            x       y       z     vdW  Elec       q    Type
REMARK                         _______ _______ _______ _____ _____    ______ ____
ROOT
ATOM      1  N   LIG    1        2.256   3.118   1.965  0.00  0.00    -0.700 N 
ATOM      2  H   LIG    1        2.772   2.307   2.095  0.00  0.00    +0.410 HD
ATOM      3  C   LIG    1        2.389   4.146   2.826  0.00  0.00    +0.580 C 
ATOM      4  O   LIG    1        1.742   5.162   2.663  0.00  0.00    -0.510 OA
ENDROOT
BRANCH   3   5
ATOM      5  C   LIG    1        3.323   4.039   3.970  0.00  0.00    +0.180 A 
ATOM      6  C   LIG    1        3.476   5.098   4.877  0.00  0.00    -0.160 A 
ATOM      7  C   LIG    1        2.902   6.430   5.021  0.00  0.00    +0.010 A 
ATOM      8  C   LIG    1        3.459   6.980   6.115  0.00  0.00    +0.260 A 
ATOM      9  N   LIG    1        4.344   6.102   6.680  0.00  0.00    -0.570 N 
ATOM     10  H   LIG    1        4.867   6.276   7.478  0.00  0.00    +0.430 HD
ATOM     11  C   LIG    1        4.382   4.941   5.954  0.00  0.00    +0.320 A 
ATOM     12  N   LIG    1        5.048   3.801   6.060  0.00  0.00    -0.510 NA
ATOM     13  C   LIG    1        4.871   2.833   5.183  0.00  0.00    +0.520 A 
ATOM     14  N   LIG    1        4.036   2.931   4.168  0.00  0.00    -0.510 NA
ENDBRANCH   3   5
BRANCH   1  18
ATOM     15  N   LIG    1       -0.017   1.381   0.010  0.00  0.00    -0.460 N 
ATOM     16  C   LIG    1       -0.650   1.898   1.250  0.00  0.00    +0.200 C 
ATOM     17  C   LIG    1       -0.124   3.353   1.337  0.00  0.00    +0.060 C 
ATOM     18  C   LIG    1        1.332   3.224   0.833  0.00  0.00    +0.160 C 
ATOM     19  C   LIG    1        1.700   4.426  -0.040  0.00  0.00    +0.050 C 
ATOM     20  C   LIG    1        1.357   1.930  -0.001  0.00  0.00    +0.230 C 
BRANCH  15  24
ATOM     21  C   LIG    1       -2.378  -2.938   0.011  0.00  0.00    +0.140 C 
ATOM     22  C   LIG    1       -1.119  -2.109   0.002  0.00  0.00    +0.190 A 
ATOM     23  C   LIG    1       -1.191  -0.730   0.015  0.00  0.00    -0.090 A 
ATOM     24  C   LIG    1        0.002  -0.004   0.002  0.00  0.00    +0.350 A 
ATOM     25  N   LIG    1        1.156  -0.664  -0.013  0.00  0.00    -0.560 NA
ATOM     26  C   LIG    1        1.178  -1.982  -0.019  0.00  0.00    +0.530 A 
ATOM     27  N   LIG    1        0.070  -2.695  -0.012  0.00  0.00    -0.540 NA
ENDBRANCH  15  24
ENDBRANCH   1  18
TORSDOF 3
