REMARK  Name = ZINCrD00000F5Ll8.0
REMARK                            x       y       z     vdW  Elec       q    Type
REMARK                         _______ _______ _______ _____ _____    ______ ____
ROOT
ATOM      1  C   LIG    1        3.996  -1.617   1.546  0.00  0.00    +0.510 C 
ATOM      2  N   LIG    1        5.142  -0.947   1.784  0.00  0.00    -0.730 N 
ATOM      3  H   LIG    1        5.747  -0.746   1.052  0.00  0.00    +0.400 HD
ATOM      4  O   LIG    1        3.240  -1.867   2.460  0.00  0.00    -0.520 OA
ENDROOT
BRANCH   1   5
ATOM      5  C   LIG    1        3.655  -2.054   0.145  0.00  0.00    +0.110 C 
BRANCH   5  11
ATOM      6  C   LIG    1        1.147  -2.057   0.073  0.00  0.00    +0.160 A 
ATOM      7  C   LIG    1       -0.069  -2.728   0.073  0.00  0.00    +0.010 A 
ATOM      8  C   LIG    1       -0.096  -4.106   0.158  0.00  0.00    +0.030 A 
ATOM      9  C   LIG    1        1.086  -4.819   0.242  0.00  0.00    -0.020 A 
ATOM     10  C   LIG    1        2.299  -4.154   0.242  0.00  0.00    +0.030 A 
ATOM     11  C   LIG    1        2.333  -2.776   0.151  0.00  0.00    -0.100 A 
BRANCH   6  13
ATOM     12  C   LIG    1        0.151   0.001  -0.580  0.00  0.00    +0.540 C 
ATOM     13  N   LIG    1        1.178  -0.662  -0.013  0.00  0.00    -0.660 N 
ATOM     14  H   LIG    1        1.939  -0.172   0.337  0.00  0.00    +0.410 HD
ATOM     15  O   LIG    1       -0.754  -0.616  -1.107  0.00  0.00    -0.520 OA
BRANCH  12  17
ATOM     16  C   LIG    1       -0.885   2.127  -1.127  0.00  0.00    +0.160 C 
ATOM     17  C   LIG    1        0.126   1.472  -0.562  0.00  0.00    -0.090 C 
ENDBRANCH  12  17
ENDBRANCH   6  13
ENDBRANCH   5  11
ENDBRANCH   1   5
BRANCH   2  18
ATOM     18  C   LIG    1        5.473  -0.522   3.146  0.00  0.00    +0.350 C 
BRANCH  18  19
ATOM     19  C   LIG    1        6.795   0.201   3.139  0.00  0.00    -0.270 A 
ATOM     20  C   LIG    1        8.012  -0.365   3.310  0.00  0.00    +0.250 A 
ATOM     21  N   LIG    1        8.936   0.616   3.234  0.00  0.00    -0.360 N 
ATOM     22  N   LIG    1        8.264   1.826   3.017  0.00  0.00    -0.290 NA
ATOM     23  C   LIG    1        6.981   1.576   2.961  0.00  0.00    +0.240 A 
BRANCH  21  24
ATOM     24  C   LIG    1       10.386   0.447   3.361  0.00  0.00    +0.260 C 
ATOM     25  C   LIG    1       10.800  -0.888   2.739  0.00  0.00    +0.010 C 
ATOM     26  C   LIG    1       12.314  -1.065   2.872  0.00  0.00    +0.020 C 
ATOM     27  C   LIG    1       12.701  -1.050   4.352  0.00  0.00    +0.010 C 
ATOM     28  C   LIG    1       12.287   0.285   4.974  0.00  0.00    +0.020 C 
ATOM     29  C   LIG    1       10.773   0.462   4.841  0.00  0.00    +0.010 C 
ENDBRANCH  21  24
ENDBRANCH  18  19
ENDBRANCH   2  18
TORSDOF 7
