REMARK  Name = ZINCc70000001Ezm.0
REMARK                            x       y       z     vdW  Elec       q    Type
REMARK                         _______ _______ _______ _____ _____    ______ ____
ROOT
ATOM      1  C   LIG    1        1.085   1.727  -0.153  0.00  0.00    -0.750 A 
ATOM      2  C   LIG    1       -0.032   0.924  -0.032  0.00  0.00    +0.160 A 
ATOM      3  C   LIG    1       -1.254   1.482   0.294  0.00  0.00    -0.060 A 
ATOM      4  C   LIG    1       -1.361   2.844   0.510  0.00  0.00    +0.110 A 
ATOM      5  C   LIG    1       -0.248   3.653   0.390  0.00  0.00    -0.080 A 
ATOM      6  C   LIG    1        0.981   3.096   0.058  0.00  0.00    +0.310 A 
ENDROOT
BRANCH   1   7
ATOM      7  S   LIG    1        2.641   1.016  -0.576  0.00  0.00    +2.700 S 
ATOM      8  O   LIG    1        3.162   1.796  -1.644  0.00  0.00    -0.960 OA
ATOM      9  O   LIG    1        2.429  -0.386  -0.670  0.00  0.00    -0.960 OA
BRANCH   7  11
ATOM     10  C   LIG    1        3.372   0.599   1.994  0.00  0.00    +0.290 C 
ATOM     11  N   LIG    1        3.654   1.251   0.712  0.00  0.00    -1.130 NA
ATOM     12  H   LIG    1        4.433   1.820   0.619  0.00  0.00    +0.420 HD
ENDBRANCH   7  11
ENDBRANCH   1   7
BRANCH   6  13
ATOM     13  N   LIG    1        2.108   3.911  -0.064  0.00  0.00    -0.870 N 
ATOM     14  H   LIG    1        2.018   4.875  -0.012  0.00  0.00    +0.410 HD
ATOM     15  H   LIG    1        2.982   3.513  -0.200  0.00  0.00    +0.400 HD
ENDBRANCH   6  13
TORSDOF 3
