REMARK  Name = ZINCpk00000xIeEq.0
REMARK                            x       y       z     vdW  Elec       q    Type
REMARK                         _______ _______ _______ _____ _____    ______ ____
ROOT
ATOM      1  C   LIG    1        2.886   3.933  -0.004  0.00  0.00    +0.290 C 
ENDROOT
BRANCH   1   2
ATOM      2  C   LIG    1        1.502   3.338   0.006  0.00  0.00    +0.470 C 
ATOM      3  O   LIG    1        0.534   4.061   0.019  0.00  0.00    -0.470 OA
BRANCH   2   4
ATOM      4  O   LIG    1        1.344   2.005   0.000  0.00  0.00    -0.330 OA
BRANCH   4   5
ATOM      5  C   LIG    1       -0.018   1.503   0.010  0.00  0.00    +0.300 C 
BRANCH   5   6
ATOM      6  C   LIG    1        0.002  -0.004   0.002  0.00  0.00    +0.530 C 
ATOM      7  N   LIG    1       -1.156  -0.694   0.009  0.00  0.00    -0.630 N 
ATOM      8  H   LIG    1       -2.002  -0.220   0.020  0.00  0.00    +0.420 HD
ATOM      9  O   LIG    1        1.060  -0.596  -0.011  0.00  0.00    -0.490 OA
BRANCH   7  10
ATOM     10  C   LIG    1       -1.137  -2.089   0.002  0.00  0.00    +0.240 A 
ATOM     11  N   LIG    1       -2.171  -2.888   0.007  0.00  0.00    -0.380 NA
ATOM     12  O   LIG    1       -1.834  -4.049  -0.003  0.00  0.00    +0.100 OA
ATOM     13  C   LIG    1       -0.500  -4.178  -0.015  0.00  0.00    +0.180 A 
ATOM     14  C   LIG    1        0.010  -2.926  -0.019  0.00  0.00    -0.040 A 
ENDBRANCH   7  10
ENDBRANCH   5   6
ENDBRANCH   4   5
ENDBRANCH   2   4
ENDBRANCH   1   2
BRANCH   1  15
ATOM     15  O   LIG    1        2.792   5.359   0.004  0.00  0.00    -0.280 OA
BRANCH  15  21
ATOM     16  C   LIG    1        3.937   7.449   0.004  0.00  0.00    +0.100 A 
ATOM     17  C   LIG    1        5.121   8.157  -0.003  0.00  0.00    +0.030 A 
ATOM     18  C   LIG    1        6.343   7.472  -0.018  0.00  0.00    -0.170 A 
ATOM     19  C   LIG    1        6.356   6.073  -0.025  0.00  0.00    +0.080 A 
ATOM     20  C   LIG    1        5.169   5.374  -0.013  0.00  0.00    -0.040 A 
ATOM     21  C   LIG    1        3.958   6.054  -0.003  0.00  0.00    +0.130 A 
BRANCH  18  22
ATOM     22  C   LIG    1        7.607   8.221  -0.025  0.00  0.00    +0.400 C 
ATOM     23  O   LIG    1        7.593   9.434  -0.019  0.00  0.00    -0.460 OA
ATOM     24  C   LIG    1        8.920   7.481  -0.042  0.00  0.00    +0.090 C 
ENDBRANCH  18  22
BRANCH  16  26
ATOM     25  C   LIG    1        2.802   9.539   0.026  0.00  0.00    +0.250 C 
ATOM     26  O   LIG    1        2.749   8.111   0.018  0.00  0.00    -0.300 OA
ENDBRANCH  16  26
ENDBRANCH  15  21
ENDBRANCH   1  15
TORSDOF 9
