REMARK  Name = ZINCpe000000Wr2e.0
REMARK                            x       y       z     vdW  Elec       q    Type
REMARK                         _______ _______ _______ _____ _____    ______ ____
ROOT
ATOM      1  N   LIG    1       -5.944  -0.014   1.853  0.00  0.00    -0.560 N 
ATOM      2  C   LIG    1       -6.717  -0.767   0.859  0.00  0.00    +0.300 C 
ATOM      3  C   LIG    1       -7.927  -1.343   1.630  0.00  0.00    +0.010 C 
ATOM      4  C   LIG    1       -8.068  -0.332   2.792  0.00  0.00    +0.090 C 
ATOM      5  C   LIG    1       -6.681   0.252   2.945  0.00  0.00    +0.520 C 
ATOM      6  O   LIG    1       -6.290   0.869   3.913  0.00  0.00    -0.500 OA
ENDROOT
BRANCH   1  10
ATOM      7  C   LIG    1       -1.976   1.163   1.348  0.00  0.00    +0.110 A 
ATOM      8  C   LIG    1       -2.584   0.351   0.402  0.00  0.00    -0.050 A 
ATOM      9  C   LIG    1       -3.896  -0.043   0.571  0.00  0.00    +0.020 A 
ATOM     10  C   LIG    1       -4.611   0.382   1.683  0.00  0.00    +0.120 A 
ATOM     11  C   LIG    1       -4.003   1.198   2.628  0.00  0.00    +0.050 A 
ATOM     12  C   LIG    1       -2.689   1.587   2.460  0.00  0.00    +0.020 A 
BRANCH   7  14
ATOM     13  C   LIG    1       -0.008   1.073   0.016  0.00  0.00    +0.250 C 
ATOM     14  O   LIG    1       -0.682   1.547   1.184  0.00  0.00    -0.320 OA
ENDBRANCH   7  14
ENDBRANCH   1  10
BRANCH   3  15
ATOM     15  C   LIG    1       -9.162  -1.347   0.766  0.00  0.00    +0.530 C 
ATOM     16  N   LIG    1      -10.353  -1.691   1.294  0.00  0.00    -0.730 N 
ATOM     17  H   LIG    1      -10.416  -1.937   2.231  0.00  0.00    +0.410 HD
ATOM     18  O   LIG    1       -9.084  -1.039  -0.404  0.00  0.00    -0.530 OA
BRANCH  16  19
ATOM     19  C   LIG    1      -11.554  -1.695   0.455  0.00  0.00    +0.280 C 
BRANCH  19  20
ATOM     20  C   LIG    1      -12.761  -2.120   1.293  0.00  0.00    +0.020 C 
BRANCH  20  21
ATOM     21  C   LIG    1      -14.015  -2.124   0.415  0.00  0.00    +0.340 C 
BRANCH  21  22
ATOM     22  N   LIG    1      -15.171  -2.531   1.218  0.00  0.00    -0.380 N 
ATOM     23  C   LIG    1      -16.319  -1.851   1.380  0.00  0.00    +0.480 A 
ATOM     24  N   LIG    1      -17.098  -2.549   2.165  0.00  0.00    -0.550 NA
ATOM     25  C   LIG    1      -16.481  -3.672   2.530  0.00  0.00    +0.420 A 
ATOM     26  N   LIG    1      -15.298  -3.707   1.975  0.00  0.00    -0.320 NA
ENDBRANCH  21  22
ENDBRANCH  20  21
ENDBRANCH  19  20
ENDBRANCH  16  19
ENDBRANCH   3  15
TORSDOF 7
