REMARK  Name = ZINCtV00001bB39J.0
REMARK                            x       y       z     vdW  Elec       q    Type
REMARK                         _______ _______ _______ _____ _____    ______ ____
ROOT
ATOM      1  C   LIG    1        1.261  -0.473  -0.013  0.00  0.00    +0.260 A 
ATOM      2  C   LIG    1        2.142   0.609  -0.015  0.00  0.00    -0.080 A 
ATOM      3  C   LIG    1        1.290   1.811  -0.001  0.00  0.00    -0.040 A 
ATOM      4  C   LIG    1       -0.016   1.343   0.009  0.00  0.00    +0.110 A 
ATOM      5  O   LIG    1        0.002  -0.004   0.002  0.00  0.00    -0.190 OA
ENDROOT
BRANCH   4   6
ATOM      6  C   LIG    1       -1.220   2.178   0.020  0.00  0.00    +0.040 A 
ATOM      7  C   LIG    1       -2.510   1.728   0.024  0.00  0.00    +0.000 A 
ATOM      8  C   LIG    1       -3.336   2.867   0.034  0.00  0.00    -0.050 A 
ATOM      9  C   LIG    1       -2.526   3.945   0.035  0.00  0.00    +0.200 A 
ATOM     10  O   LIG    1       -1.248   3.526   0.033  0.00  0.00    -0.150 OA
ENDBRANCH   4   6
BRANCH   3  11
ATOM     11  C   LIG    1        1.732   3.216   0.002  0.00  0.00    +0.040 A 
ATOM     12  C   LIG    1        2.422   3.836   1.001  0.00  0.00    -0.020 A 
ATOM     13  C   LIG    1        2.635   5.164   0.583  0.00  0.00    -0.060 A 
ATOM     14  C   LIG    1        2.066   5.293  -0.632  0.00  0.00    +0.180 A 
ATOM     15  O   LIG    1        1.521   4.114  -0.979  0.00  0.00    -0.160 OA
ENDBRANCH   3  11
BRANCH   1  17
ATOM     16  C   LIG    1        0.689  -2.704  -0.019  0.00  0.00    +0.410 C 
ATOM     17  N   LIG    1        1.614  -1.772  -0.023  0.00  0.00    -0.470 NA
BRANCH  16  20
ATOM     18  C   LIG    1        3.604  -3.791  -0.068  0.00  0.00    +0.160 C 
ATOM     19  C   LIG    1        2.344  -4.618  -0.052  0.00  0.00    +0.190 A 
ATOM     20  C   LIG    1        1.072  -4.114  -0.031  0.00  0.00    -0.200 A 
ATOM     21  C   LIG    1        0.164  -5.277  -0.029  0.00  0.00    -0.070 A 
ATOM     22  C   LIG    1       -1.220  -5.422  -0.016  0.00  0.00    +0.050 A 
ATOM     23  C   LIG    1       -1.775  -6.684  -0.019  0.00  0.00    +0.000 A 
ATOM     24  C   LIG    1       -0.960  -7.806  -0.033  0.00  0.00    +0.030 A 
ATOM     25  C   LIG    1        0.412  -7.677  -0.045  0.00  0.00    +0.000 A 
ATOM     26  C   LIG    1        0.991  -6.412  -0.043  0.00  0.00    +0.090 A 
ATOM     27  N   LIG    1        2.299  -5.973  -0.053  0.00  0.00    -0.580 N 
ATOM     28  H   LIG    1        3.077  -6.553  -0.064  0.00  0.00    +0.420 HD
ENDBRANCH  16  20
ENDBRANCH   1  17
BRANCH   2  29
ATOM     29  C   LIG    1        3.573   0.562  -0.030  0.00  0.00    +0.290 C 
ATOM     30  N   LIG    1        4.708   0.524  -0.041  0.00  0.00    -0.410 NA
ENDBRANCH   2  29
TORSDOF 5
