REMARK  Name = ZINCvU0000000DJv.0
REMARK                            x       y       z     vdW  Elec       q    Type
REMARK                         _______ _______ _______ _____ _____    ______ ____
ROOT
ATOM      1  C   LIG    1       -1.307   2.117   0.041  0.00  0.00    +0.330 A 
ATOM      2  N   LIG    1       -2.501   1.574  -0.063  0.00  0.00    -0.500 NA
ATOM      3  C   LIG    1       -3.436   2.531  -0.042  0.00  0.00    +0.260 A 
ATOM      4  N   LIG    1       -2.846   3.702   0.068  0.00  0.00    -0.250 NA
ATOM      5  N   LIG    1       -1.464   3.459   0.123  0.00  0.00    -0.320 N 
ENDROOT
BRANCH   1  12
ATOM      6  F   LIG    1       -0.743   0.087   1.915  0.00  0.00    -0.120 F 
ATOM      7  C   LIG    1        0.209   0.389   1.006  0.00  0.00    +0.150 A 
ATOM      8  C   LIG    1        1.413  -0.290   1.012  0.00  0.00    +0.000 A 
ATOM      9  C   LIG    1        2.389   0.019   0.082  0.00  0.00    +0.070 A 
ATOM     10  C   LIG    1        2.168   1.009  -0.859  0.00  0.00    +0.010 A 
ATOM     11  C   LIG    1        0.971   1.695  -0.877  0.00  0.00    +0.070 A 
ATOM     12  C   LIG    1       -0.019   1.390   0.058  0.00  0.00    -0.070 A 
ENDBRANCH   1  12
BRANCH   3  13
ATOM     13  C   LIG    1       -4.900   2.308  -0.133  0.00  0.00    +0.240 A 
ATOM     14  C   LIG    1       -5.394   1.013  -0.252  0.00  0.00    -0.010 A 
ATOM     15  C   LIG    1       -6.763   0.816  -0.330  0.00  0.00    +0.110 A 
ATOM     16  C   LIG    1       -7.595   1.924  -0.299  0.00  0.00    -0.020 A 
ATOM     17  C   LIG    1       -7.035   3.191  -0.184  0.00  0.00    +0.330 A 
ATOM     18  N   LIG    1       -5.726   3.347  -0.105  0.00  0.00    -0.520 NA
BRANCH  17  19
ATOM     19  O   LIG    1       -7.844   4.280  -0.152  0.00  0.00    -0.300 OA
BRANCH  19  20
ATOM     20  C   LIG    1       -7.210   5.555  -0.034  0.00  0.00    +0.270 C 
BRANCH  20  21
ATOM     21  C   LIG    1       -8.258   6.638  -0.015  0.00  0.00    -0.100 A 
ATOM     22  C   LIG    1       -8.673   7.218  -1.199  0.00  0.00    +0.020 A 
ATOM     23  C   LIG    1       -9.638   8.208  -1.183  0.00  0.00    +0.010 A 
ATOM     24  C   LIG    1      -10.181   8.624   0.018  0.00  0.00    +0.010 A 
ATOM     25  C   LIG    1       -9.762   8.047   1.203  0.00  0.00    +0.010 A 
ATOM     26  C   LIG    1       -8.801   7.054   1.186  0.00  0.00    +0.020 A 
ENDBRANCH  20  21
ENDBRANCH  19  20
ENDBRANCH  17  19
ENDBRANCH   3  13
BRANCH   5  27
ATOM     27  C   LIG    1       -0.402   4.461   0.246  0.00  0.00    +0.080 C 
ATOM     28  C   LIG    1        0.742   4.549   1.286  0.00  0.00    +0.050 C 
ATOM     29  C   LIG    1        1.010   5.816   0.395  0.00  0.00    +0.050 C 
ATOM     30  C   LIG    1        0.697   4.850  -0.775  0.00  0.00    +0.050 C 
ATOM     31  C   LIG    1       -0.523   5.984   0.470  0.00  0.00    +0.080 C 
ENDBRANCH   5  27
TORSDOF 6
