REMARK  Name = ZINCqH0000038OTR.0
REMARK                            x       y       z     vdW  Elec       q    Type
REMARK                         _______ _______ _______ _____ _____    ______ ____
ROOT
ATOM      1  C   LIG    1        4.109  -5.188  -1.485  0.00  0.00    +0.520 C 
ATOM      2  N   LIG    1        5.099  -6.066  -1.746  0.00  0.00    -0.600 N 
ATOM      3  C   LIG    1        5.886  -6.600  -0.617  0.00  0.00    +0.270 C 
ATOM      4  C   LIG    1        6.149  -8.113  -0.763  0.00  0.00    +0.020 C 
ATOM      5  C   LIG    1        4.918  -8.809  -1.288  0.00  0.00    +0.010 C 
ATOM      6  C   LIG    1        4.983  -8.872  -2.811  0.00  0.00    +0.010 C 
ATOM      7  C   LIG    1        4.481  -7.668  -3.490  0.00  0.00    +0.040 C 
ATOM      8  C   LIG    1        5.349  -6.440  -3.119  0.00  0.00    +0.350 C 
ATOM      9  O   LIG    1        3.501  -4.671  -2.398  0.00  0.00    -0.510 OA
ENDROOT
BRANCH   8  10
ATOM     10  C   LIG    1        5.000  -5.288  -4.025  0.00  0.00    +0.190 A 
ATOM     11  N   LIG    1        5.593  -4.132  -4.063  0.00  0.00    -0.380 NA
ATOM     12  O   LIG    1        5.076  -3.422  -4.900  0.00  0.00    +0.070 OA
ATOM     13  C   LIG    1        4.075  -4.078  -5.494  0.00  0.00    +0.420 A 
ATOM     14  N   LIG    1        4.021  -5.269  -4.948  0.00  0.00    -0.470 NA
ENDBRANCH   8  10
BRANCH   1  15
ATOM     15  C   LIG    1        3.758  -4.850  -0.059  0.00  0.00    +0.170 C 
BRANCH  15  18
ATOM     16  C   LIG    1        0.708  -5.525  -0.001  0.00  0.00    +0.190 C 
ATOM     17  C   LIG    1        1.315  -4.146  -0.018  0.00  0.00    -0.020 A 
ATOM     18  C   LIG    1        2.628  -3.853  -0.043  0.00  0.00    +0.010 A 
ATOM     19  N   LIG    1        2.752  -2.517  -0.056  0.00  0.00    -0.450 NA
ATOM     20  C   LIG    1        1.551  -1.983  -0.031  0.00  0.00    +0.260 A 
ATOM     21  O   LIG    1        0.643  -2.976  -0.011  0.00  0.00    -0.190 OA
BRANCH  20  22
ATOM     22  C   LIG    1        1.250  -0.544  -0.033  0.00  0.00    -0.140 A 
ATOM     23  C   LIG    1        0.002  -0.000  -0.012  0.00  0.00    +0.050 A 
ATOM     24  C   LIG    1       -0.020   1.377  -0.018  0.00  0.00    +0.010 A 
ATOM     25  C   LIG    1        1.180   1.965  -0.041  0.00  0.00    -0.040 A 
ATOM     26  S   LIG    1        2.446   0.745  -0.059  0.00  0.00    +0.210 S 
ENDBRANCH  20  22
ENDBRANCH  15  18
ENDBRANCH   1  15
TORSDOF 4
