REMARK  Name = ZINCpk000000oHvk.0
REMARK                            x       y       z     vdW  Elec       q    Type
REMARK                         _______ _______ _______ _____ _____    ______ ____
ROOT
ATOM      1  N   LIG    1       -6.339  -0.321  -1.766  0.00  0.00    -0.600 N 
ATOM      2  C   LIG    1       -6.449  -1.564  -0.995  0.00  0.00    +0.280 C 
ATOM      3  C   LIG    1       -5.085  -2.256  -0.966  0.00  0.00    +0.020 C 
ATOM      4  C   LIG    1       -4.268  -1.759   0.222  0.00  0.00    +0.310 C 
ATOM      5  N   LIG    1       -3.989  -0.329   0.118  0.00  0.00    -0.610 N 
ATOM      6  C   LIG    1       -5.087   0.644   0.133  0.00  0.00    +0.310 C 
ATOM      7  C   LIG    1       -2.716   0.100   0.014  0.00  0.00    +0.720 C 
ATOM      8  N   LIG    1       -2.447   1.420   0.017  0.00  0.00    -0.660 N 
ATOM      9  H   LIG    1       -3.173   2.063   0.018  0.00  0.00    +0.410 HD
ATOM     10  O   LIG    1       -1.809  -0.705  -0.084  0.00  0.00    -0.550 OA
ATOM     11  C   LIG    1       -5.670   0.731  -1.266  0.00  0.00    +0.500 C 
ATOM     12  O   LIG    1       -5.535   1.740  -1.924  0.00  0.00    -0.530 OA
ENDROOT
BRANCH   8  13
ATOM     13  C   LIG    1       -1.123   1.863   0.020  0.00  0.00    +0.320 A 
ATOM     14  C   LIG    1       -0.013   1.076   0.019  0.00  0.00    -0.100 A 
ATOM     15  C   LIG    1        1.105   1.915   0.017  0.00  0.00    +0.100 A 
ATOM     16  N   LIG    1        0.689   3.155   0.021  0.00  0.00    -0.280 NA
ATOM     17  N   LIG    1       -0.712   3.151   0.027  0.00  0.00    -0.390 N 
ATOM     18  C   LIG    1       -1.577   4.333   0.033  0.00  0.00    +0.360 C 
BRANCH  15  19
ATOM     19  C   LIG    1        2.544   1.467   0.009  0.00  0.00    +0.050 C 
ATOM     20  C   LIG    1        2.989   1.195  -1.431  0.00  0.00    +0.030 C 
ATOM     21  C   LIG    1        4.426   0.667  -1.419  0.00  0.00    -0.010 C 
ATOM     22  C   LIG    1        4.494  -0.587  -0.544  0.00  0.00    +0.200 C 
ATOM     23  O   LIG    1        4.038  -0.272   0.773  0.00  0.00    -0.380 OA
ATOM     24  C   LIG    1        2.684   0.183   0.831  0.00  0.00    +0.230 C 
ENDBRANCH  15  19
ENDBRANCH   8  13
BRANCH   1  26
ATOM     25  C   LIG    1       -8.394   0.292  -2.941  0.00  0.00    +0.020 C 
ATOM     26  C   LIG    1       -6.962  -0.226  -3.088  0.00  0.00    +0.270 C 
ENDBRANCH   1  26
TORSDOF 3
