REMARK  Name = ZINCpe000000X1LJ.1
REMARK                            x       y       z     vdW  Elec       q    Type
REMARK                         _______ _______ _______ _____ _____    ______ ____
ROOT
ATOM      1  N   LIG    1       -2.531  -0.308   0.012  0.00  0.00    -0.720 N 
ATOM      2  H   LIG    1       -1.696  -0.801   0.006  0.00  0.00    +0.400 HD
ATOM      3  C   LIG    1       -2.518   1.040   0.020  0.00  0.00    +0.560 C 
ATOM      4  O   LIG    1       -3.565   1.657   0.028  0.00  0.00    -0.520 OA
ENDROOT
BRANCH   3   5
ATOM      5  C   LIG    1       -1.228   1.768   0.017  0.00  0.00    -0.060 A 
ATOM      6  C   LIG    1       -0.013   1.076   0.008  0.00  0.00    +0.000 A 
ATOM      7  C   LIG    1        1.169   1.792   0.001  0.00  0.00    +0.320 A 
ATOM      8  N   LIG    1        1.163   3.110   0.007  0.00  0.00    -0.490 NA
ATOM      9  C   LIG    1        0.038   3.805   0.021  0.00  0.00    +0.360 A 
ATOM     10  C   LIG    1       -1.193   3.164   0.029  0.00  0.00    +0.060 A 
BRANCH   9  11
ATOM     11  N   LIG    1        0.090   5.203   0.027  0.00  0.00    -0.340 N 
ATOM     12  C   LIG    1        1.198   5.971   0.025  0.00  0.00    +0.520 A 
ATOM     13  N   LIG    1        0.822   7.224   0.029  0.00  0.00    -0.540 NA
ATOM     14  C   LIG    1       -0.509   7.297   0.043  0.00  0.00    +0.450 A 
ATOM     15  N   LIG    1       -1.002   6.086   0.042  0.00  0.00    -0.310 NA
ENDBRANCH   9  11
ENDBRANCH   3   5
BRANCH   1  16
ATOM     16  C   LIG    1       -3.807  -1.028   0.015  0.00  0.00    +0.260 C 
BRANCH  16  17
ATOM     17  C   LIG    1       -3.542  -2.535   0.005  0.00  0.00    +0.020 C 
BRANCH  17  18
ATOM     18  C   LIG    1       -4.874  -3.288   0.007  0.00  0.00    +0.180 C 
BRANCH  18  22
ATOM     19  C   LIG    1       -6.834  -7.780   0.451  0.00  0.00    +0.050 C 
ATOM     20  C   LIG    1       -5.538  -6.985   0.280  0.00  0.00    +0.160 C 
ATOM     21  C   LIG    1       -5.858  -5.489   0.238  0.00  0.00    +0.150 C 
ATOM     22  N   LIG    1       -4.620  -4.734  -0.002  0.00  0.00    -0.530 NA
ATOM     23  C   LIG    1       -3.992  -5.151  -1.264  0.00  0.00    +0.150 C 
ATOM     24  C   LIG    1       -3.691  -6.651  -1.207  0.00  0.00    +0.200 C 
ATOM     25  C   LIG    1       -2.679  -6.928  -0.093  0.00  0.00    +0.010 C 
ATOM     26  O   LIG    1       -4.901  -7.366  -0.942  0.00  0.00    -0.380 OA
ENDBRANCH  18  22
ENDBRANCH  17  18
ENDBRANCH  16  17
ENDBRANCH   1  16
TORSDOF 6
