REMARK  Name = ZINCpe000000YT3T.0
REMARK                            x       y       z     vdW  Elec       q    Type
REMARK                         _______ _______ _______ _____ _____    ______ ____
ROOT
ATOM      1  O   LIG    1        5.587  -1.508   1.331  0.00  0.00    -0.450 OA
ATOM      2  C   LIG    1        6.361  -0.576   1.374  0.00  0.00    +0.500 C 
ATOM      3  N   LIG    1        7.687  -0.804   1.439  0.00  0.00    -0.690 N 
ATOM      4  H   LIG    1        8.306  -0.058   1.474  0.00  0.00    +0.410 HD
ATOM      5  C   LIG    1        8.153  -2.069   1.455  0.00  0.00    +0.700 C 
ATOM      6  N   LIG    1        9.480  -2.297   1.520  0.00  0.00    -0.730 N 
ATOM      7  H   LIG    1       10.100  -1.551   1.555  0.00  0.00    +0.400 HD
ATOM      8  O   LIG    1        7.378  -3.003   1.411  0.00  0.00    -0.530 OA
ENDROOT
BRANCH   6   9
ATOM      9  C   LIG    1        9.987  -3.671   1.538  0.00  0.00    +0.340 C 
BRANCH   9  10
ATOM     10  C   LIG    1       11.492  -3.651   1.612  0.00  0.00    -0.110 A 
ATOM     11  C   LIG    1       12.242  -3.641   0.451  0.00  0.00    +0.020 A 
ATOM     12  C   LIG    1       13.622  -3.617   0.520  0.00  0.00    +0.010 A 
ATOM     13  C   LIG    1       14.253  -3.614   1.750  0.00  0.00    +0.010 A 
ATOM     14  C   LIG    1       13.503  -3.630   2.911  0.00  0.00    +0.010 A 
ATOM     15  C   LIG    1       12.123  -3.648   2.842  0.00  0.00    +0.030 A 
ENDBRANCH   9  10
ENDBRANCH   6   9
BRANCH   2  16
ATOM     16  C   LIG    1        5.839   0.838   1.356  0.00  0.00    +0.370 C 
BRANCH  16  17
ATOM     17  N   LIG    1        4.376   0.818   1.283  0.00  0.00    -0.570 N 
ATOM     18  C   LIG    1        3.568   0.801   2.353  0.00  0.00    +0.710 C 
ATOM     19  N   LIG    1        2.263   0.786   2.010  0.00  0.00    -0.710 N 
ATOM     20  H   LIG    1        1.502   0.772   2.611  0.00  0.00    +0.440 HD
ATOM     21  C   LIG    1        2.230   0.793   0.551  0.00  0.00    +0.110 C 
ATOM     22  C   LIG    1        1.455   1.999  -0.001  0.00  0.00    +0.050 C 
ATOM     23  C   LIG    1       -0.019   1.536   0.011  0.00  0.00    +0.030 C 
ATOM     24  C   LIG    1        0.002  -0.004   0.002  0.00  0.00    +0.030 C 
ATOM     25  C   LIG    1        1.488  -0.427  -0.014  0.00  0.00    +0.060 C 
ATOM     26  O   LIG    1        3.966   0.800   3.501  0.00  0.00    -0.540 OA
ATOM     27  C   LIG    1        3.672   0.815   0.129  0.00  0.00    +0.540 C 
ATOM     28  O   LIG    1        4.110   0.827  -1.002  0.00  0.00    -0.450 OA
ENDBRANCH  16  17
ENDBRANCH   2  16
TORSDOF 4
