REMARK  Name = ZINCpk00001AZjct.0
REMARK                            x       y       z     vdW  Elec       q    Type
REMARK                         _______ _______ _______ _____ _____    ______ ____
ROOT
ATOM      1  C   LIG    1       -4.173   5.236   1.695  0.00  0.00    +0.250 C 
ATOM      2  C   LIG    1       -3.772   6.348   2.678  0.00  0.00    +0.050 C 
ATOM      3  C   LIG    1       -5.174   6.939   2.459  0.00  0.00    +0.080 C 
ATOM      4  C   LIG    1       -5.170   6.238   1.090  0.00  0.00    +0.050 C 
ENDROOT
BRANCH   3   5
ATOM      5  C   LIG    1       -5.188   8.443   2.368  0.00  0.00    +0.170 A 
ATOM      6  N   LIG    1       -4.283   9.188   1.800  0.00  0.00    -0.280 NA
ATOM      7  N   LIG    1       -4.622  10.424   1.894  0.00  0.00    -0.300 NA
ATOM      8  C   LIG    1       -5.765  10.518   2.526  0.00  0.00    +0.200 A 
ATOM      9  C   LIG    1       -6.498  11.810   2.779  0.00  0.00    +0.150 C 
ATOM     10  C   LIG    1       -6.263  12.272   4.218  0.00  0.00    +0.030 C 
ATOM     11  C   LIG    1       -6.191  11.067   5.153  0.00  0.00    +0.000 C 
ATOM     12  C   LIG    1       -7.605  10.557   5.363  0.00  0.00    +0.010 C 
ATOM     13  C   LIG    1       -8.184   9.946   4.093  0.00  0.00    +0.030 C 
ATOM     14  C   LIG    1       -7.300   8.789   3.632  0.00  0.00    +0.280 C 
ATOM     15  N   LIG    1       -6.147   9.273   2.869  0.00  0.00    -0.460 N 
ENDBRANCH   3   5
BRANCH   1  17
ATOM     16  C   LIG    1       -2.471   3.668   0.931  0.00  0.00    +0.500 C 
ATOM     17  N   LIG    1       -3.099   4.850   0.775  0.00  0.00    -0.710 N 
ATOM     18  H   LIG    1       -2.840   5.446   0.055  0.00  0.00    +0.410 HD
ATOM     19  O   LIG    1       -2.795   2.923   1.832  0.00  0.00    -0.520 OA
BRANCH  16  25
ATOM     20  O   LIG    1        0.002  -0.004   0.002  0.00  0.00    -0.550 OA
ATOM     21  C   LIG    1       -0.014   1.209   0.009  0.00  0.00    +0.520 C 
ATOM     22  C   LIG    1        1.299   1.937   0.000  0.00  0.00    +0.070 C 
ATOM     23  C   LIG    1        1.084   3.392  -0.425  0.00  0.00    +0.050 C 
ATOM     24  C   LIG    1       -0.072   3.972   0.398  0.00  0.00    +0.040 C 
ATOM     25  C   LIG    1       -1.367   3.271  -0.014  0.00  0.00    +0.230 C 
ATOM     26  N   LIG    1       -1.198   1.824   0.018  0.00  0.00    -0.700 N 
ATOM     27  H   LIG    1       -1.996   1.274   0.052  0.00  0.00    +0.400 HD
ENDBRANCH  16  25
ENDBRANCH   1  17
TORSDOF 3
