REMARK  Name = ZINCrD0000074TJK.0
REMARK                            x       y       z     vdW  Elec       q    Type
REMARK                         _______ _______ _______ _____ _____    ______ ____
ROOT
ATOM      1  O   LIG    1        4.902   0.423  -1.239  0.00  0.00    -0.340 OA
ENDROOT
BRANCH   1   2
ATOM      2  C   LIG    1        4.618   1.728  -1.103  0.00  0.00    +0.490 C 
ATOM      3  O   LIG    1        5.120   2.537  -1.846  0.00  0.00    -0.490 OA
BRANCH   2   4
ATOM      4  C   LIG    1        3.672   2.184  -0.022  0.00  0.00    -0.040 C 
ATOM      5  C   LIG    1        4.329   2.300   1.364  0.00  0.00    +0.070 C 
ATOM      6  C   LIG    1        4.680   3.751   0.987  0.00  0.00    +0.030 C 
ATOM      7  C   LIG    1        3.480   3.709   0.026  0.00  0.00    +0.070 C 
BRANCH   4   8
ATOM      8  C   LIG    1        2.377   1.412  -0.013  0.00  0.00    -0.090 A 
ATOM      9  C   LIG    1        1.171   2.087   0.002  0.00  0.00    +0.060 A 
ATOM     10  C   LIG    1       -0.017   1.380   0.010  0.00  0.00    -0.010 A 
ATOM     11  C   LIG    1        0.002  -0.004   0.002  0.00  0.00    +0.100 A 
ATOM     12  C   LIG    1        1.211  -0.679  -0.013  0.00  0.00    -0.010 A 
ATOM     13  F   LIG    1       -1.158  -0.696   0.010  0.00  0.00    -0.140 F 
ATOM     14  C   LIG    1        2.397   0.030  -0.021  0.00  0.00    +0.070 A 
ENDBRANCH   4   8
ENDBRANCH   2   4
ENDBRANCH   1   2
BRANCH   1  15
ATOM     15  C   LIG    1        5.821   0.057  -2.302  0.00  0.00    +0.320 C 
BRANCH  15  24
ATOM     16  C   LIG    1        7.867  -3.077   1.029  0.00  0.00    +0.140 C 
ATOM     17  C   LIG    1        7.415  -3.933  -0.126  0.00  0.00    -0.100 A 
ATOM     18  C   LIG    1        7.607  -5.282  -0.098  0.00  0.00    +0.120 A 
ATOM     19  C   LIG    1        7.179  -6.063  -1.181  0.00  0.00    +0.000 A 
ATOM     20  C   LIG    1        6.581  -5.481  -2.245  0.00  0.00    +0.270 A 
ATOM     21  N   LIG    1        6.385  -4.134  -2.282  0.00  0.00    -0.430 N 
ATOM     22  C   LIG    1        5.785  -3.576  -3.355  0.00  0.00    +0.510 A 
ATOM     23  C   LIG    1        5.585  -2.191  -3.376  0.00  0.00    -0.150 A 
ATOM     24  C   LIG    1        6.019  -1.437  -2.302  0.00  0.00    +0.210 A 
ATOM     25  N   LIG    1        6.602  -2.027  -1.270  0.00  0.00    -0.530 NA
ATOM     26  O   LIG    1        5.419  -4.269  -4.291  0.00  0.00    -0.530 OA
ATOM     27  C   LIG    1        6.790  -3.345  -1.242  0.00  0.00    +0.400 A 
ENDBRANCH  15  24
ENDBRANCH   1  15
TORSDOF 5
