REMARK  Name = ZINCrg00001JduPv.0
REMARK                            x       y       z     vdW  Elec       q    Type
REMARK                         _______ _______ _______ _____ _____    ______ ____
ROOT
ATOM      1  C   LIG    1        1.202   3.122  -2.175  0.00  0.00    +0.290 C 
ATOM      2  C   LIG    1        0.459   4.125  -1.287  0.00  0.00    +0.040 C 
ATOM      3  C   LIG    1       -0.987   3.659  -1.099  0.00  0.00    +0.020 C 
ATOM      4  C   LIG    1       -0.999   2.296  -0.402  0.00  0.00    +0.010 C 
ATOM      5  C   LIG    1       -0.272   1.273  -1.280  0.00  0.00    +0.290 C 
ATOM      6  N   LIG    1        1.072   1.782  -1.586  0.00  0.00    -0.990 NA
ENDROOT
BRANCH   6   7
ATOM      7  S   LIG    1        2.414   0.863  -1.273  0.00  0.00    +2.680 S 
ATOM      8  O   LIG    1        3.483   1.454  -2.000  0.00  0.00    -0.940 OA
ATOM      9  O   LIG    1        2.019  -0.492  -1.435  0.00  0.00    -0.950 OA
BRANCH   7  10
ATOM     10  C   LIG    1        2.800   1.068   0.434  0.00  0.00    -0.680 A 
ATOM     11  C   LIG    1        3.657   2.077   0.832  0.00  0.00    +0.150 A 
ATOM     12  C   LIG    1        3.955   2.241   2.172  0.00  0.00    -0.010 A 
ATOM     13  C   LIG    1        3.406   1.390   3.112  0.00  0.00    +0.070 A 
ATOM     14  C   LIG    1        2.553   0.378   2.713  0.00  0.00    -0.020 A 
ATOM     15  C   LIG    1        2.250   0.217   1.374  0.00  0.00    +0.120 A 
ENDBRANCH   7  10
ENDBRANCH   6   7
BRANCH   1  16
ATOM     16  C   LIG    1        2.659   3.499  -2.253  0.00  0.00    +0.470 C 
ATOM     17  O   LIG    1        3.262   3.794  -1.248  0.00  0.00    -0.510 OA
BRANCH  16  18
ATOM     18  O   LIG    1        3.288   3.508  -3.439  0.00  0.00    -0.310 OA
BRANCH  18  19
ATOM     19  C   LIG    1        4.691   3.882  -3.438  0.00  0.00    +0.230 C 
BRANCH  19  20
ATOM     20  C   LIG    1        5.223   3.836  -4.848  0.00  0.00    +0.430 C 
ATOM     21  O   LIG    1        4.491   3.519  -5.763  0.00  0.00    -0.460 OA
BRANCH  20  24
ATOM     22  C   LIG    1        6.291   3.301  -7.438  0.00  0.00    +0.170 C 
ATOM     23  C   LIG    1        7.098   4.001  -6.375  0.00  0.00    +0.350 C 
ATOM     24  C   LIG    1        6.577   4.162  -5.104  0.00  0.00    -0.320 C 
BRANCH  23  25
ATOM     25  N   LIG    1        8.330   4.470  -6.663  0.00  0.00    -0.800 N 
ATOM     26  H   LIG    1        8.696   4.357  -7.555  0.00  0.00    +0.420 HD
ATOM     27  H   LIG    1        8.850   4.920  -5.979  0.00  0.00    +0.410 HD
ENDBRANCH  23  25
BRANCH  24  28
ATOM     28  C   LIG    1        7.406   4.659  -4.048  0.00  0.00    +0.260 C 
ATOM     29  N   LIG    1        8.064   5.053  -3.210  0.00  0.00    -0.440 NA
ENDBRANCH  24  28
ENDBRANCH  20  24
ENDBRANCH  19  20
ENDBRANCH  18  19
ENDBRANCH  16  18
ENDBRANCH   1  16
TORSDOF 9
