REMARK  Name = ZINCrH000004tjF1.0
REMARK                            x       y       z     vdW  Elec       q    Type
REMARK                         _______ _______ _______ _____ _____    ______ ____
ROOT
ATOM      1  C   LIG    1       -6.852   4.245   0.363  0.00  0.00    +0.240 C 
ENDROOT
BRANCH   1   7
ATOM      2  C   LIG    1       -1.348   3.003   0.030  0.00  0.00    -0.180 A 
ATOM      3  C   LIG    1       -1.219   1.641   0.017  0.00  0.00    +0.150 A 
ATOM      4  S   LIG    1       -2.748   0.891   0.021  0.00  0.00    +0.200 S 
ATOM      5  C   LIG    1       -3.595   2.427   0.033  0.00  0.00    -0.240 A 
ATOM      6  C   LIG    1       -5.100   2.603   0.042  0.00  0.00    +0.280 C 
ATOM      7  N   LIG    1       -5.409   3.983   0.444  0.00  0.00    -0.530 NA
ATOM      8  C   LIG    1       -4.651   4.949  -0.364  0.00  0.00    +0.180 C 
ATOM      9  C   LIG    1       -3.174   4.902   0.040  0.00  0.00    +0.110 C 
ATOM     10  C   LIG    1       -2.728   3.448   0.033  0.00  0.00    -0.010 A 
BRANCH   3  11
ATOM     11  N   LIG    1       -0.011   0.966   0.007  0.00  0.00    -0.830 N 
ATOM     12  H   LIG    1        0.822   1.462   0.002  0.00  0.00    +0.410 HD
ATOM     13  H   LIG    1        0.002  -0.004   0.002  0.00  0.00    +0.410 HD
ENDBRANCH   3  11
BRANCH   2  15
ATOM     14  N   LIG    1        0.654   4.612   0.042  0.00  0.00    -0.440 NA
ATOM     15  C   LIG    1       -0.231   3.900   0.037  0.00  0.00    +0.280 C 
ENDBRANCH   2  15
ENDBRANCH   1   7
BRANCH   1  16
ATOM     16  C   LIG    1       -7.573   3.405   1.385  0.00  0.00    -0.120 A 
ATOM     17  C   LIG    1       -8.023   2.142   1.045  0.00  0.00    +0.050 A 
ATOM     18  C   LIG    1       -8.680   1.367   1.981  0.00  0.00    -0.080 A 
ATOM     19  C   LIG    1       -8.898   1.861   3.259  0.00  0.00    +0.130 A 
ATOM     20  C   LIG    1       -8.450   3.130   3.596  0.00  0.00    -0.020 A 
ATOM     21  C   LIG    1       -7.789   3.899   2.658  0.00  0.00    +0.080 A 
BRANCH  19  22
ATOM     22  O   LIG    1       -9.548   1.102   4.180  0.00  0.00    -0.310 OA
BRANCH  22  23
ATOM     23  C   LIG    1       -9.981  -0.195   3.764  0.00  0.00    +0.260 C 
BRANCH  23  24
ATOM     24  C   LIG    1      -10.677  -0.883   4.909  0.00  0.00    -0.150 A 
ATOM     25  C   LIG    1       -9.959  -1.671   5.796  0.00  0.00    +0.090 A 
ATOM     26  C   LIG    1      -10.641  -2.281   6.838  0.00  0.00    -0.030 A 
ATOM     27  C   LIG    1      -12.006  -2.095   6.950  0.00  0.00    +0.270 A 
ATOM     28  N   LIG    1      -12.657  -1.342   6.085  0.00  0.00    -0.490 NA
ATOM     29  C   LIG    1      -12.041  -0.743   5.086  0.00  0.00    +0.280 A 
ENDBRANCH  23  24
ENDBRANCH  22  23
ENDBRANCH  19  22
ENDBRANCH   1  16
TORSDOF 7
