REMARK  Name = ZINCvU0000000Amj.0
REMARK                            x       y       z     vdW  Elec       q    Type
REMARK                         _______ _______ _______ _____ _____    ______ ____
ROOT
ATOM      1  C   LIG    1        3.561   2.657   0.237  0.00  0.00    -0.070 C 
ATOM      2  C   LIG    1        2.585   1.722   0.155  0.00  0.00    +0.050 C 
ATOM      3  C   LIG    1        1.181   2.199   0.130  0.00  0.00    -0.030 A 
ATOM      4  C   LIG    1        0.911   3.509  -0.131  0.00  0.00    -0.220 A 
ATOM      5  C   LIG    1        2.006   4.518  -0.407  0.00  0.00    +0.020 C 
ATOM      6  C   LIG    1        1.543   5.909   0.031  0.00  0.00    +0.040 C 
ATOM      7  C   LIG    1        2.325   4.531  -1.903  0.00  0.00    +0.050 C 
ATOM      8  S   LIG    1       -0.814   3.806  -0.110  0.00  0.00    +0.310 S 
ATOM      9  C   LIG    1       -1.172   2.123   0.239  0.00  0.00    +0.070 A 
ATOM     10  C   LIG    1       -0.014   1.403   0.339  0.00  0.00    -0.080 A 
ATOM     11  C   LIG    1        3.254   4.120   0.380  0.00  0.00    +0.090 C 
ENDROOT
BRANCH   9  12
ATOM     12  N   LIG    1       -2.448   1.599   0.394  0.00  0.00    -0.620 N 
ATOM     13  H   LIG    1       -2.564   0.656   0.588  0.00  0.00    +0.420 HD
ATOM     14  C   LIG    1       -3.525   2.401   0.275  0.00  0.00    +0.530 C 
ATOM     15  O   LIG    1       -3.379   3.580   0.032  0.00  0.00    -0.480 OA
BRANCH  14  16
ATOM     16  C   LIG    1       -4.910   1.832   0.443  0.00  0.00    +0.120 C 
BRANCH  16  17
ATOM     17  S   LIG    1       -6.133   3.148   0.227  0.00  0.00    +0.130 S 
BRANCH  17  18
ATOM     18  C   LIG    1       -7.617   2.230   0.469  0.00  0.00    -0.030 A 
ATOM     19  N   LIG    1       -7.699   0.956   0.729  0.00  0.00    -0.270 NA
ATOM     20  N   LIG    1       -8.850   0.462   0.873  0.00  0.00    -0.250 NA
ATOM     21  C   LIG    1       -9.868   1.250   0.754  0.00  0.00    +0.230 A 
ATOM     22  S   LIG    1       -9.260   2.872   0.411  0.00  0.00    +0.130 S 
ENDBRANCH  17  18
ENDBRANCH  16  17
ENDBRANCH  14  16
ENDBRANCH   9  12
BRANCH   1  24
ATOM     23  C   LIG    1        5.904   3.143   0.383  0.00  0.00    +0.070 C 
ATOM     24  C   LIG    1        4.910   2.242   0.188  0.00  0.00    +0.020 C 
BRANCH  23  29
ATOM     25  C   LIG    1        9.934   0.363  -0.656  0.00  0.00    +0.180 C 
ATOM     26  C   LIG    1        9.072   1.536  -0.269  0.00  0.00    -0.010 A 
ATOM     27  C   LIG    1        9.519   2.767   0.054  0.00  0.00    -0.060 A 
ATOM     28  C   LIG    1        8.390   3.556   0.342  0.00  0.00    -0.030 A 
ATOM     29  C   LIG    1        7.297   2.749   0.186  0.00  0.00    +0.010 A 
ATOM     30  O   LIG    1        7.730   1.528  -0.189  0.00  0.00    -0.170 OA
ENDBRANCH  23  29
ENDBRANCH   1  24
BRANCH  10  31
ATOM     31  C   LIG    1        0.016  -0.001   0.616  0.00  0.00    +0.270 C 
ATOM     32  N   LIG    1        0.040  -1.116   0.837  0.00  0.00    -0.410 NA
ENDBRANCH  10  31
TORSDOF 7
