REMARK  Name = ZINCtV00000L6l7Z.0
REMARK                            x       y       z     vdW  Elec       q    Type
REMARK                         _______ _______ _______ _____ _____    ______ ____
ROOT
ATOM      1  C   LIG    1        8.416  -0.245  -0.500  0.00  0.00    +0.510 C 
ATOM      2  O   LIG    1        8.588  -1.447  -0.521  0.00  0.00    -0.500 OA
ENDROOT
BRANCH   1   3
ATOM      3  C   LIG    1        9.572   0.669  -0.608  0.00  0.00    -0.120 A 
ATOM      4  C   LIG    1        9.377   2.051  -0.589  0.00  0.00    +0.070 A 
ATOM      5  C   LIG    1       10.461   2.899  -0.685  0.00  0.00    -0.080 A 
ATOM      6  C   LIG    1       11.738   2.382  -0.811  0.00  0.00    +0.060 A 
ATOM      7  C   LIG    1       11.938   1.013  -0.837  0.00  0.00    -0.080 A 
ATOM      8  C   LIG    1       10.863   0.154  -0.736  0.00  0.00    +0.080 A 
BRANCH   7   9
ATOM      9  C   LIG    1       13.332   0.459  -0.974  0.00  0.00    -0.030 C 
ATOM     10  C   LIG    1       14.190   0.937   0.200  0.00  0.00    +0.040 C 
ATOM     11  C   LIG    1       13.948   0.947  -2.287  0.00  0.00    +0.040 C 
ATOM     12  C   LIG    1       13.276  -1.070  -0.975  0.00  0.00    +0.030 C 
ENDBRANCH   7   9
BRANCH   5  13
ATOM     13  C   LIG    1       10.254   4.391  -0.659  0.00  0.00    -0.030 C 
ATOM     14  C   LIG    1       11.015   4.991   0.525  0.00  0.00    +0.040 C 
ATOM     15  C   LIG    1        8.761   4.696  -0.513  0.00  0.00    +0.030 C 
ATOM     16  C   LIG    1       10.774   5.002  -1.962  0.00  0.00    +0.040 C 
ENDBRANCH   5  13
ENDBRANCH   1   3
BRANCH   1  17
ATOM     17  O   LIG    1        7.171   0.255  -0.377  0.00  0.00    -0.330 OA
BRANCH  17  18
ATOM     18  C   LIG    1        6.083  -0.701  -0.275  0.00  0.00    +0.270 C 
BRANCH  18  21
ATOM     19  N   LIG    1        3.622  -0.651  -0.036  0.00  0.00    -0.670 N 
ATOM     20  H   LIG    1        3.638  -1.618   0.035  0.00  0.00    +0.420 HD
ATOM     21  C   LIG    1        4.776   0.037  -0.145  0.00  0.00    +0.520 C 
ATOM     22  O   LIG    1        4.762   1.250  -0.139  0.00  0.00    -0.490 OA
BRANCH  19  26
ATOM     23  C   LIG    1        0.871   3.128  -1.563  0.00  0.00    +0.100 C 
ATOM     24  C   LIG    1        1.039   1.865  -0.758  0.00  0.00    -0.030 A 
ATOM     25  C   LIG    1        2.246   1.195  -0.769  0.00  0.00    +0.020 A 
ATOM     26  C   LIG    1        2.399   0.031  -0.027  0.00  0.00    +0.170 A 
ATOM     27  C   LIG    1        1.338  -0.456   0.724  0.00  0.00    -0.010 A 
ATOM     28  C   LIG    1        0.132   0.219   0.732  0.00  0.00    +0.080 A 
ATOM     29  C   LIG    1       -0.018   1.378  -0.008  0.00  0.00    -0.110 A 
ATOM     30 BR   LIG    1       -1.667   2.303   0.011  0.00  0.00    -0.050 Br
ENDBRANCH  19  26
ENDBRANCH  18  21
ENDBRANCH  17  18
ENDBRANCH   1  17
TORSDOF 7
