REMARK  Name = ZINCqH0000035AeA.0
REMARK                            x       y       z     vdW  Elec       q    Type
REMARK                         _______ _______ _______ _____ _____    ______ ____
ROOT
ATOM      1  C   LIG    1       -2.604  -2.163   1.196  0.00  0.00    +0.290 C 
ENDROOT
BRANCH   1   2
ATOM      2  C   LIG    1       -3.250  -2.635   2.500  0.00  0.00    -0.020 C 
ATOM      3  C   LIG    1       -2.240  -3.391   3.320  0.00  0.00    +0.030 C 
ATOM      4  C   LIG    1       -1.130  -4.019   2.456  0.00  0.00    +0.000 C 
ATOM      5  C   LIG    1       -1.669  -4.652   1.159  0.00  0.00    -0.010 C 
ATOM      6  C   LIG    1       -2.947  -5.415   1.378  0.00  0.00    +0.010 C 
ATOM      7  C   LIG    1       -4.135  -4.478   1.076  0.00  0.00    +0.000 C 
ATOM      8  C   LIG    1       -4.428  -3.579   2.182  0.00  0.00    +0.030 C 
BRANCH   2   9
ATOM      9  C   LIG    1       -3.751  -1.445   3.277  0.00  0.00    -0.080 A 
ATOM     10  C   LIG    1       -2.888  -0.411   3.589  0.00  0.00    +0.010 A 
ATOM     11  C   LIG    1       -3.349   0.683   4.298  0.00  0.00    +0.000 A 
ATOM     12  C   LIG    1       -4.669   0.738   4.705  0.00  0.00    +0.000 A 
ATOM     13  C   LIG    1       -5.530  -0.299   4.397  0.00  0.00    +0.000 A 
ATOM     14  C   LIG    1       -5.071  -1.391   3.684  0.00  0.00    +0.010 A 
ENDBRANCH   2   9
ENDBRANCH   1   2
BRANCH   1  16
ATOM     15  C   LIG    1       -2.736  -0.245  -0.301  0.00  0.00    +0.600 C 
ATOM     16  N   LIG    1       -3.137  -0.846   0.837  0.00  0.00    -0.720 N 
ATOM     17  H   LIG    1       -3.778  -0.407   1.417  0.00  0.00    +0.400 HD
ATOM     18  O   LIG    1       -1.932  -0.796  -1.030  0.00  0.00    -0.530 OA
BRANCH  15  20
ATOM     19  C   LIG    1       -4.408   1.327  -1.419  0.00  0.00    +0.290 A 
ATOM     20  C   LIG    1       -3.270   1.075  -0.662  0.00  0.00    -0.290 A 
ATOM     21  C   LIG    1       -2.724   2.330  -0.305  0.00  0.00    +0.120 A 
ATOM     22  N   LIG    1       -3.482   3.261  -0.813  0.00  0.00    -0.270 NA
ATOM     23  C   LIG    1       -1.482   2.552   0.519  0.00  0.00    +0.170 C 
ATOM     24  N   LIG    1       -4.537   2.665  -1.511  0.00  0.00    -0.370 N 
ATOM     25  C   LIG    1       -5.603   3.375  -2.222  0.00  0.00    +0.360 C 
BRANCH  19  27
ATOM     26  C   LIG    1       -6.343  -0.025  -1.179  0.00  0.00    +0.250 C 
ATOM     27  O   LIG    1       -5.230   0.402  -1.967  0.00  0.00    -0.300 OA
ENDBRANCH  19  27
ENDBRANCH  15  20
ENDBRANCH   1  16
TORSDOF 5
