REMARK  Name = ZINCpe00000xXmzb.0
REMARK                            x       y       z     vdW  Elec       q    Type
REMARK                         _______ _______ _______ _____ _____    ______ ____
ROOT
ATOM      1  O   LIG    1       -7.052   2.196  -2.611  0.00  0.00    -0.290 OA
ENDROOT
BRANCH   1   4
ATOM      2  C   LIG    1       -5.663  -0.520  -0.629  0.00  0.00    +0.140 A 
ATOM      3  C   LIG    1       -6.027   0.221  -1.734  0.00  0.00    -0.040 A 
ATOM      4  C   LIG    1       -6.679   1.438  -1.549  0.00  0.00    +0.170 A 
ATOM      5  C   LIG    1       -6.939   1.856  -0.246  0.00  0.00    -0.120 A 
ATOM      6  C   LIG    1       -6.543   1.057   0.807  0.00  0.00    +0.300 A 
ATOM      7  N   LIG    1       -5.932  -0.092   0.591  0.00  0.00    -0.490 NA
BRANCH   2   8
ATOM      8  C   LIG    1       -4.957  -1.838  -0.816  0.00  0.00    +0.350 C 
BRANCH   8  11
ATOM      9  C   LIG    1       -1.181  -2.469  -0.771  0.00  0.00    +0.100 C 
ATOM     10  C   LIG    1       -2.671  -2.680  -0.860  0.00  0.00    +0.510 C 
ATOM     11  N   LIG    1       -3.509  -1.634  -0.723  0.00  0.00    -0.730 N 
ATOM     12  H   LIG    1       -3.154  -0.745  -0.562  0.00  0.00    +0.400 HD
ATOM     13  O   LIG    1       -3.115  -3.791  -1.061  0.00  0.00    -0.540 OA
ENDBRANCH   8  11
ENDBRANCH   2   8
ENDBRANCH   1   4
BRANCH   1  14
ATOM     14  C   LIG    1       -7.716   3.429  -2.327  0.00  0.00    +0.170 C 
ATOM     15  C   LIG    1       -9.249   3.229  -2.290  0.00  0.00    +0.010 C 
ATOM     16  C   LIG    1       -9.833   4.478  -2.977  0.00  0.00    +0.180 C 
ATOM     17  N   LIG    1       -8.693   5.343  -3.348  0.00  0.00    -0.510 NA
ATOM     18  C   LIG    1       -7.525   4.435  -3.489  0.00  0.00    +0.200 C 
BRANCH  17  19
ATOM     19  C   LIG    1       -8.960   6.056  -4.604  0.00  0.00    +0.230 C 
BRANCH  19  20
ATOM     20  C   LIG    1       -8.565   5.170  -5.788  0.00  0.00    -0.010 C 
ATOM     21  C   LIG    1       -8.812   5.925  -7.095  0.00  0.00    +0.040 C 
BRANCH  20  22
ATOM     22  C   LIG    1       -9.404   3.891  -5.770  0.00  0.00    -0.350 C 
BRANCH  22  23
ATOM     23  S   LIG    1       -8.842   2.781  -7.091  0.00  0.00    +2.410 S 
ATOM     24  O   LIG    1       -7.516   2.364  -6.797  0.00  0.00    -0.930 OA
ATOM     25  O   LIG    1       -9.116   3.393  -8.344  0.00  0.00    -0.930 OA
ATOM     26  C   LIG    1       -9.953   1.362  -6.885  0.00  0.00    -0.270 C 
ENDBRANCH  22  23
ENDBRANCH  20  22
ENDBRANCH  19  20
ENDBRANCH  17  19
ENDBRANCH   1  14
TORSDOF 8
