REMARK  Name = ZINCrg00000J1LJM.0
REMARK                            x       y       z     vdW  Elec       q    Type
REMARK                         _______ _______ _______ _____ _____    ______ ____
ROOT
ATOM      1  C   LIG    1        3.352   1.040  -3.398  0.00  0.00    +0.250 C 
ATOM      2  C   LIG    1        1.965   1.522  -3.855  0.00  0.00    +0.300 C 
ATOM      3  N   LIG    1        0.983   1.127  -2.832  0.00  0.00    -0.610 N 
ATOM      4  C   LIG    1        0.973  -0.275  -2.387  0.00  0.00    +0.260 C 
ATOM      5  C   LIG    1        2.405  -0.671  -2.006  0.00  0.00    +0.230 C 
ATOM      6  C   LIG    1        0.114   2.023  -2.323  0.00  0.00    +0.530 C 
ATOM      7  O   LIG    1        0.077   3.152  -2.766  0.00  0.00    -0.520 OA
ATOM      8  O   LIG    1        3.284  -0.354  -3.087  0.00  0.00    -0.360 OA
ENDROOT
BRANCH   1  13
ATOM      9  C   LIG    1        7.398   2.506  -6.044  0.00  0.00    +0.200 C 
ATOM     10  C   LIG    1        6.084   1.889  -5.639  0.00  0.00    +0.190 A 
ATOM     11  N   LIG    1        5.283   1.201  -6.406  0.00  0.00    -0.290 NA
ATOM     12  N   LIG    1        4.253   0.827  -5.732  0.00  0.00    -0.260 NA
ATOM     13  C   LIG    1        4.350   1.261  -4.505  0.00  0.00    +0.170 A 
ATOM     14  N   LIG    1        5.512   1.951  -4.412  0.00  0.00    -0.570 N 
ATOM     15  H   LIG    1        5.864   2.398  -3.626  0.00  0.00    +0.430 HD
ENDBRANCH   1  13
BRANCH   6  16
ATOM     16  C   LIG    1       -0.812   1.622  -1.204  0.00  0.00    -0.010 C 
ATOM     17  C   LIG    1       -0.116   1.767   0.169  0.00  0.00    +0.080 C 
ATOM     18  C   LIG    1       -1.208   2.262   1.092  0.00  0.00    +0.520 C 
ATOM     19  N   LIG    1       -2.244   2.728   0.370  0.00  0.00    -0.610 N 
ATOM     20  O   LIG    1       -1.157   2.239   2.303  0.00  0.00    -0.520 OA
ATOM     21  C   LIG    1       -1.983   2.621  -1.070  0.00  0.00    +0.310 C 
BRANCH  19  22
ATOM     22  C   LIG    1       -3.475   3.273   0.948  0.00  0.00    +0.350 C 
BRANCH  22  23
ATOM     23  C   LIG    1       -4.476   2.163   1.137  0.00  0.00    -0.110 A 
ATOM     24  C   LIG    1       -5.368   1.857   0.126  0.00  0.00    +0.010 A 
ATOM     25  C   LIG    1       -6.284   0.835   0.297  0.00  0.00    +0.000 A 
ATOM     26  C   LIG    1       -6.314   0.126   1.483  0.00  0.00    +0.010 A 
ATOM     27  C   LIG    1       -5.426   0.436   2.497  0.00  0.00    +0.000 A 
ATOM     28  C   LIG    1       -4.507   1.454   2.323  0.00  0.00    +0.030 A 
ENDBRANCH  22  23
ENDBRANCH  19  22
ENDBRANCH   6  16
TORSDOF 4
