REMARK  Name = ZINCrg00000J1LJM.1
REMARK                            x       y       z     vdW  Elec       q    Type
REMARK                         _______ _______ _______ _____ _____    ______ ____
ROOT
ATOM      1  C   LIG    1       -6.391  -0.266   7.236  0.00  0.00    +0.280 C 
ATOM      2  C   LIG    1       -6.161   1.064   6.509  0.00  0.00    +0.280 C 
ATOM      3  N   LIG    1       -4.914   0.961   5.736  0.00  0.00    -0.610 N 
ATOM      4  C   LIG    1       -3.709   0.475   6.428  0.00  0.00    +0.250 C 
ATOM      5  C   LIG    1       -4.057  -0.821   7.160  0.00  0.00    +0.230 C 
ATOM      6  C   LIG    1       -4.876   1.296   4.431  0.00  0.00    +0.530 C 
ATOM      7  O   LIG    1       -5.881   1.690   3.877  0.00  0.00    -0.520 OA
ATOM      8  O   LIG    1       -5.214  -0.609   7.972  0.00  0.00    -0.360 OA
ENDROOT
BRANCH   1  12
ATOM      9  C   LIG    1      -10.993  -0.707   9.159  0.00  0.00    +0.210 C 
ATOM     10  C   LIG    1       -9.544  -0.324   9.003  0.00  0.00    +0.290 A 
ATOM     11  N   LIG    1       -8.776  -0.622   7.987  0.00  0.00    -0.530 NA
ATOM     12  C   LIG    1       -7.555  -0.127   8.184  0.00  0.00    +0.230 A 
ATOM     13  N   LIG    1       -7.531   0.502   9.329  0.00  0.00    -0.280 NA
ATOM     14  N   LIG    1       -8.817   0.388   9.882  0.00  0.00    -0.480 N 
ATOM     15  H   LIG    1       -9.120   0.749  10.729  0.00  0.00    +0.440 HD
ENDBRANCH   1  12
BRANCH   6  16
ATOM     16  C   LIG    1       -3.587   1.182   3.660  0.00  0.00    +0.000 C 
ATOM     17  C   LIG    1       -3.168  -0.298   3.498  0.00  0.00    +0.070 C 
ATOM     18  C   LIG    1       -2.577  -0.367   2.107  0.00  0.00    +0.520 C 
ATOM     19  N   LIG    1       -2.927   0.722   1.401  0.00  0.00    -0.610 N 
ATOM     20  O   LIG    1       -1.887  -1.273   1.690  0.00  0.00    -0.520 OA
ATOM     21  C   LIG    1       -3.780   1.618   2.191  0.00  0.00    +0.310 C 
BRANCH  19  22
ATOM     22  C   LIG    1       -2.514   0.980   0.019  0.00  0.00    +0.350 C 
BRANCH  22  23
ATOM     23  C   LIG    1       -1.219   1.751   0.017  0.00  0.00    -0.110 A 
ATOM     24  C   LIG    1       -0.013   1.076   0.008  0.00  0.00    +0.030 A 
ATOM     25  C   LIG    1        1.175   1.783   0.000  0.00  0.00    +0.000 A 
ATOM     26  C   LIG    1        1.156   3.165   0.008  0.00  0.00    +0.010 A 
ATOM     27  C   LIG    1       -0.050   3.840   0.022  0.00  0.00    +0.000 A 
ATOM     28  C   LIG    1       -1.238   3.133   0.029  0.00  0.00    +0.010 A 
ENDBRANCH  22  23
ENDBRANCH  19  22
ENDBRANCH   6  16
TORSDOF 4
