REMARK  Name = ZINCkj00000GeTNu.0
REMARK                            x       y       z     vdW  Elec       q    Type
REMARK                         _______ _______ _______ _____ _____    ______ ____
ROOT
ATOM      1  N   LIG    1        5.110  -3.250  -2.199  0.00  0.00    -0.750 N 
ATOM      2  H   LIG    1        5.051  -3.407  -1.244  0.00  0.00    +0.400 HD
ATOM      3  C   LIG    1        4.338  -2.308  -2.776  0.00  0.00    +0.700 C 
ATOM      4  N   LIG    1        3.484  -1.584  -2.026  0.00  0.00    -0.730 N 
ATOM      5  H   LIG    1        3.425  -1.741  -1.070  0.00  0.00    +0.400 HD
ATOM      6  O   LIG    1        4.411  -2.112  -3.974  0.00  0.00    -0.580 OA
ENDROOT
BRANCH   1  10
ATOM      7  N   LIG    1        8.219  -3.954  -2.024  0.00  0.00    -0.400 N 
ATOM      8  C   LIG    1        7.848  -5.392  -2.074  0.00  0.00    +0.280 C 
ATOM      9  C   LIG    1        6.328  -5.393  -2.339  0.00  0.00    -0.010 C 
ATOM     10  C   LIG    1        6.037  -4.038  -3.015  0.00  0.00    +0.290 C 
ATOM     11  C   LIG    1        5.952  -6.545  -3.274  0.00  0.00    +0.080 C 
ATOM     12  C   LIG    1        7.407  -3.331  -3.102  0.00  0.00    +0.260 C 
ATOM     13  H   LIG    1        7.978  -3.559  -1.128  0.00  0.00    +0.420 HD
BRANCH   7  15
ATOM     14  C   LIG    1       10.008  -2.296  -2.237  0.00  0.00    +0.090 C 
ATOM     15  C   LIG    1        9.653  -3.783  -2.293  0.00  0.00    +0.170 C 
ATOM     16  C   LIG    1       10.463  -4.542  -1.240  0.00  0.00    +0.090 C 
ENDBRANCH   7  15
ENDBRANCH   1  10
BRANCH   4  17
ATOM     17  C   LIG    1        2.645  -0.560  -2.653  0.00  0.00    +0.340 C 
BRANCH  17  18
ATOM     18  C   LIG    1        1.788   0.099  -1.603  0.00  0.00    -0.200 C 
ATOM     19  C   LIG    1        2.208   1.204  -1.063  0.00  0.00    +0.010 C 
ATOM     20  C   LIG    1        1.429   1.931  -0.001  0.00  0.00    +0.050 C 
ATOM     21  C   LIG    1       -0.017   1.429   0.010  0.00  0.00    +0.210 C 
ATOM     22  O   LIG    1        0.002  -0.004   0.002  0.00  0.00    -0.370 OA
ATOM     23  C   LIG    1        0.486  -0.550  -1.227  0.00  0.00    +0.270 C 
ENDBRANCH  17  18
ENDBRANCH   4  17
TORSDOF 4
