REMARK  Name = ZINCkj00000GeTNu.1
REMARK                            x       y       z     vdW  Elec       q    Type
REMARK                         _______ _______ _______ _____ _____    ______ ____
ROOT
ATOM      1  N   LIG    1        5.109  -3.251  -2.203  0.00  0.00    -0.740 N 
ATOM      2  H   LIG    1        5.051  -3.408  -1.247  0.00  0.00    +0.410 HD
ATOM      3  C   LIG    1        4.337  -2.308  -2.779  0.00  0.00    +0.710 C 
ATOM      4  N   LIG    1        3.484  -1.584  -2.028  0.00  0.00    -0.730 N 
ATOM      5  H   LIG    1        3.425  -1.741  -1.072  0.00  0.00    +0.400 HD
ATOM      6  O   LIG    1        4.410  -2.111  -3.977  0.00  0.00    -0.580 OA
ENDROOT
BRANCH   1  10
ATOM      7  N   LIG    1        8.345  -4.496  -3.368  0.00  0.00    -0.390 N 
ATOM      8  C   LIG    1        7.836  -5.643  -2.585  0.00  0.00    +0.270 C 
ATOM      9  C   LIG    1        6.333  -5.399  -2.351  0.00  0.00    +0.000 C 
ATOM     10  C   LIG    1        6.036  -4.037  -3.019  0.00  0.00    +0.280 C 
ATOM     11  C   LIG    1        5.507  -6.506  -3.010  0.00  0.00    +0.070 C 
ATOM     12  C   LIG    1        7.431  -3.364  -3.069  0.00  0.00    +0.250 C 
ATOM     13  H   LIG    1        8.322  -4.710  -4.354  0.00  0.00    +0.430 HD
BRANCH   7  15
ATOM     14  C   LIG    1       10.623  -5.375  -3.186  0.00  0.00    +0.090 C 
ATOM     15  C   LIG    1        9.714  -4.166  -2.953  0.00  0.00    +0.160 C 
ATOM     16  C   LIG    1       10.224  -2.979  -3.772  0.00  0.00    +0.090 C 
ENDBRANCH   7  15
ENDBRANCH   1  10
BRANCH   4  17
ATOM     17  C   LIG    1        2.644  -0.560  -2.654  0.00  0.00    +0.340 C 
BRANCH  17  18
ATOM     18  C   LIG    1        1.788   0.099  -1.603  0.00  0.00    -0.200 C 
ATOM     19  C   LIG    1        2.208   1.204  -1.063  0.00  0.00    +0.010 C 
ATOM     20  C   LIG    1        1.429   1.931  -0.001  0.00  0.00    +0.050 C 
ATOM     21  C   LIG    1       -0.017   1.429   0.010  0.00  0.00    +0.210 C 
ATOM     22  O   LIG    1        0.002  -0.004   0.002  0.00  0.00    -0.370 OA
ATOM     23  C   LIG    1        0.486  -0.550  -1.227  0.00  0.00    +0.270 C 
ENDBRANCH  17  18
ENDBRANCH   4  17
TORSDOF 4
