REMARK  Name = ZINCrH000004qo83.0
REMARK                            x       y       z     vdW  Elec       q    Type
REMARK                         _______ _______ _______ _____ _____    ______ ____
ROOT
ATOM      1  C   LIG    1        2.234   4.223  -0.101  0.00  0.00    +0.560 C 
ATOM      2  N   LIG    1        3.478   3.704  -0.104  0.00  0.00    -0.600 N 
ATOM      3  C   LIG    1        3.682   2.250  -0.157  0.00  0.00    +0.260 C 
ATOM      4  C   LIG    1        4.622   1.931  -1.330  0.00  0.00    +0.040 C 
ATOM      5  C   LIG    1        5.911   2.742  -1.178  0.00  0.00    +0.040 C 
ATOM      6  C   LIG    1        5.583   4.236  -1.216  0.00  0.00    +0.090 C 
ATOM      7  C   LIG    1        4.655   4.582  -0.048  0.00  0.00    +0.290 C 
ATOM      8  O   LIG    1        2.078   5.427  -0.153  0.00  0.00    -0.510 OA
ENDROOT
BRANCH   6   9
ATOM      9  C   LIG    1        6.857   5.034  -1.099  0.00  0.00    +0.290 A 
ATOM     10  N   LIG    1        7.536   5.505  -2.103  0.00  0.00    -0.480 NA
ATOM     11  C   LIG    1        8.627   6.172  -1.645  0.00  0.00    +0.050 A 
ATOM     12  C   LIG    1        9.671   6.857  -2.270  0.00  0.00    +0.070 A 
ATOM     13  C   LIG    1       10.649   7.441  -1.517  0.00  0.00    +0.000 A 
ATOM     14  C   LIG    1       10.619   7.363  -0.132  0.00  0.00    +0.030 A 
ATOM     15  C   LIG    1        9.598   6.691   0.507  0.00  0.00    +0.010 A 
ATOM     16  C   LIG    1        8.595   6.091  -0.242  0.00  0.00    +0.050 A 
ATOM     17  N   LIG    1        7.460   5.370   0.073  0.00  0.00    -0.600 N 
ATOM     18  H   LIG    1        7.152   5.144   0.964  0.00  0.00    +0.420 HD
ENDBRANCH   6   9
BRANCH   1  22
ATOM     19  C   LIG    1       -2.497   3.209  -1.324  0.00  0.00    +0.140 C 
ATOM     20  C   LIG    1       -1.217   2.835  -0.621  0.00  0.00    -0.010 A 
ATOM     21  C   LIG    1       -0.125   3.675  -0.687  0.00  0.00    +0.090 A 
ATOM     22  C   LIG    1        1.059   3.327  -0.035  0.00  0.00    -0.070 A 
ATOM     23  C   LIG    1        1.131   2.130   0.678  0.00  0.00    +0.050 A 
ATOM     24  C   LIG    1        0.031   1.298   0.736  0.00  0.00    +0.110 A 
ATOM     25  C   LIG    1       -1.138   1.647   0.083  0.00  0.00    -0.030 A 
BRANCH  25  26
ATOM     26  N   LIG    1       -2.312   0.747   0.144  0.00  0.00    +0.030 N 
ATOM     27  O   LIG    1       -3.357   1.073  -0.389  0.00  0.00    -0.150 OA
ATOM     28  O   LIG    1       -2.232  -0.320   0.727  0.00  0.00    -0.160 OA
ENDBRANCH  25  26
ENDBRANCH   1  22
TORSDOF 3
