REMARK  Name = ZINCpe00000yLk51.0
REMARK                            x       y       z     vdW  Elec       q    Type
REMARK                         _______ _______ _______ _____ _____    ______ ____
ROOT
ATOM      1  C   LIG    1       -0.220   0.904  -0.087  0.00  0.00    +0.170 C 
ATOM      2  C   LIG    1       -0.704   1.329  -1.498  0.00  0.00    +0.080 C 
ATOM      3  C   LIG    1        0.617   1.605  -2.248  0.00  0.00    +0.220 C 
ATOM      4  N   LIG    1        1.646   1.877  -1.234  0.00  0.00    -0.610 N 
ATOM      5  C   LIG    1        2.943   2.145  -1.483  0.00  0.00    +0.620 C 
ATOM      6  O   LIG    1        3.372   2.072  -2.619  0.00  0.00    -0.520 OA
ATOM      7  C   LIG    1        1.024   1.808   0.101  0.00  0.00    +0.230 C 
ENDROOT
BRANCH   5   8
ATOM      8  C   LIG    1        3.838   2.524  -0.384  0.00  0.00    -0.040 A 
ATOM      9  C   LIG    1        5.202   2.703  -0.470  0.00  0.00    +0.080 A 
ATOM     10  C   LIG    1        5.651   3.058   0.807  0.00  0.00    -0.130 A 
ATOM     11  C   LIG    1        4.576   3.089   1.631  0.00  0.00    +0.230 A 
ATOM     12 CL   LIG    1        7.293   3.397   1.255  0.00  0.00    -0.040 Cl
ATOM     13  N   LIG    1        3.467   2.771   0.918  0.00  0.00    -0.540 N 
ATOM     14  H   LIG    1        2.564   2.724   1.268  0.00  0.00    +0.420 HD
ENDBRANCH   5   8
BRANCH   1  16
ATOM     15  C   LIG    1       -1.148   0.336   2.049  0.00  0.00    +0.210 C 
ATOM     16  O   LIG    1       -1.212   1.186   0.902  0.00  0.00    -0.370 OA
ENDBRANCH   1  16
BRANCH   3  17
ATOM     17  C   LIG    1        0.455   2.820  -3.164  0.00  0.00    +0.260 C 
BRANCH  17  18
ATOM     18  N   LIG    1        1.629   2.936  -4.032  0.00  0.00    -0.720 N 
ATOM     19  H   LIG    1        2.298   2.234  -4.040  0.00  0.00    +0.410 HD
ATOM     20  C   LIG    1        1.780   4.019  -4.820  0.00  0.00    +0.510 C 
ATOM     21  O   LIG    1        0.944   4.898  -4.810  0.00  0.00    -0.530 OA
BRANCH  20  22
ATOM     22  C   LIG    1        2.987   4.139  -5.713  0.00  0.00    +0.210 C 
BRANCH  22  23
ATOM     23  N   LIG    1        2.918   5.400  -6.464  0.00  0.00    -0.490 NA
ATOM     24  C   LIG    1        2.800   6.559  -5.547  0.00  0.00    +0.210 C 
ATOM     25  C   LIG    1        3.580   7.672  -6.208  0.00  0.00    -0.030 C 
ATOM     26  C   LIG    1        4.367   7.169  -7.125  0.00  0.00    -0.030 C 
ATOM     27  C   LIG    1        4.193   5.669  -7.170  0.00  0.00    +0.200 C 
ENDBRANCH  22  23
ENDBRANCH  20  22
ENDBRANCH  17  18
ENDBRANCH   3  17
TORSDOF 6
