REMARK  Name = ZINCvU0000000IxP.0
REMARK                            x       y       z     vdW  Elec       q    Type
REMARK                         _______ _______ _______ _____ _____    ______ ____
ROOT
ATOM      1  C   LIG    1        0.880   1.257  -0.135  0.00  0.00    +0.290 A 
ATOM      2  N   LIG    1        0.854   2.553  -0.242  0.00  0.00    -0.480 NA
ATOM      3  C   LIG    1        2.117   3.044  -0.159  0.00  0.00    +0.050 A 
ATOM      4  C   LIG    1        2.656   4.332  -0.209  0.00  0.00    +0.070 A 
ATOM      5  C   LIG    1        4.007   4.509  -0.099  0.00  0.00    +0.000 A 
ATOM      6  C   LIG    1        4.853   3.421   0.061  0.00  0.00    +0.030 A 
ATOM      7  C   LIG    1        4.343   2.141   0.113  0.00  0.00    +0.010 A 
ATOM      8  C   LIG    1        2.974   1.941   0.004  0.00  0.00    +0.060 A 
ATOM      9  N   LIG    1        2.161   0.826   0.015  0.00  0.00    -0.480 N 
ENDROOT
BRANCH   1  12
ATOM     10  N   LIG    1       -2.604   0.519  -0.929  0.00  0.00    -0.570 N 
ATOM     11  C   LIG    1       -1.223   0.696  -1.395  0.00  0.00    +0.300 C 
ATOM     12  C   LIG    1       -0.333   0.363  -0.177  0.00  0.00    +0.090 C 
ATOM     13  C   LIG    1       -1.285   0.666   1.003  0.00  0.00    +0.090 C 
ATOM     14  C   LIG    1       -2.669   0.505   0.414  0.00  0.00    +0.530 C 
ATOM     15  O   LIG    1       -3.689   0.381   1.059  0.00  0.00    -0.510 OA
BRANCH  10  21
ATOM     16  C   LIG    1       -4.114  -0.881  -2.203  0.00  0.00    +0.140 A 
ATOM     17  C   LIG    1       -5.210  -1.009  -3.040  0.00  0.00    -0.070 A 
ATOM     18  C   LIG    1       -5.904   0.115  -3.449  0.00  0.00    +0.060 A 
ATOM     19  C   LIG    1       -5.506   1.369  -3.025  0.00  0.00    -0.020 A 
ATOM     20  C   LIG    1       -4.417   1.506  -2.184  0.00  0.00    +0.060 A 
ATOM     21  C   LIG    1       -3.713   0.383  -1.775  0.00  0.00    +0.110 A 
BRANCH  16  23
ATOM     22  C   LIG    1       -3.899  -3.248  -2.279  0.00  0.00    +0.250 C 
ATOM     23  O   LIG    1       -3.431  -1.985  -1.801  0.00  0.00    -0.310 OA
ENDBRANCH  16  23
ENDBRANCH  10  21
ENDBRANCH   1  12
BRANCH   9  24
ATOM     24  C   LIG    1        2.598  -0.565   0.161  0.00  0.00    +0.370 C 
BRANCH  24  25
ATOM     25  C   LIG    1        2.474  -0.982   1.604  0.00  0.00    -0.110 A 
ATOM     26  C   LIG    1        1.294  -1.536   2.065  0.00  0.00    +0.040 A 
ATOM     27  C   LIG    1        1.180  -1.918   3.389  0.00  0.00    +0.030 A 
ATOM     28  C   LIG    1        2.245  -1.746   4.253  0.00  0.00    +0.050 A 
ATOM     29  C   LIG    1        3.425  -1.191   3.793  0.00  0.00    +0.030 A 
ATOM     30  C   LIG    1        3.542  -0.814   2.467  0.00  0.00    -0.020 A 
ATOM     31 CL   LIG    1        5.026  -0.125   1.888  0.00  0.00    -0.060 Cl
ENDBRANCH  24  25
ENDBRANCH   9  24
TORSDOF 5
