REMARK  Name = ZINCtV00000L6kww.0
REMARK                            x       y       z     vdW  Elec       q    Type
REMARK                         _______ _______ _______ _____ _____    ______ ____
ROOT
ATOM      1  N   LIG    1        3.670   1.427   1.941  0.00  0.00    -0.490 N 
ATOM      2  C   LIG    1        3.298   2.757   2.040  0.00  0.00    +0.170 A 
ATOM      3  C   LIG    1        1.950   2.872   1.670  0.00  0.00    -0.100 A 
ATOM      4  C   LIG    1        1.490   1.512   1.328  0.00  0.00    +0.100 A 
ATOM      5  N   LIG    1        0.326   1.039   0.919  0.00  0.00    -0.390 NA
ATOM      6  C   LIG    1        0.192  -0.266   0.679  0.00  0.00    +0.080 A 
ATOM      7  C   LIG    1       -1.027  -0.816   0.243  0.00  0.00    +0.010 A 
ATOM      8  C   LIG    1       -1.115  -2.156   0.011  0.00  0.00    +0.140 A 
ATOM      9  C   LIG    1       -0.014  -3.005   0.197  0.00  0.00    +0.160 A 
ATOM     10  C   LIG    1        1.192  -2.526   0.617  0.00  0.00    -0.020 A 
ATOM     11  C   LIG    1        1.341  -1.152   0.872  0.00  0.00    +0.150 A 
ATOM     12  N   LIG    1        2.503  -0.640   1.286  0.00  0.00    -0.460 NA
ATOM     13  C   LIG    1        1.325   4.117   1.684  0.00  0.00    +0.090 A 
ATOM     14  C   LIG    1        2.037   5.236   2.061  0.00  0.00    -0.020 A 
ATOM     15  C   LIG    1        3.370   5.125   2.426  0.00  0.00    +0.060 A 
ATOM     16  C   LIG    1        3.999   3.898   2.418  0.00  0.00    -0.010 A 
ATOM     17  C   LIG    1        2.604   0.658   1.516  0.00  0.00    +0.320 A 
ENDROOT
BRANCH   1  18
ATOM     18  C   LIG    1        5.006   0.908   2.244  0.00  0.00    +0.300 C 
BRANCH  18  19
ATOM     19  C   LIG    1        5.865   0.940   0.978  0.00  0.00    +0.000 C 
BRANCH  19  21
ATOM     20  C   LIG    1        8.119   0.429   0.029  0.00  0.00    +0.010 C 
ATOM     21  C   LIG    1        7.260   0.398   1.295  0.00  0.00    +0.020 C 
ENDBRANCH  19  21
ENDBRANCH  18  19
ENDBRANCH   1  18
BRANCH   8  22
ATOM     22  O   LIG    1       -2.296  -2.682  -0.409  0.00  0.00    -0.290 OA
BRANCH  22  23
ATOM     23  C   LIG    1       -3.417  -1.798  -0.462  0.00  0.00    +0.150 C 
ATOM     24  C   LIG    1       -4.711  -2.607  -0.346  0.00  0.00    +0.070 C 
ATOM     25  C   LIG    1       -3.407  -1.041  -1.792  0.00  0.00    +0.030 C 
ENDBRANCH  22  23
ENDBRANCH   8  22
BRANCH   9  26
ATOM     26  O   LIG    1       -0.151  -4.335  -0.048  0.00  0.00    -0.290 OA
BRANCH  26  27
ATOM     27  C   LIG    1        1.029  -5.136   0.040  0.00  0.00    +0.150 C 
ATOM     28  C   LIG    1        0.853  -6.397  -0.808  0.00  0.00    +0.070 C 
ATOM     29  C   LIG    1        1.271  -5.531   1.498  0.00  0.00    +0.030 C 
ENDBRANCH  26  27
ENDBRANCH   9  26
TORSDOF 7
