REMARK  Name = ZINCpe000000XZT9.0
REMARK                            x       y       z     vdW  Elec       q    Type
REMARK                         _______ _______ _______ _____ _____    ______ ____
ROOT
ATOM      1  C   LIG    1       -2.491   0.534  -2.567  0.00  0.00    +0.520 C 
ATOM      2  N   LIG    1       -2.041   0.902  -1.351  0.00  0.00    -0.600 N 
ATOM      3  C   LIG    1       -2.842   0.610  -0.162  0.00  0.00    +0.260 C 
ATOM      4  C   LIG    1       -3.301   1.890   0.520  0.00  0.00    +0.220 C 
ATOM      5  O   LIG    1       -2.166   2.658   0.941  0.00  0.00    -0.320 OA
ATOM      6  C   LIG    1       -1.679   3.533   0.030  0.00  0.00    +0.100 A 
ATOM      7  C   LIG    1       -1.859   4.899   0.209  0.00  0.00    +0.000 A 
ATOM      8  C   LIG    1       -1.409   5.785  -0.749  0.00  0.00    +0.030 A 
ATOM      9  C   LIG    1       -0.778   5.322  -1.889  0.00  0.00    +0.010 A 
ATOM     10  C   LIG    1       -0.575   3.963  -2.062  0.00  0.00    +0.050 A 
ATOM     11  C   LIG    1       -1.007   3.083  -1.098  0.00  0.00    -0.130 A 
ATOM     12  C   LIG    1       -0.753   1.593  -1.232  0.00  0.00    +0.300 C 
ATOM     13  O   LIG    1       -1.831   0.774  -3.556  0.00  0.00    -0.530 OA
ENDROOT
BRANCH   1  14
ATOM     14  C   LIG    1       -3.814  -0.176  -2.698  0.00  0.00    +0.150 C 
BRANCH  14  19
ATOM     15  C   LIG    1       -4.806  -1.369  -8.194  0.00  0.00    +0.190 C 
ATOM     16  C   LIG    1       -4.552  -1.036  -6.747  0.00  0.00    +0.400 A 
ATOM     17  N   LIG    1       -4.000  -1.931  -5.973  0.00  0.00    -0.540 NA
ATOM     18  C   LIG    1       -3.749  -1.682  -4.685  0.00  0.00    +0.200 A 
ATOM     19  C   LIG    1       -4.082  -0.474  -4.150  0.00  0.00    -0.250 A 
ATOM     20  C   LIG    1       -4.679   0.493  -4.986  0.00  0.00    +0.530 A 
ATOM     21  O   LIG    1       -4.988   1.589  -4.548  0.00  0.00    -0.530 OA
ATOM     22  C   LIG    1       -3.104  -2.737  -3.824  0.00  0.00    +0.150 C 
ATOM     23  N   LIG    1       -4.900   0.180  -6.280  0.00  0.00    -0.630 N 
ATOM     24  H   LIG    1       -5.309   0.829  -6.874  0.00  0.00    +0.420 HD
ENDBRANCH  14  19
ENDBRANCH   1  14
BRANCH  12  25
ATOM     25  C   LIG    1       -0.013   1.086   0.008  0.00  0.00    +0.200 C 
BRANCH  25  26
ATOM     26  O   LIG    1        0.323  -0.292  -0.168  0.00  0.00    -0.570 OA
ATOM     27  H   LIG    1        0.795  -0.680   0.581  0.00  0.00    +0.380 HD
ENDBRANCH  25  26
ENDBRANCH  12  25
TORSDOF 4
