REMARK  Name = ZINCFt0000000qoE.1
REMARK                            x       y       z     vdW  Elec       q    Type
REMARK                         _______ _______ _______ _____ _____    ______ ____
ROOT
ATOM      1  C   LIG    1       -0.361  -1.910  -0.765  0.00  0.00    +0.500 C 
ATOM      2  N   LIG    1       -0.242  -0.568  -0.798  0.00  0.00    -0.720 N 
ATOM      3  H   LIG    1       -0.338  -0.094  -1.639  0.00  0.00    +0.410 HD
ATOM      4  O   LIG    1       -0.241  -2.504   0.287  0.00  0.00    -0.490 OA
ENDROOT
BRANCH   1   6
ATOM      5  O   LIG    1       -0.759  -2.074  -3.075  0.00  0.00    -0.520 OA
ATOM      6  C   LIG    1       -0.639  -2.667  -2.023  0.00  0.00    +0.500 C 
ATOM      7  N   LIG    1       -0.758  -4.010  -1.990  0.00  0.00    -0.690 N 
ATOM      8  H   LIG    1       -0.662  -4.484  -1.149  0.00  0.00    +0.420 HD
BRANCH   7   9
ATOM      9  C   LIG    1       -1.031  -4.752  -3.223  0.00  0.00    +0.280 C 
BRANCH   9  10
ATOM     10  C   LIG    1       -1.117  -6.247  -2.910  0.00  0.00    +0.020 C 
BRANCH  10  11
ATOM     11  C   LIG    1       -1.402  -7.021  -4.199  0.00  0.00    +0.200 C 
BRANCH  11  12
ATOM     12  N   LIG    1       -1.485  -8.457  -3.898  0.00  0.00    -0.540 NA
ATOM     13  C   LIG    1       -0.183  -8.980  -3.461  0.00  0.00    +0.200 C 
ATOM     14  C   LIG    1       -0.329 -10.455  -3.082  0.00  0.00    +0.240 C 
ATOM     15  N   LIG    1       -0.833 -11.207  -4.240  0.00  0.00    -0.480 NA
ATOM     16  C   LIG    1       -2.135 -10.685  -4.678  0.00  0.00    +0.220 C 
ATOM     17  C   LIG    1       -1.989  -9.209  -5.056  0.00  0.00    +0.200 C 
BRANCH  15  18
ATOM     18  C   LIG    1       -0.912 -12.567  -3.955  0.00  0.00    +0.240 C 
ATOM     19  C   LIG    1       -2.115 -13.259  -4.092  0.00  0.00    -0.010 C 
ATOM     20  C   LIG    1       -2.150 -14.607  -3.806  0.00  0.00    +0.370 C 
ATOM     21  N   LIG    1       -1.066 -15.240  -3.397  0.00  0.00    -0.470 NA
ATOM     22  C   LIG    1        0.090 -14.620  -3.250  0.00  0.00    +0.370 C 
ATOM     23  H   LIG    1       -1.120 -16.188  -3.199  0.00  0.00    +0.450 HD
ATOM     24  C   LIG    1        0.210 -13.274  -3.521  0.00  0.00    +0.020 C 
ENDBRANCH  15  18
ENDBRANCH  11  12
ENDBRANCH  10  11
ENDBRANCH   9  10
ENDBRANCH   7   9
ENDBRANCH   1   6
BRANCH   2  25
ATOM     25  C   LIG    1        0.031   0.174   0.435  0.00  0.00    +0.330 C 
BRANCH  25  26
ATOM     26  C   LIG    1       -0.002   1.653   0.149  0.00  0.00    -0.090 A 
ATOM     27  C   LIG    1        1.178   2.343  -0.058  0.00  0.00    +0.050 A 
ATOM     28  C   LIG    1        1.148   3.700  -0.321  0.00  0.00    +0.060 A 
ATOM     29  C   LIG    1       -0.061   4.367  -0.376  0.00  0.00    +0.040 A 
ATOM     30  C   LIG    1       -1.241   3.677  -0.169  0.00  0.00    +0.050 A 
ATOM     31  C   LIG    1       -1.212   2.319   0.088  0.00  0.00    -0.140 A 
BRANCH  31  32
ATOM     32  C   LIG    1       -2.498   1.566   0.308  0.00  0.00    +0.330 C 
BRANCH  32  33
ATOM     33  N   LIG    1       -2.893   0.896  -0.938  0.00  0.00    -0.390 N 
ATOM     34  C   LIG    1       -3.211   1.905  -1.957  0.00  0.00    +0.270 C 
ATOM     35  C   LIG    1       -3.603   1.207  -3.261  0.00  0.00    +0.230 C 
ATOM     36  N   LIG    1       -4.769   0.345  -3.020  0.00  0.00    -0.480 N 
ATOM     37  C   LIG    1       -4.473  -0.655  -1.984  0.00  0.00    +0.220 C 
ATOM     38  C   LIG    1       -4.073   0.058  -0.691  0.00  0.00    +0.280 C 
ATOM     39  H   LIG    1       -2.132   0.318  -1.264  0.00  0.00    +0.410 HD
BRANCH  36  40
ATOM     40  C   LIG    1       -5.190  -0.269  -4.202  0.00  0.00    +0.090 A 
ATOM     41  C   LIG    1       -5.275  -1.653  -4.276  0.00  0.00    -0.040 A 
ATOM     42  C   LIG    1       -5.696  -2.256  -5.445  0.00  0.00    +0.040 A 
ATOM     43  C   LIG    1       -6.024  -1.484  -6.544  0.00  0.00    +0.000 A 
ATOM     44  C   LIG    1       -5.936  -0.105  -6.476  0.00  0.00    +0.040 A 
ATOM     45  C   LIG    1       -5.520   0.504  -5.308  0.00  0.00    +0.000 A 
ENDBRANCH  36  40
ENDBRANCH  32  33
ENDBRANCH  31  32
ENDBRANCH  25  26
ENDBRANCH   2  25
TORSDOF 11
