REMARK  Name = ZINCpk00000Fc8bn.0
REMARK                            x       y       z     vdW  Elec       q    Type
REMARK                         _______ _______ _______ _____ _____    ______ ____
ROOT
ATOM      1  C   LIG    1        0.409   1.364  -2.543  0.00  0.00    +0.510 C 
ATOM      2  N   LIG    1        0.068   1.505  -1.247  0.00  0.00    -0.730 N 
ATOM      3  H   LIG    1       -0.773   1.926  -1.010  0.00  0.00    +0.400 HD
ATOM      4  O   LIG    1        1.460   0.837  -2.839  0.00  0.00    -0.530 OA
ENDROOT
BRANCH   1   5
ATOM      5  C   LIG    1       -0.515   1.861  -3.624  0.00  0.00    +0.080 C 
BRANCH   5  14
ATOM      6  C   LIG    1       -1.086   3.463  -5.726  0.00  0.00    +0.220 C 
ATOM      7  N   LIG    1       -0.781   2.062  -6.046  0.00  0.00    -0.560 NA
ATOM      8  C   LIG    1       -0.160   1.948  -7.368  0.00  0.00    +0.230 C 
ATOM      9  C   LIG    1       -0.238   0.498  -7.857  0.00  0.00    -0.320 C 
ATOM     10  S   LIG    1        0.711  -0.552  -6.716  0.00  0.00    +2.410 S 
ATOM     11  C   LIG    1       -0.017  -0.078  -5.119  0.00  0.00    -0.310 C 
ATOM     12  O   LIG    1        0.392  -1.912  -6.977  0.00  0.00    -0.940 OA
ATOM     13  O   LIG    1        2.070  -0.138  -6.738  0.00  0.00    -0.930 OA
ATOM     14  C   LIG    1        0.031   1.448  -4.992  0.00  0.00    +0.190 C 
ENDBRANCH   5  14
ENDBRANCH   1   5
BRANCH   2  15
ATOM     15  C   LIG    1        0.967   1.021  -0.196  0.00  0.00    +0.260 C 
BRANCH  15  16
ATOM     16  C   LIG    1        0.346   1.302   1.175  0.00  0.00    -0.020 C 
ATOM     17  C   LIG    1        0.148   2.798   1.315  0.00  0.00    +0.030 C 
ATOM     18  C   LIG    1       -0.678   3.126   2.561  0.00  0.00    +0.070 C 
ATOM     19  C   LIG    1        0.258   3.208   3.749  0.00  0.00    -0.080 A 
ATOM     20  C   LIG    1        0.518   4.436   4.329  0.00  0.00    +0.000 A 
ATOM     21  C   LIG    1        1.371   4.513   5.415  0.00  0.00    +0.000 A 
ATOM     22  C   LIG    1        1.959   3.366   5.916  0.00  0.00    +0.000 A 
ATOM     23  C   LIG    1        1.694   2.140   5.332  0.00  0.00    +0.000 A 
ATOM     24  C   LIG    1        0.840   2.070   4.246  0.00  0.00    -0.080 A 
ATOM     25  C   LIG    1        0.551   0.727   3.609  0.00  0.00    +0.070 C 
ATOM     26  C   LIG    1        1.232   0.684   2.239  0.00  0.00    +0.030 C 
ENDBRANCH  15  16
ENDBRANCH   2  15
TORSDOF 4
