REMARK  Name = ZINCvU0000000Ds3.0
REMARK                            x       y       z     vdW  Elec       q    Type
REMARK                         _______ _______ _______ _____ _____    ______ ____
ROOT
ATOM      1  C   LIG    1       -0.192   1.095  -0.200  0.00  0.00    +0.250 A 
ATOM      2  N   LIG    1       -0.314  -0.182  -0.495  0.00  0.00    -0.410 NA
ATOM      3  C   LIG    1        0.897  -0.749  -0.535  0.00  0.00    +0.070 A 
ATOM      4  C   LIG    1        1.836   0.234  -0.248  0.00  0.00    +0.060 A 
ATOM      5  N   LIG    1        1.134   1.392  -0.039  0.00  0.00    -0.550 N 
ATOM      6  H   LIG    1        1.507   2.260   0.181  0.00  0.00    +0.420 HD
ENDROOT
BRANCH   1   9
ATOM      7  C   LIG    1       -3.183   0.491  -0.837  0.00  0.00    +0.160 C 
ATOM      8  C   LIG    1       -2.616   1.798  -0.347  0.00  0.00    -0.240 A 
ATOM      9  C   LIG    1       -1.302   2.050  -0.071  0.00  0.00    +0.240 A 
ATOM     10  N   LIG    1       -1.200   3.361   0.345  0.00  0.00    -0.400 N 
ATOM     11  N   LIG    1       -2.485   3.921   0.327  0.00  0.00    -0.360 N 
ATOM     12  C   LIG    1        0.033   4.048   0.736  0.00  0.00    +0.350 C 
ATOM     13  C   LIG    1       -3.348   2.973  -0.088  0.00  0.00    +0.540 A 
ATOM     14  O   LIG    1       -4.551   3.111  -0.222  0.00  0.00    -0.520 OA
BRANCH  11  15
ATOM     15  C   LIG    1       -2.813   5.233   0.680  0.00  0.00    +0.140 A 
ATOM     16  C   LIG    1       -3.878   5.478   1.538  0.00  0.00    +0.030 A 
ATOM     17  C   LIG    1       -4.196   6.775   1.889  0.00  0.00    +0.040 A 
ATOM     18  C   LIG    1       -3.464   7.830   1.379  0.00  0.00    +0.010 A 
ATOM     19  C   LIG    1       -2.407   7.591   0.520  0.00  0.00    +0.030 A 
ATOM     20  C   LIG    1       -2.080   6.296   0.169  0.00  0.00    -0.010 A 
ENDBRANCH  11  15
ENDBRANCH   1   9
BRANCH   4  21
ATOM     21  C   LIG    1        3.301   0.065  -0.182  0.00  0.00    -0.030 A 
ATOM     22  C   LIG    1        3.851  -1.026   0.494  0.00  0.00    +0.050 A 
ATOM     23  C   LIG    1        5.221  -1.181   0.547  0.00  0.00    +0.020 A 
ATOM     24  C   LIG    1        6.049  -0.253  -0.058  0.00  0.00    +0.020 A 
ATOM     25  C   LIG    1        5.511   0.834  -0.725  0.00  0.00    +0.010 A 
ATOM     26  C   LIG    1        4.144   0.999  -0.791  0.00  0.00    +0.010 A 
ENDBRANCH   4  21
BRANCH   3  27
ATOM     27  C   LIG    1        1.185  -2.172  -0.833  0.00  0.00    -0.010 A 
ATOM     28  C   LIG    1        2.333  -2.520  -1.544  0.00  0.00    +0.020 A 
ATOM     29  C   LIG    1        2.599  -3.847  -1.813  0.00  0.00    +0.000 A 
ATOM     30  C   LIG    1        1.724  -4.830  -1.389  0.00  0.00    +0.010 A 
ATOM     31  C   LIG    1        0.580  -4.491  -0.688  0.00  0.00    +0.010 A 
ATOM     32  C   LIG    1        0.307  -3.168  -0.408  0.00  0.00    +0.040 A 
ENDBRANCH   3  27
TORSDOF 4
