REMARK  Name = ZINCtV00000m0GqN.0
REMARK                            x       y       z     vdW  Elec       q    Type
REMARK                         _______ _______ _______ _____ _____    ______ ____
ROOT
ATOM      1  C   LIG    1       -3.140  -2.673   0.018  0.00  0.00    +0.230 A 
ATOM      2  N   LIG    1       -3.998  -1.659   0.031  0.00  0.00    -0.280 NA
ATOM      3  N   LIG    1       -5.270  -1.853   0.042  0.00  0.00    -0.160 NA
ATOM      4  C   LIG    1       -5.764  -3.086   0.040  0.00  0.00    +0.070 A 
ATOM      5  C   LIG    1       -4.873  -4.178   0.025  0.00  0.00    +0.230 A 
ATOM      6  N   LIG    1       -3.565  -3.930   0.009  0.00  0.00    -0.450 NA
ENDROOT
BRANCH   5   7
ATOM      7  C   LIG    1       -5.380  -5.570   0.022  0.00  0.00    -0.080 A 
ATOM      8  C   LIG    1       -6.538  -5.894   0.728  0.00  0.00    +0.070 A 
ATOM      9  C   LIG    1       -7.009  -7.192   0.717  0.00  0.00    +0.000 A 
ATOM     10  C   LIG    1       -6.328  -8.171   0.017  0.00  0.00    +0.040 A 
ATOM     11  C   LIG    1       -5.175  -7.857  -0.681  0.00  0.00    +0.000 A 
ATOM     12  C   LIG    1       -4.698  -6.562  -0.682  0.00  0.00    +0.070 A 
ENDBRANCH   5   7
BRANCH   4  13
ATOM     13  C   LIG    1       -7.229  -3.311   0.052  0.00  0.00    -0.060 A 
ATOM     14  C   LIG    1       -7.778  -4.386  -0.645  0.00  0.00    +0.050 A 
ATOM     15  C   LIG    1       -9.142  -4.592  -0.625  0.00  0.00    +0.010 A 
ATOM     16  C   LIG    1       -9.965  -3.729   0.075  0.00  0.00    +0.030 A 
ATOM     17  C   LIG    1       -9.427  -2.658   0.765  0.00  0.00    +0.010 A 
ATOM     18  C   LIG    1       -8.063  -2.444   0.757  0.00  0.00    +0.060 A 
ENDBRANCH   4  13
BRANCH   1  19
ATOM     19  S   LIG    1       -1.409  -2.344   0.003  0.00  0.00    +0.060 S 
BRANCH  19  20
ATOM     20  C   LIG    1       -1.433  -0.534   0.013  0.00  0.00    +0.090 C 
BRANCH  20  21
ATOM     21  C   LIG    1        0.002  -0.004   0.002  0.00  0.00    +0.230 C 
BRANCH  21  22
ATOM     22  O   LIG    1       -0.017   1.425   0.010  0.00  0.00    -0.300 OA
BRANCH  22  29
ATOM     23 CL   LIG    1       -0.227   4.374   0.014  0.00  0.00    -0.050 Cl
ATOM     24  C   LIG    1        1.240   3.446   0.003  0.00  0.00    -0.070 A 
ATOM     25  C   LIG    1        2.465   4.087   0.001  0.00  0.00    +0.070 A 
ATOM     26  C   LIG    1        3.634   3.348  -0.014  0.00  0.00    +0.000 A 
ATOM     27  C   LIG    1        3.580   1.966  -0.021  0.00  0.00    +0.060 A 
ATOM     28  C   LIG    1        2.359   1.320  -0.013  0.00  0.00    -0.060 A 
ATOM     29  C   LIG    1        1.185   2.058   0.002  0.00  0.00    +0.140 A 
ENDBRANCH  22  29
ENDBRANCH  21  22
ENDBRANCH  20  21
ENDBRANCH  19  20
ENDBRANCH   1  19
TORSDOF 7
