REMARK  Name = ZINCpk00000eaI5u.0
REMARK                            x       y       z     vdW  Elec       q    Type
REMARK                         _______ _______ _______ _____ _____    ______ ____
ROOT
ATOM      1  C   LIG    1       -0.718   1.572   1.248  0.00  0.00    +0.520 C 
ATOM      2  N   LIG    1       -0.242   1.246   2.466  0.00  0.00    -0.730 N 
ATOM      3  H   LIG    1        0.555   0.699   2.544  0.00  0.00    +0.400 HD
ATOM      4  O   LIG    1       -1.714   2.256   1.150  0.00  0.00    -0.530 OA
ENDROOT
BRANCH   1   5
ATOM      5  C   LIG    1       -0.013   1.086   0.008  0.00  0.00    +0.050 C 
BRANCH   5   6
ATOM      6  C   LIG    1       -0.753   1.593  -1.232  0.00  0.00    +0.290 C 
BRANCH   6   8
ATOM      7  C   LIG    1       -0.543   1.446  -3.655  0.00  0.00    +0.540 C 
ATOM      8  N   LIG    1       -0.067   1.120  -2.437  0.00  0.00    -0.730 N 
ATOM      9  H   LIG    1        0.730   0.573  -2.358  0.00  0.00    +0.400 HD
ATOM     10  O   LIG    1       -1.540   2.130  -3.753  0.00  0.00    -0.530 OA
BRANCH   7  14
ATOM     11  C   LIG    1       -1.689   2.231  -6.237  0.00  0.00    +0.070 C 
ATOM     12  C   LIG    1       -0.428   1.364  -6.247  0.00  0.00    -0.010 C 
ATOM     13  C   LIG    1       -0.559  -0.079  -5.756  0.00  0.00    +0.050 C 
ATOM     14  C   LIG    1        0.162   0.960  -4.895  0.00  0.00    -0.080 C 
ENDBRANCH   7  14
ENDBRANCH   6   8
ENDBRANCH   5   6
ENDBRANCH   1   5
BRANCH   2  15
ATOM     15  C   LIG    1       -0.927   1.718   3.671  0.00  0.00    +0.320 C 
BRANCH  15  16
ATOM     16  C   LIG    1       -0.198   1.219   4.892  0.00  0.00    -0.080 A 
ATOM     17  C   LIG    1        0.814   1.978   5.450  0.00  0.00    +0.010 A 
ATOM     18  C   LIG    1        1.485   1.523   6.571  0.00  0.00    +0.040 A 
ATOM     19  C   LIG    1        1.146   0.309   7.135  0.00  0.00    -0.020 A 
ATOM     20  C   LIG    1        0.130  -0.455   6.577  0.00  0.00    +0.180 A 
ATOM     21  C   LIG    1       -0.546   0.007   5.455  0.00  0.00    +0.030 A 
BRANCH  20  22
ATOM     22  N   LIG    1       -0.216  -1.685   7.147  0.00  0.00    -0.570 N 
ATOM     23  C   LIG    1        0.413  -2.286   8.333  0.00  0.00    +0.260 C 
ATOM     24  C   LIG    1       -0.343  -3.616   8.515  0.00  0.00    +0.260 C 
ATOM     25  O   LIG    1       -1.308  -3.626   7.424  0.00  0.00    -0.320 OA
ATOM     26  C   LIG    1       -1.179  -2.506   6.704  0.00  0.00    +0.640 C 
ATOM     27  O   LIG    1       -1.868  -2.258   5.735  0.00  0.00    -0.500 OA
ENDBRANCH  20  22
ENDBRANCH  15  16
ENDBRANCH   2  15
TORSDOF 7
