REMARK  Name = ZINCqH00000512MG.0
REMARK                            x       y       z     vdW  Elec       q    Type
REMARK                         _______ _______ _______ _____ _____    ______ ____
ROOT
ATOM      1  C   LIG    1       -1.883  -3.453  -0.812  0.00  0.00    +0.570 C 
ATOM      2  N   LIG    1       -1.366  -2.212  -0.710  0.00  0.00    -0.610 N 
ATOM      3  C   LIG    1       -1.849  -1.282   0.320  0.00  0.00    +0.290 C 
ATOM      4  C   LIG    1       -2.271   0.026  -0.355  0.00  0.00    +0.040 C 
ATOM      5  C   LIG    1       -1.106   0.563  -1.191  0.00  0.00    +0.160 C 
ATOM      6  C   LIG    1       -0.749  -0.450  -2.281  0.00  0.00    +0.000 C 
ATOM      7  C   LIG    1       -0.310  -1.764  -1.627  0.00  0.00    +0.290 C 
ATOM      8  O   LIG    1       -1.453  -4.223  -1.648  0.00  0.00    -0.530 OA
ENDROOT
BRANCH   1  13
ATOM      9  C   LIG    1       -6.694  -6.013   1.498  0.00  0.00    +0.510 A 
ATOM     10  N   LIG    1       -6.034  -5.993   0.368  0.00  0.00    -0.540 NA
ATOM     11  C   LIG    1       -4.965  -5.160   0.502  0.00  0.00    +0.060 A 
ATOM     12  C   LIG    1       -3.946  -4.762  -0.359  0.00  0.00    +0.130 A 
ATOM     13  C   LIG    1       -2.971  -3.876   0.093  0.00  0.00    -0.120 A 
ATOM     14  C   LIG    1       -3.024  -3.382   1.401  0.00  0.00    +0.060 A 
ATOM     15  C   LIG    1       -4.035  -3.771   2.251  0.00  0.00    +0.060 A 
ATOM     16  C   LIG    1       -5.008  -4.658   1.813  0.00  0.00    +0.010 A 
ATOM     17  O   LIG    1       -6.095  -5.211   2.397  0.00  0.00    -0.230 OA
BRANCH   9  18
ATOM     18  N   LIG    1       -7.834  -6.747   1.732  0.00  0.00    -0.790 N 
ATOM     19  H   LIG    1       -8.266  -6.708   2.600  0.00  0.00    +0.420 HD
ATOM     20  H   LIG    1       -8.206  -7.303   1.030  0.00  0.00    +0.440 HD
ENDBRANCH   9  18
ENDBRANCH   1  13
BRANCH   5  21
ATOM     21  O   LIG    1       -1.486   1.801  -1.796  0.00  0.00    -0.300 OA
BRANCH  21  22
ATOM     22  C   LIG    1       -0.495   2.700  -2.035  0.00  0.00    +0.140 A 
ATOM     23  C   LIG    1        0.829   2.350  -1.814  0.00  0.00    -0.060 A 
ATOM     24  C   LIG    1        1.834   3.264  -2.062  0.00  0.00    +0.070 A 
ATOM     25  C   LIG    1        1.521   4.532  -2.520  0.00  0.00    -0.070 A 
ATOM     26  C   LIG    1        0.201   4.885  -2.736  0.00  0.00    +0.070 A 
ATOM     27 CL   LIG    1        2.786   5.681  -2.825  0.00  0.00    -0.070 Cl
ATOM     28  C   LIG    1       -0.808   3.971  -2.494  0.00  0.00    +0.000 A 
ENDBRANCH  21  22
ENDBRANCH   5  21
TORSDOF 4
