REMARK  Name = ZINCpk000000nJru.0
REMARK                            x       y       z     vdW  Elec       q    Type
REMARK                         _______ _______ _______ _____ _____    ______ ____
ROOT
ATOM      1  C   LIG    1       -4.284   5.619  -2.425  0.00  0.00    +0.300 C 
ENDROOT
BRANCH   1   2
ATOM      2  C   LIG    1       -5.498   6.452  -2.101  0.00  0.00    -0.090 A 
ATOM      3  C   LIG    1       -5.352   7.659  -1.444  0.00  0.00    +0.020 A 
ATOM      4  C   LIG    1       -6.462   8.427  -1.149  0.00  0.00    +0.030 A 
ATOM      5  C   LIG    1       -7.728   7.983  -1.501  0.00  0.00    +0.050 A 
ATOM      6  O   LIG    1       -8.812   8.746  -1.196  0.00  0.00    -0.310 OA
ATOM      7  C   LIG    1      -10.026   8.449  -1.895  0.00  0.00    +0.220 C 
ATOM      8  C   LIG    1      -10.231   6.928  -1.875  0.00  0.00    +0.230 C 
ATOM      9  O   LIG    1       -9.108   6.316  -2.519  0.00  0.00    -0.310 OA
ATOM     10  C   LIG    1       -7.875   6.767  -2.159  0.00  0.00    +0.060 A 
ATOM     11  C   LIG    1       -6.757   6.004  -2.457  0.00  0.00    +0.040 A 
ENDBRANCH   1   2
BRANCH   1  12
ATOM     12  N   LIG    1       -3.345   5.669  -1.302  0.00  0.00    -0.720 N 
ATOM     13  H   LIG    1       -3.354   6.424  -0.694  0.00  0.00    +0.400 HD
ATOM     14  C   LIG    1       -2.466   4.664  -1.114  0.00  0.00    +0.500 C 
ATOM     15  O   LIG    1       -2.454   3.719  -1.874  0.00  0.00    -0.500 OA
BRANCH  14  16
ATOM     16  C   LIG    1       -1.500   4.715   0.041  0.00  0.00    +0.380 C 
BRANCH  16  17
ATOM     17  N   LIG    1       -0.658   3.515   0.027  0.00  0.00    -0.360 N 
ATOM     18  C   LIG    1        0.688   3.475   0.014  0.00  0.00    +0.510 A 
ATOM     19  N   LIG    1        1.062   2.225   0.004  0.00  0.00    -0.510 NA
ATOM     20  C   LIG    1       -0.017   1.428   0.010  0.00  0.00    +0.300 A 
ATOM     21  N   LIG    1       -1.098   2.181   0.018  0.00  0.00    -0.230 NA
BRANCH  20  22
ATOM     22  C   LIG    1        0.002  -0.004   0.002  0.00  0.00    +0.310 C 
ATOM     23  N   LIG    1        0.018  -1.140  -0.004  0.00  0.00    -0.360 NA
ENDBRANCH  20  22
ENDBRANCH  16  17
ENDBRANCH  14  16
ENDBRANCH   1  12
BRANCH   1  25
ATOM     24  C   LIG    1       -3.071   7.575  -3.396  0.00  0.00    +0.020 C 
ATOM     25  C   LIG    1       -3.608   6.171  -3.681  0.00  0.00    -0.020 C 
ATOM     26  C   LIG    1       -2.450   5.255  -4.081  0.00  0.00    +0.020 C 
ENDBRANCH   1  25
TORSDOF 6
