REMARK  Name = ZINCrD0000072qmn.0
REMARK                            x       y       z     vdW  Elec       q    Type
REMARK                         _______ _______ _______ _____ _____    ______ ____
ROOT
ATOM      1  N   LIG    1       -4.609   3.055  -2.191  0.00  0.00    -0.450 N 
ATOM      2  C   LIG    1       -3.532   2.950  -1.357  0.00  0.00    +0.150 A 
ATOM      3  N   LIG    1       -3.824   3.615  -0.261  0.00  0.00    -0.290 NA
ATOM      4  N   LIG    1       -4.997   4.131  -0.356  0.00  0.00    -0.260 NA
ATOM      5  C   LIG    1       -5.530   3.821  -1.514  0.00  0.00    +0.230 A 
ENDROOT
BRANCH   5   6
ATOM      6  C   LIG    1       -6.868   4.218  -2.000  0.00  0.00    -0.030 A 
ATOM      7  C   LIG    1       -7.017   4.766  -3.275  0.00  0.00    +0.020 A 
ATOM      8  C   LIG    1       -8.269   5.135  -3.723  0.00  0.00    +0.010 A 
ATOM      9  C   LIG    1       -9.375   4.963  -2.911  0.00  0.00    +0.030 A 
ATOM     10  C   LIG    1       -9.235   4.421  -1.646  0.00  0.00    +0.010 A 
ATOM     11  C   LIG    1       -7.990   4.042  -1.188  0.00  0.00    -0.040 A 
ATOM     12  C   LIG    1       -7.840   3.446   0.188  0.00  0.00    +0.090 C 
ENDBRANCH   5   6
BRANCH   1  14
ATOM     13  C   LIG    1       -5.420   1.101  -3.419  0.00  0.00    +0.050 C 
ATOM     14  C   LIG    1       -4.752   2.474  -3.528  0.00  0.00    +0.300 C 
ENDBRANCH   1  14
BRANCH   2  15
ATOM     15  S   LIG    1       -2.035   2.081  -1.686  0.00  0.00    +0.040 S 
BRANCH  15  16
ATOM     16  C   LIG    1       -1.139   2.405  -0.147  0.00  0.00    +0.200 C 
BRANCH  16  17
ATOM     17  C   LIG    1        0.211   1.738  -0.203  0.00  0.00    +0.210 A 
ATOM     18  C   LIG    1        1.351   2.485  -0.414  0.00  0.00    -0.080 A 
ATOM     19  C   LIG    1        2.589   1.843  -0.467  0.00  0.00    +0.540 A 
ATOM     20  N   LIG    1        2.656   0.489  -0.309  0.00  0.00    -0.370 N 
ATOM     21  N   LIG    1        3.793  -0.310  -0.332  0.00  0.00    -0.240 NA
ATOM     22  C   LIG    1        3.678  -1.581  -0.166  0.00  0.00    +0.120 A 
ATOM     23  S   LIG    1        1.946  -1.886   0.055  0.00  0.00    +0.140 S 
ATOM     24  C   LIG    1        4.788  -2.600  -0.159  0.00  0.00    +0.260 C 
ATOM     25  C   LIG    1        1.490  -0.181  -0.104  0.00  0.00    +0.310 A 
ATOM     26  O   LIG    1        3.607   2.489  -0.654  0.00  0.00    -0.490 OA
ATOM     27  N   LIG    1        0.318   0.423  -0.053  0.00  0.00    -0.480 NA
ENDBRANCH  16  17
ENDBRANCH  15  16
ENDBRANCH   2  15
TORSDOF 5
