REMARK  Name = ZINCrH000004r7Ig.0
REMARK                            x       y       z     vdW  Elec       q    Type
REMARK                         _______ _______ _______ _____ _____    ______ ____
ROOT
ATOM      1  C   LIG    1       -7.105   3.006   2.104  0.00  0.00    -0.100 A 
ATOM      2  C   LIG    1       -5.894   3.080   2.798  0.00  0.00    +0.100 A 
ATOM      3  C   LIG    1       -4.729   2.677   2.186  0.00  0.00    +0.120 A 
ATOM      4  C   LIG    1       -4.760   2.198   0.879  0.00  0.00    -0.070 A 
ATOM      5  C   LIG    1       -5.967   2.131   0.188  0.00  0.00    +0.010 A 
ATOM      6  C   LIG    1       -7.128   2.523   0.791  0.00  0.00    +0.170 A 
ENDROOT
BRANCH   1   9
ATOM      7  N   LIG    1       -8.334   3.900   4.019  0.00  0.00    -0.660 N 
ATOM      8  H   LIG    1       -7.488   4.017   4.478  0.00  0.00    +0.410 HD
ATOM      9  C   LIG    1       -8.357   3.436   2.754  0.00  0.00    +0.560 C 
ATOM     10  O   LIG    1       -9.410   3.371   2.149  0.00  0.00    -0.500 OA
BRANCH   7  16
ATOM     11  C   LIG    1      -12.938   5.613   3.821  0.00  0.00    +0.090 C 
ATOM     12  C   LIG    1      -11.780   5.045   4.599  0.00  0.00    -0.070 A 
ATOM     13  C   LIG    1      -11.900   4.833   5.960  0.00  0.00    +0.000 A 
ATOM     14  C   LIG    1      -10.839   4.312   6.678  0.00  0.00    +0.030 A 
ATOM     15  C   LIG    1       -9.658   3.997   6.037  0.00  0.00    -0.110 A 
ATOM     16  C   LIG    1       -9.531   4.213   4.671  0.00  0.00    +0.140 A 
ATOM     17  C   LIG    1       -8.504   3.423   6.820  0.00  0.00    +0.080 C 
ATOM     18  C   LIG    1      -10.599   4.736   3.953  0.00  0.00    +0.020 A 
ENDBRANCH   7  16
ENDBRANCH   1   9
BRANCH   5  19
ATOM     19  N   LIG    1       -5.994   1.626  -1.204  0.00  0.00    +0.020 N 
ATOM     20  O   LIG    1       -4.961   1.270  -1.742  0.00  0.00    -0.130 OA
ATOM     21  O   LIG    1       -7.048   1.566  -1.810  0.00  0.00    -0.150 OA
ENDBRANCH   5  19
BRANCH   4  22
ATOM     22  S   LIG    1       -3.268   1.682   0.096  0.00  0.00    +0.170 S 
BRANCH  22  23
ATOM     23  C   LIG    1       -3.446  -0.067   0.222  0.00  0.00    +0.140 A 
ATOM     24  N   LIG    1       -4.403  -0.711   0.846  0.00  0.00    -0.290 NA
ATOM     25  N   LIG    1       -4.218  -1.978   0.741  0.00  0.00    -0.290 NA
ATOM     26  C   LIG    1       -3.142  -2.216   0.044  0.00  0.00    +0.400 A 
ATOM     27  N   LIG    1       -2.614  -1.008  -0.314  0.00  0.00    -0.460 N 
ATOM     28  C   LIG    1       -1.403  -0.771  -1.104  0.00  0.00    +0.350 C 
ENDBRANCH  22  23
ENDBRANCH   4  22
TORSDOF 5
