REMARK  Name = ZINCrD000000Ar5l.0
REMARK                            x       y       z     vdW  Elec       q    Type
REMARK                         _______ _______ _______ _____ _____    ______ ____
ROOT
ATOM      1  O   LIG    1       -4.351   7.965  -2.633  0.00  0.00    -0.490 OA
ATOM      2  C   LIG    1       -4.426   8.094  -1.429  0.00  0.00    +0.520 C 
ATOM      3  N   LIG    1       -5.030   9.178  -0.903  0.00  0.00    -0.670 N 
ATOM      4  H   LIG    1       -5.150   9.249   0.057  0.00  0.00    +0.410 HD
ENDROOT
BRANCH   3   5
ATOM      5  C   LIG    1       -5.483  10.202  -1.742  0.00  0.00    +0.150 A 
ATOM      6  C   LIG    1       -5.426  11.524  -1.320  0.00  0.00    -0.010 A 
ATOM      7  C   LIG    1       -5.869  12.533  -2.153  0.00  0.00    +0.050 A 
ATOM      8  C   LIG    1       -6.380  12.227  -3.401  0.00  0.00    -0.120 A 
ATOM      9  C   LIG    1       -6.444  10.911  -3.822  0.00  0.00    +0.040 A 
ATOM     10  C   LIG    1       -5.997   9.898  -2.996  0.00  0.00    +0.020 A 
BRANCH   8  11
ATOM     11  C   LIG    1       -6.868  13.330  -4.305  0.00  0.00    +0.350 C 
BRANCH  11  12
ATOM     12  N   LIG    1       -8.290  13.574  -4.053  0.00  0.00    -0.620 N 
ATOM     13  C   LIG    1       -9.384  12.896  -4.758  0.00  0.00    +0.250 C 
ATOM     14  C   LIG    1      -10.640  13.128  -3.886  0.00  0.00    +0.040 C 
ATOM     15  C   LIG    1      -10.274  14.437  -3.150  0.00  0.00    +0.040 C 
ATOM     16  C   LIG    1       -8.761  14.452  -3.150  0.00  0.00    +0.520 C 
ATOM     17  O   LIG    1       -8.073  15.153  -2.439  0.00  0.00    -0.530 OA
ENDBRANCH  11  12
ENDBRANCH   8  11
ENDBRANCH   3   5
BRANCH   2  18
ATOM     18  C   LIG    1       -3.845   7.040  -0.521  0.00  0.00    +0.240 C 
BRANCH  18  19
ATOM     19  O   LIG    1       -3.265   5.999  -1.310  0.00  0.00    -0.290 OA
BRANCH  19  20
ATOM     20  C   LIG    1       -2.693   4.964  -0.640  0.00  0.00    +0.130 A 
ATOM     21  C   LIG    1       -2.690   4.950   0.747  0.00  0.00    -0.080 A 
ATOM     22  C   LIG    1       -2.107   3.896   1.423  0.00  0.00    +0.050 A 
ATOM     23  C   LIG    1       -1.525   2.853   0.721  0.00  0.00    -0.130 A 
ATOM     24  C   LIG    1       -0.829   1.603   1.224  0.00  0.00    +0.070 C 
ATOM     25  C   LIG    1       -0.032   1.074   0.012  0.00  0.00    +0.030 C 
ATOM     26  C   LIG    1       -0.836   1.624  -1.185  0.00  0.00    +0.080 C 
ATOM     27  C   LIG    1       -1.527   2.865  -0.662  0.00  0.00    -0.060 A 
ATOM     28  C   LIG    1       -2.110   3.920  -1.341  0.00  0.00    +0.000 A 
ENDBRANCH  19  20
ENDBRANCH  18  19
ENDBRANCH   2  18
TORSDOF 6
