REMARK  Name = ZINCpe000000Y37l.0
REMARK                            x       y       z     vdW  Elec       q    Type
REMARK                         _______ _______ _______ _____ _____    ______ ____
ROOT
ATOM      1  C   LIG    1       -1.838  -3.219  -0.005  0.00  0.00    +0.140 C 
ENDROOT
BRANCH   1  14
ATOM      2  C   LIG    1        1.022  -3.749  -0.128  0.00  0.00    +0.150 C 
ATOM      3  C   LIG    1        0.520  -2.329  -0.078  0.00  0.00    +0.260 A 
ATOM      4  N   LIG    1        1.376  -1.331  -0.089  0.00  0.00    -0.480 NA
ATOM      5  C   LIG    1        0.951  -0.062  -0.045  0.00  0.00    +0.360 A 
ATOM      6  C   LIG    1        1.635   1.151  -0.044  0.00  0.00    -0.180 A 
ATOM      7  C   LIG    1        0.688   2.172   0.015  0.00  0.00    +0.550 A 
ATOM      8  N   LIG    1       -0.537   1.613   0.050  0.00  0.00    -0.510 N 
ATOM      9  H   LIG    1       -1.378   2.094   0.089  0.00  0.00    +0.430 HD
ATOM     10  O   LIG    1        0.928   3.369   0.031  0.00  0.00    -0.540 OA
ATOM     11  N   LIG    1       -0.390   0.221   0.014  0.00  0.00    -0.300 N 
ATOM     12  C   LIG    1       -1.296  -0.792   0.026  0.00  0.00    +0.220 A 
ATOM     13  C   LIG    1       -2.772  -0.495   0.090  0.00  0.00    +0.160 C 
ATOM     14  C   LIG    1       -0.855  -2.077  -0.018  0.00  0.00    -0.200 A 
ENDBRANCH   1  14
BRANCH   1  15
ATOM     15  C   LIG    1       -2.127  -3.650  -1.420  0.00  0.00    +0.490 C 
ATOM     16  N   LIG    1       -2.985  -4.663  -1.655  0.00  0.00    -0.750 N 
ATOM     17  H   LIG    1       -3.416  -5.115  -0.913  0.00  0.00    +0.430 HD
ATOM     18  O   LIG    1       -1.588  -3.084  -2.348  0.00  0.00    -0.530 OA
BRANCH  16  19
ATOM     19  C   LIG    1       -3.265  -5.081  -3.030  0.00  0.00    +0.240 C 
ATOM     20  C   LIG    1       -4.754  -4.883  -3.326  0.00  0.00    +0.030 C 
ATOM     21  C   LIG    1       -5.573  -5.818  -2.418  0.00  0.00    -0.030 C 
ATOM     22  C   LIG    1       -4.989  -5.706  -0.991  0.00  0.00    +0.010 C 
ATOM     23  C   LIG    1       -3.825  -6.739  -0.909  0.00  0.00    +0.020 C 
ATOM     24  C   LIG    1       -3.780  -7.414  -2.300  0.00  0.00    +0.010 C 
ATOM     25  C   LIG    1       -5.226  -7.269  -2.844  0.00  0.00    +0.160 C 
ATOM     26  C   LIG    1       -2.880  -6.551  -3.201  0.00  0.00    +0.040 C 
BRANCH  25  27
ATOM     27  O   LIG    1       -5.254  -7.407  -4.266  0.00  0.00    -0.550 OA
ATOM     28  H   LIG    1       -6.137  -7.324  -4.651  0.00  0.00    +0.380 HD
ENDBRANCH  25  27
ENDBRANCH  16  19
ENDBRANCH   1  15
TORSDOF 4
