REMARK  Name = ZINCyk0000000om6.0
REMARK                            x       y       z     vdW  Elec       q    Type
REMARK                         _______ _______ _______ _____ _____    ______ ____
ROOT
ATOM      1  N   LIG    1       -5.390   0.824  -2.082  0.00  0.00    -1.000 NA
ATOM      2  C   LIG    1       -5.721   2.098  -2.734  0.00  0.00    +0.290 C 
ATOM      3  C   LIG    1       -7.166   2.044  -3.227  0.00  0.00    +0.030 C 
ATOM      4  C   LIG    1       -7.353   0.814  -4.118  0.00  0.00    +0.000 C 
ATOM      5  C   LIG    1       -7.070  -0.453  -3.308  0.00  0.00    +0.060 C 
ATOM      6  C   LIG    1       -5.618  -0.427  -2.819  0.00  0.00    +0.290 C 
ENDROOT
BRANCH   4   7
ATOM      7  C   LIG    1       -8.770   0.777  -4.630  0.00  0.00    +0.530 C 
ATOM      8  N   LIG    1       -9.245   1.795  -5.374  0.00  0.00    -0.750 N 
ATOM      9  H   LIG    1       -8.675   2.552  -5.580  0.00  0.00    +0.400 HD
ATOM     10  O   LIG    1       -9.483  -0.170  -4.372  0.00  0.00    -0.510 OA
BRANCH   8  11
ATOM     11  C   LIG    1      -10.623   1.758  -5.872  0.00  0.00    +0.330 C 
BRANCH  11  12
ATOM     12  C   LIG    1      -10.949   3.081  -6.568  0.00  0.00    +0.300 C 
BRANCH  12  13
ATOM     13  N   LIG    1      -10.674   4.197  -5.654  0.00  0.00    -0.390 N 
ATOM     14  C   LIG    1      -11.554   4.097  -4.484  0.00  0.00    +0.250 C 
ATOM     15  C   LIG    1      -11.215   5.209  -3.489  0.00  0.00    +0.070 C 
ATOM     16  C   LIG    1      -11.417   6.568  -4.165  0.00  0.00    +0.040 C 
ATOM     17  C   LIG    1      -10.551   6.634  -5.426  0.00  0.00    +0.060 C 
ATOM     18  C   LIG    1      -10.913   5.468  -6.348  0.00  0.00    +0.250 C 
ATOM     19  H   LIG    1       -9.711   4.155  -5.354  0.00  0.00    +0.420 HD
ENDBRANCH  12  13
BRANCH  12  20
ATOM     20  C   LIG    1      -10.096   3.222  -7.803  0.00  0.00    -0.110 A 
ATOM     21  C   LIG    1      -10.489   2.965  -9.064  0.00  0.00    +0.030 A 
ATOM     22  C   LIG    1       -9.381   3.231  -9.901  0.00  0.00    -0.050 A 
ATOM     23  C   LIG    1       -8.375   3.627  -9.101  0.00  0.00    +0.230 A 
ATOM     24  O   LIG    1       -8.814   3.619  -7.831  0.00  0.00    -0.180 OA
ENDBRANCH  12  20
ENDBRANCH  11  12
ENDBRANCH   8  11
ENDBRANCH   4   7
BRANCH   1  25
ATOM     25  S   LIG    1       -4.777   0.797  -0.544  0.00  0.00    +2.720 S 
ATOM     26  O   LIG    1       -5.182   2.013   0.070  0.00  0.00    -0.960 OA
ATOM     27  O   LIG    1       -5.086  -0.483  -0.011  0.00  0.00    -0.950 OA
BRANCH  25  31
ATOM     28  C   LIG    1        0.285  -0.575  -0.997  0.00  0.00    +0.340 C 
ATOM     29  N   LIG    1       -0.911   0.260  -0.870  0.00  0.00    -0.400 N 
ATOM     30  C   LIG    1       -2.186  -0.193  -0.777  0.00  0.00    +0.330 A 
ATOM     31  C   LIG    1       -3.022   0.869  -0.680  0.00  0.00    -0.760 A 
ATOM     32  C   LIG    1       -2.245   2.031  -0.707  0.00  0.00    +0.110 A 
ATOM     33  C   LIG    1       -0.929   1.636  -0.822  0.00  0.00    -0.050 A 
BRANCH  33  34
ATOM     34  C   LIG    1        0.239   2.521  -0.887  0.00  0.00    +0.590 C 
ATOM     35  O   LIG    1        1.348   2.052  -1.070  0.00  0.00    -0.540 OA
ATOM     36  N   LIG    1        0.085   3.852  -0.745  0.00  0.00    -0.840 N 
ATOM     37  H   LIG    1        0.864   4.429  -0.707  0.00  0.00    +0.410 HD
ATOM     38  H   LIG    1       -0.804   4.233  -0.677  0.00  0.00    +0.400 HD
ENDBRANCH  33  34
ENDBRANCH  25  31
ENDBRANCH   1  25
TORSDOF 8
