REMARK  Name = ZINCqH0000006iFr.0
REMARK                            x       y       z     vdW  Elec       q    Type
REMARK                         _______ _______ _______ _____ _____    ______ ____
ROOT
ATOM      1  S   LIG    1        5.014   2.485  -0.032  0.00  0.00    +0.080 S 
ENDROOT
BRANCH   1  10
ATOM      2  N   LIG    1        2.473   3.615  -0.003  0.00  0.00    -0.470 N 
ATOM      3  C   LIG    1        1.152   3.197   0.008  0.00  0.00    +0.060 A 
ATOM      4  C   LIG    1       -0.066   3.860   0.022  0.00  0.00    +0.010 A 
ATOM      5  C   LIG    1       -1.241   3.137   0.030  0.00  0.00    +0.030 A 
ATOM      6  C   LIG    1       -1.213   1.750   0.017  0.00  0.00    +0.010 A 
ATOM      7  C   LIG    1       -0.013   1.076   0.008  0.00  0.00    +0.060 A 
ATOM      8  C   LIG    1        1.186   1.793   0.000  0.00  0.00    +0.060 A 
ATOM      9  N   LIG    1        2.494   1.425  -0.014  0.00  0.00    -0.490 NA
ATOM     10  C   LIG    1        3.252   2.494  -0.015  0.00  0.00    +0.250 A 
BRANCH   2  11
ATOM     11  C   LIG    1        2.945   5.002   0.001  0.00  0.00    +0.330 C 
BRANCH  11  12
ATOM     12  C   LIG    1        3.097   5.492  -1.441  0.00  0.00    +0.170 C 
BRANCH  12  14
ATOM     13  C   LIG    1        3.735   7.402  -2.742  0.00  0.00    +0.210 C 
ATOM     14  O   LIG    1        3.558   6.845  -1.438  0.00  0.00    -0.390 OA
ENDBRANCH  12  14
ENDBRANCH  11  12
ENDBRANCH   2  11
ENDBRANCH   1  10
BRANCH   1  15
ATOM     15  C   LIG    1        5.320   0.701  -0.044  0.00  0.00    +0.110 C 
BRANCH  15  16
ATOM     16  C   LIG    1        6.805   0.446  -0.060  0.00  0.00    +0.530 C 
ATOM     17  N   LIG    1        7.271  -0.819  -0.071  0.00  0.00    -0.720 N 
ATOM     18  H   LIG    1        6.651  -1.564  -0.069  0.00  0.00    +0.400 HD
ATOM     19  O   LIG    1        7.580   1.378  -0.062  0.00  0.00    -0.520 OA
BRANCH  17  20
ATOM     20  C   LIG    1        8.715  -1.067  -0.086  0.00  0.00    +0.240 C 
ATOM     21  C   LIG    1        9.226  -1.021  -1.528  0.00  0.00    +0.000 C 
ATOM     22  C   LIG    1       10.733  -1.280  -1.543  0.00  0.00    +0.020 C 
ATOM     23  C   LIG    1       11.020  -2.659  -0.944  0.00  0.00    +0.010 C 
ATOM     24  C   LIG    1       10.510  -2.704   0.498  0.00  0.00    -0.010 C 
ATOM     25  C   LIG    1       10.797  -4.082   1.098  0.00  0.00    +0.020 C 
ATOM     26  C   LIG    1        9.002  -2.445   0.514  0.00  0.00    -0.010 C 
ATOM     27  C   LIG    1        8.491  -2.490   1.955  0.00  0.00    +0.020 C 
ENDBRANCH  17  20
ENDBRANCH  15  16
ENDBRANCH   1  15
TORSDOF 7
