REMARK  Name = ZINCBI00000009nw.0
REMARK                            x       y       z     vdW  Elec       q    Type
REMARK                         _______ _______ _______ _____ _____    ______ ____
ROOT
ATOM      1  N   LIG    1        2.816  -3.146  -0.187  0.00  0.00    -0.460 N 
ATOM      2  C   LIG    1        1.591  -2.608  -0.019  0.00  0.00    +0.570 A 
ATOM      3  C   LIG    1        1.470  -1.151   0.169  0.00  0.00    -0.150 A 
ATOM      4  C   LIG    1        0.228  -0.545   0.346  0.00  0.00    +0.140 A 
ATOM      5  C   LIG    1        0.155   0.822   0.518  0.00  0.00    +0.030 A 
ATOM      6  C   LIG    1        1.308   1.590   0.517  0.00  0.00    +0.100 A 
ATOM      7  C   LIG    1        2.545   1.002   0.343  0.00  0.00    +0.010 A 
ATOM      8  C   LIG    1        2.638  -0.370   0.168  0.00  0.00    +0.160 A 
ATOM      9  N   LIG    1        3.868  -0.993  -0.011  0.00  0.00    -0.420 N 
ATOM     10  C   LIG    1        5.154  -0.527  -0.060  0.00  0.00    +0.140 A 
ATOM     11  N   LIG    1        5.929  -1.567  -0.252  0.00  0.00    -0.250 NA
ATOM     12  N   LIG    1        5.223  -2.638  -0.324  0.00  0.00    -0.270 NA
ATOM     13  O   LIG    1        0.600  -3.314  -0.023  0.00  0.00    -0.470 OA
ATOM     14  C   LIG    1        3.951  -2.350  -0.183  0.00  0.00    +0.430 A 
ENDROOT
BRANCH   1  21
ATOM     15  C   LIG    1        2.734  -4.171  -2.841  0.00  0.00    +0.100 C 
ATOM     16  C   LIG    1        2.909  -5.071  -1.645  0.00  0.00    -0.050 A 
ATOM     17  C   LIG    1        3.036  -6.435  -1.818  0.00  0.00    +0.020 A 
ATOM     18  C   LIG    1        3.199  -7.261  -0.721  0.00  0.00    +0.040 A 
ATOM     19  C   LIG    1        3.233  -6.724   0.553  0.00  0.00    +0.020 A 
ATOM     20  C   LIG    1        3.112  -5.360   0.733  0.00  0.00    +0.030 A 
ATOM     21  C   LIG    1        2.944  -4.529  -0.366  0.00  0.00    +0.110 A 
ENDBRANCH   1  21
BRANCH  10  22
ATOM     22  S   LIG    1        5.669   1.150   0.102  0.00  0.00    +0.100 S 
BRANCH  22  23
ATOM     23  C   LIG    1        7.472   1.041  -0.061  0.00  0.00    +0.100 C 
BRANCH  23  24
ATOM     24  C   LIG    1        8.072   2.418   0.058  0.00  0.00    +0.550 C 
ATOM     25  N   LIG    1        9.406   2.582  -0.033  0.00  0.00    -0.720 N 
ATOM     26  H   LIG    1        9.981   1.814  -0.174  0.00  0.00    +0.410 HD
ATOM     27  O   LIG    1        7.353   3.379   0.234  0.00  0.00    -0.510 OA
BRANCH  25  28
ATOM     28  C   LIG    1        9.989   3.921   0.082  0.00  0.00    +0.300 C 
BRANCH  28  29
ATOM     29  C   LIG    1       11.516   3.817   0.058  0.00  0.00    +0.220 C 
BRANCH  29  30
ATOM     30  C   LIG    1       11.962   3.289  -1.281  0.00  0.00    -0.150 A 
ATOM     31  C   LIG    1       12.031   4.138  -2.370  0.00  0.00    +0.000 A 
ATOM     32  C   LIG    1       12.444   3.654  -3.598  0.00  0.00    +0.040 A 
ATOM     33  C   LIG    1       12.780   2.320  -3.738  0.00  0.00    +0.050 A 
ATOM     34  C   LIG    1       12.705   1.471  -2.650  0.00  0.00    +0.040 A 
ATOM     35  C   LIG    1       12.296   1.955  -1.422  0.00  0.00    +0.040 A 
ENDBRANCH  29  30
BRANCH  29  36
ATOM     36  N   LIG    1       12.101   5.146   0.280  0.00  0.00    -0.380 N 
ATOM     37  C   LIG    1       13.566   5.047   0.251  0.00  0.00    +0.330 C 
ATOM     38  C   LIG    1       11.670   5.659   1.588  0.00  0.00    +0.330 C 
ATOM     39  H   LIG    1       11.792   5.775  -0.446  0.00  0.00    +0.430 HD
ENDBRANCH  29  36
ENDBRANCH  28  29
ENDBRANCH  25  28
ENDBRANCH  23  24
ENDBRANCH  22  23
ENDBRANCH  10  22
TORSDOF 8
