REMARK  Name = ZINCfA000000Jmt3.0
REMARK                            x       y       z     vdW  Elec       q    Type
REMARK                         _______ _______ _______ _____ _____    ______ ____
ROOT
ATOM      1  C   LIG    1       -4.279   0.906   0.144  0.00  0.00    +0.050 C 
ENDROOT
BRANCH   1   2
ATOM      2  C   LIG    1       -2.869   1.498   0.083  0.00  0.00    -0.010 C 
ATOM      3  C   LIG    1       -2.188   1.061  -1.217  0.00  0.00    +0.030 C 
ATOM      4  C   LIG    1       -0.752   1.592  -1.233  0.00  0.00    +0.050 C 
ATOM      5  C   LIG    1       -0.013   1.086   0.008  0.00  0.00    +0.250 C 
ATOM      6  N   LIG    1       -0.699   1.559   1.217  0.00  0.00    -0.500 N 
ATOM      7  H   LIG    1       -0.755   2.566   1.198  0.00  0.00    +0.430 HD
ATOM      8  H   LIG    1       -0.180   1.268   2.032  0.00  0.00    +0.430 HD
ATOM      9  C   LIG    1       -2.052   0.995   1.275  0.00  0.00    +0.250 C 
ENDBRANCH   1   2
BRANCH   1  10
ATOM     10  C   LIG    1       -5.004   1.443   1.381  0.00  0.00    +0.010 C 
BRANCH  10  11
ATOM     11  C   LIG    1       -6.413   0.852   1.442  0.00  0.00    +0.070 C 
BRANCH  11  15
ATOM     12  C   LIG    1       -8.437   2.349   4.893  0.00  0.00    +0.000 A 
ATOM     13  C   LIG    1       -8.524   3.028   3.692  0.00  0.00    +0.000 A 
ATOM     14  C   LIG    1       -7.869   2.544   2.575  0.00  0.00    +0.000 A 
ATOM     15  C   LIG    1       -7.127   1.380   2.659  0.00  0.00    -0.090 A 
ATOM     16  C   LIG    1       -7.045   0.698   3.859  0.00  0.00    +0.000 A 
ATOM     17  C   LIG    1       -7.695   1.186   4.977  0.00  0.00    +0.000 A 
ENDBRANCH  11  15
ENDBRANCH  10  11
ENDBRANCH   1  10
TORSDOF 4
