REMARK  Name = ZINCfA000001GSHC.1
REMARK                            x       y       z     vdW  Elec       q    Type
REMARK                         _______ _______ _______ _____ _____    ______ ____
ROOT
ATOM      1  C   LIG    1       -0.019   1.526   0.010  0.00  0.00    +0.070 C 
ATOM      2  C   LIG    1       -0.737   2.021   1.269  0.00  0.00    +0.060 C 
ATOM      3  C   LIG    1       -0.822   3.549   1.229  0.00  0.00    +0.070 C 
ATOM      4  C   LIG    1       -1.535   3.982  -0.054  0.00  0.00    +0.250 C 
ATOM      5  N   LIG    1       -0.785   3.501  -1.220  0.00  0.00    -0.380 N 
ATOM      6  H   LIG    1        0.160   3.851  -1.179  0.00  0.00    +0.430 HD
ATOM      7  F   LIG    1        1.294   2.011   0.001  0.00  0.00    -0.180 F 
ATOM      8  C   LIG    1       -0.760   2.034  -1.228  0.00  0.00    +0.270 C 
ENDROOT
BRANCH   1  10
ATOM      9  F   LIG    1        0.679  -0.468   1.135  0.00  0.00    -0.190 F 
ATOM     10  C   LIG    1        0.002  -0.004   0.002  0.00  0.00    +0.260 C 
ENDBRANCH   1  10
BRANCH   5  11
ATOM     11  C   LIG    1       -1.431   3.983  -2.448  0.00  0.00    +0.370 C 
BRANCH  11  12
ATOM     12  C   LIG    1       -1.340   5.486  -2.507  0.00  0.00    -0.300 A 
ATOM     13  C   LIG    1       -0.342   6.175  -3.062  0.00  0.00    +0.090 A 
ATOM     14  C   LIG    1       -0.477   7.552  -2.999  0.00  0.00    +0.010 A 
ATOM     15  C   LIG    1       -1.581   7.980  -2.384  0.00  0.00    +0.020 A 
ATOM     16  S   LIG    1       -2.530   6.601  -1.847  0.00  0.00    +0.150 S 
ENDBRANCH  11  12
ENDBRANCH   5  11
TORSDOF 3
