REMARK  Name = ZINCfA000001GSHC.2
REMARK                            x       y       z     vdW  Elec       q    Type
REMARK                         _______ _______ _______ _____ _____    ______ ____
ROOT
ATOM      1  C   LIG    1       -0.829   1.394   3.658  0.00  0.00    +0.080 C 
ATOM      2  C   LIG    1       -0.803   2.921   3.771  0.00  0.00    +0.050 C 
ATOM      3  C   LIG    1       -1.399   3.528   2.498  0.00  0.00    +0.080 C 
ATOM      4  C   LIG    1       -0.615   3.023   1.284  0.00  0.00    +0.260 C 
ATOM      5  N   LIG    1       -0.700   1.560   1.217  0.00  0.00    -0.380 N 
ATOM      6  H   LIG    1       -1.669   1.281   1.182  0.00  0.00    +0.420 HD
ATOM      7  F   LIG    1       -0.223   0.832   4.786  0.00  0.00    -0.160 F 
ATOM      8  C   LIG    1       -0.067   0.969   2.401  0.00  0.00    +0.270 C 
ENDROOT
BRANCH   1  10
ATOM      9  F   LIG    1       -2.977   1.308   4.710  0.00  0.00    -0.180 F 
ATOM     10  C   LIG    1       -2.279   0.914   3.563  0.00  0.00    +0.230 C 
ENDBRANCH   1  10
BRANCH   5  11
ATOM     11  C   LIG    1       -0.013   1.086   0.008  0.00  0.00    +0.370 C 
BRANCH  11  12
ATOM     12  C   LIG    1       -0.742   1.585  -1.213  0.00  0.00    -0.300 A 
ATOM     13  C   LIG    1       -0.496   2.738  -1.837  0.00  0.00    +0.080 A 
ATOM     14  C   LIG    1       -1.295   2.986  -2.940  0.00  0.00    +0.010 A 
ATOM     15  C   LIG    1       -2.188   2.033  -3.212  0.00  0.00    +0.020 A 
ATOM     16  S   LIG    1       -2.041   0.733  -2.037  0.00  0.00    +0.150 S 
ENDBRANCH  11  12
ENDBRANCH   5  11
TORSDOF 3
