REMARK  Name = ZINCpk00000ebpxZ.0
REMARK                            x       y       z     vdW  Elec       q    Type
REMARK                         _______ _______ _______ _____ _____    ______ ____
ROOT
ATOM      1  C   LIG    1        3.634   1.581   0.013  0.00  0.00    +0.510 C 
ATOM      2  O   LIG    1        3.778   2.787   0.023  0.00  0.00    -0.490 OA
ENDROOT
BRANCH   1   6
ATOM      3  C   LIG    1        7.036  -0.962  -0.013  0.00  0.00    -0.650 A 
ATOM      4  C   LIG    1        7.203   0.412  -0.002  0.00  0.00    +0.130 A 
ATOM      5  C   LIG    1        6.102   1.244   0.006  0.00  0.00    +0.080 A 
ATOM      6  C   LIG    1        4.818   0.697   0.004  0.00  0.00    -0.070 A 
ATOM      7  C   LIG    1        4.656  -0.691  -0.002  0.00  0.00    +0.070 A 
ATOM      8  C   LIG    1        5.766  -1.510  -0.015  0.00  0.00    +0.120 A 
BRANCH   3   9
ATOM      9  S   LIG    1        8.447  -2.016  -0.023  0.00  0.00    +2.700 S 
ATOM     10  O   LIG    1        9.516  -1.251  -0.563  0.00  0.00    -0.950 OA
ATOM     11  O   LIG    1        8.020  -3.253  -0.578  0.00  0.00    -0.950 OA
BRANCH   9  12
ATOM     12  N   LIG    1        8.842  -2.323   1.555  0.00  0.00    -1.250 NA
ATOM     13  H   LIG    1        8.652  -1.662   2.240  0.00  0.00    +0.420 HD
ATOM     14  H   LIG    1        9.262  -3.163   1.796  0.00  0.00    +0.420 HD
ENDBRANCH   9  12
ENDBRANCH   3   9
ENDBRANCH   1   6
BRANCH   1  15
ATOM     15  O   LIG    1        2.396   1.050   0.011  0.00  0.00    -0.330 OA
BRANCH  15  16
ATOM     16  C   LIG    1        1.280   1.979   0.020  0.00  0.00    +0.270 C 
BRANCH  16  17
ATOM     17  C   LIG    1       -0.015   1.208   0.016  0.00  0.00    +0.520 C 
ATOM     18  N   LIG    1       -1.191   1.867   0.018  0.00  0.00    -0.670 N 
ATOM     19  H   LIG    1       -1.205   2.834   0.091  0.00  0.00    +0.420 HD
ATOM     20  O   LIG    1        0.001  -0.005   0.006  0.00  0.00    -0.490 OA
BRANCH  18  21
ATOM     21  C   LIG    1       -2.393   1.154  -0.086  0.00  0.00    +0.100 A 
ATOM     22  C   LIG    1       -2.511  -0.099   0.498  0.00  0.00    +0.100 A 
ATOM     23  C   LIG    1       -3.699  -0.798   0.399  0.00  0.00    +0.010 A 
ATOM     24  C   LIG    1       -4.768  -0.255  -0.292  0.00  0.00    +0.120 A 
ATOM     25  C   LIG    1       -4.652   0.993  -0.882  0.00  0.00    -0.010 A 
ATOM     26  F   LIG    1       -5.926  -0.943  -0.392  0.00  0.00    -0.130 F 
ATOM     27  C   LIG    1       -3.468   1.699  -0.780  0.00  0.00    +0.110 A 
ATOM     28  F   LIG    1       -3.354   2.916  -1.356  0.00  0.00    -0.130 F 
ENDBRANCH  18  21
ENDBRANCH  16  17
ENDBRANCH  15  16
ENDBRANCH   1  15
TORSDOF 7
