REMARK  Name = ZINCpe000000V2MZ.0
REMARK                            x       y       z     vdW  Elec       q    Type
REMARK                         _______ _______ _______ _____ _____    ______ ____
ROOT
ATOM      1  N   LIG    1       -1.290   5.979   1.497  0.00  0.00    -0.470 N 
ATOM      2  C   LIG    1       -1.712   7.242   2.130  0.00  0.00    +0.210 C 
ATOM      3  C   LIG    1       -2.945   7.752   1.355  0.00  0.00    +0.020 C 
ATOM      4  C   LIG    1       -3.496   6.465   0.684  0.00  0.00    +0.050 C 
ATOM      5  C   LIG    1       -2.188   5.701   0.357  0.00  0.00    +0.160 C 
ENDROOT
BRANCH   1   8
ATOM      6  C   LIG    1        2.356   6.362   1.534  0.00  0.00    +0.450 A 
ATOM      7  C   LIG    1        1.047   6.303   2.001  0.00  0.00    -0.170 A 
ATOM      8  C   LIG    1        0.032   6.049   1.083  0.00  0.00    +0.380 A 
ATOM      9  N   LIG    1        0.348   5.867  -0.198  0.00  0.00    -0.600 NA
ATOM     10  C   LIG    1        1.601   5.937  -0.601  0.00  0.00    +0.560 A 
ATOM     11  N   LIG    1        2.590   6.175   0.236  0.00  0.00    -0.590 NA
BRANCH   6  13
ATOM     12  C   LIG    1        3.134   6.818   3.834  0.00  0.00    +0.300 C 
ATOM     13  N   LIG    1        3.403   6.613   2.408  0.00  0.00    -0.710 N 
ATOM     14  H   LIG    1        4.313   6.653   2.076  0.00  0.00    +0.410 HD
ENDBRANCH   6  13
ENDBRANCH   1   8
BRANCH   5  15
ATOM     15  C   LIG    1       -2.462   4.199   0.249  0.00  0.00    +0.300 C 
BRANCH  15  16
ATOM     16  N   LIG    1       -1.192   3.479   0.128  0.00  0.00    -0.740 N 
ATOM     17  H   LIG    1       -0.355   3.969   0.127  0.00  0.00    +0.400 HD
ATOM     18  C   LIG    1       -1.187   2.136   0.019  0.00  0.00    +0.710 C 
ATOM     19  N   LIG    1       -0.018   1.465   0.012  0.00  0.00    -0.630 N 
ATOM     20  C   LIG    1        0.002  -0.004   0.004  0.00  0.00    +0.300 C 
ATOM     21  C   LIG    1        0.878  -0.491   1.162  0.00  0.00    -0.020 C 
ATOM     22  C   LIG    1        2.261   0.156   1.058  0.00  0.00    +0.040 C 
ATOM     23  C   LIG    1        2.123   1.677   1.163  0.00  0.00    +0.150 C 
ATOM     24  C   LIG    1        1.020  -2.013   1.091  0.00  0.00    +0.040 C 
ATOM     25  C   LIG    1        1.261   2.189   0.005  0.00  0.00    +0.240 C 
ATOM     26  O   LIG    1       -2.236   1.529  -0.072  0.00  0.00    -0.590 OA
BRANCH  23  27
ATOM     27  O   LIG    1        3.418   2.279   1.097  0.00  0.00    -0.560 OA
ATOM     28  H   LIG    1        3.406   3.244   1.157  0.00  0.00    +0.380 HD
ENDBRANCH  23  27
ENDBRANCH  15  16
ENDBRANCH   5  15
TORSDOF 5
