REMARK  Name = ZINCpe00000bhc5R.0
REMARK                            x       y       z     vdW  Elec       q    Type
REMARK                         _______ _______ _______ _____ _____    ______ ____
ROOT
ATOM      1  C   LIG    1       -1.868   2.110  -4.167  0.00  0.00    -0.070 C 
ATOM      2  C   LIG    1       -2.821   2.704  -3.127  0.00  0.00    +0.020 C 
ATOM      3  C   LIG    1       -3.773   3.688  -3.815  0.00  0.00    +0.260 C 
ATOM      4  N   LIG    1       -4.445   2.998  -4.925  0.00  0.00    -0.610 N 
ATOM      5  C   LIG    1       -3.623   2.316  -5.933  0.00  0.00    +0.280 C 
ATOM      6  C   LIG    1       -5.789   2.992  -5.017  0.00  0.00    +0.510 C 
ATOM      7  O   LIG    1       -6.332   2.420  -5.938  0.00  0.00    -0.530 OA
ATOM      8  C   LIG    1       -1.084   3.238  -4.841  0.00  0.00    +0.030 C 
ATOM      9  C   LIG    1       -2.673   1.347  -5.222  0.00  0.00    +0.030 C 
ENDROOT
BRANCH   1  10
ATOM     10  C   LIG    1       -0.894   1.153  -3.478  0.00  0.00    +0.270 C 
BRANCH  10  12
ATOM     11  C   LIG    1        0.802   1.239  -1.731  0.00  0.00    +0.550 C 
ATOM     12  N   LIG    1       -0.124   1.884  -2.468  0.00  0.00    -0.730 N 
ATOM     13  H   LIG    1       -0.280   2.831  -2.330  0.00  0.00    +0.400 HD
ATOM     14  O   LIG    1        0.999   0.052  -1.903  0.00  0.00    -0.540 OA
BRANCH  11  17
ATOM     15  C   LIG    1        2.434  -0.188   0.078  0.00  0.00    +0.100 C 
ATOM     16  C   LIG    1        2.409   1.319   0.086  0.00  0.00    -0.020 C 
ATOM     17  C   LIG    1        1.580   1.974  -0.721  0.00  0.00    -0.120 C 
ATOM     18  C   LIG    1        3.323   2.083   1.010  0.00  0.00    +0.090 C 
ENDBRANCH  11  17
ENDBRANCH  10  12
ENDBRANCH   1  10
BRANCH   6  19
ATOM     19  C   LIG    1       -6.619   3.697  -3.974  0.00  0.00    +0.320 C 
BRANCH  19  20
ATOM     20  N   LIG    1       -8.040   3.545  -4.297  0.00  0.00    -0.560 N 
ATOM     21  C   LIG    1       -8.707   4.419  -5.061  0.00  0.00    +0.530 C 
ATOM     22  C   LIG    1      -10.144   3.966  -5.197  0.00  0.00    +0.090 C 
ATOM     23  C   LIG    1      -10.195   2.671  -4.362  0.00  0.00    +0.090 C 
ATOM     24  O   LIG    1       -8.233   5.415  -5.566  0.00  0.00    -0.480 OA
ATOM     25  C   LIG    1       -8.780   2.525  -3.847  0.00  0.00    +0.530 C 
ATOM     26  O   LIG    1       -8.380   1.626  -3.139  0.00  0.00    -0.480 OA
ENDBRANCH  19  20
ENDBRANCH   6  19
TORSDOF 5
