REMARK  Name = ZINCrD00000l4tpa.0
REMARK                            x       y       z     vdW  Elec       q    Type
REMARK                         _______ _______ _______ _____ _____    ______ ____
ROOT
ATOM      1  N   LIG    1       -0.920   1.702  -6.037  0.00  0.00    -0.630 N 
ATOM      2  H   LIG    1       -1.719   2.251  -6.065  0.00  0.00    +0.420 HD
ATOM      3  C   LIG    1       -0.391   1.340  -4.851  0.00  0.00    +0.510 C 
ATOM      4  O   LIG    1        0.608   0.654  -4.817  0.00  0.00    -0.480 OA
ENDROOT
BRANCH   1   6
ATOM      5  C   LIG    1       -0.777   1.595  -8.466  0.00  0.00    -0.190 A 
ATOM      6  C   LIG    1       -0.321   1.289  -7.218  0.00  0.00    +0.030 A 
ATOM      7  S   LIG    1        1.079   0.327  -7.306  0.00  0.00    +0.320 S 
ATOM      8  C   LIG    1        1.071   0.329  -9.069  0.00  0.00    -0.260 A 
ATOM      9  C   LIG    1        1.893  -0.238 -10.220  0.00  0.00    +0.120 C 
ATOM     10  C   LIG    1        0.969  -0.147 -11.451  0.00  0.00    +0.040 C 
ATOM     11  C   LIG    1        0.050   1.028 -11.061  0.00  0.00    +0.090 C 
ATOM     12  C   LIG    1        0.044   1.034  -9.535  0.00  0.00    -0.080 A 
BRANCH   5  16
ATOM     13  N   LIG    1       -3.179   1.816  -8.818  0.00  0.00    -0.850 N 
ATOM     14  H   LIG    1       -3.970   2.354  -8.980  0.00  0.00    +0.400 HD
ATOM     15  H   LIG    1       -3.257   0.853  -8.734  0.00  0.00    +0.400 HD
ATOM     16  C   LIG    1       -1.973   2.407  -8.711  0.00  0.00    +0.590 C 
ATOM     17  O   LIG    1       -1.876   3.616  -8.816  0.00  0.00    -0.530 OA
ENDBRANCH   5  16
ENDBRANCH   1   6
BRANCH   3  18
ATOM     18  C   LIG    1       -1.042   1.789  -3.568  0.00  0.00    +0.280 C 
BRANCH  18  19
ATOM     19  O   LIG    1       -0.290   1.274  -2.438  0.00  0.00    -0.330 OA
BRANCH  19  20
ATOM     20  C   LIG    1       -0.742   1.585  -1.213  0.00  0.00    +0.470 C 
ATOM     21  O   LIG    1       -1.732   2.266  -1.089  0.00  0.00    -0.490 OA
BRANCH  20  22
ATOM     22  C   LIG    1       -0.013   1.086   0.008  0.00  0.00    +0.180 C 
BRANCH  22  23
ATOM     23  C   LIG    1       -0.718   1.572   1.248  0.00  0.00    -0.070 A 
ATOM     24  C   LIG    1       -0.292   2.726   1.878  0.00  0.00    +0.070 A 
ATOM     25  C   LIG    1       -0.942   3.175   3.012  0.00  0.00    +0.040 A 
ATOM     26  C   LIG    1       -2.013   2.464   3.524  0.00  0.00    -0.020 A 
ATOM     27  C   LIG    1       -2.436   1.306   2.897  0.00  0.00    +0.050 A 
ATOM     28 CL   LIG    1       -2.825   3.025   4.952  0.00  0.00    -0.050 Cl
ATOM     29  C   LIG    1       -1.789   0.859   1.759  0.00  0.00    -0.010 A 
ATOM     30 CL   LIG    1       -2.319  -0.594   0.972  0.00  0.00    -0.050 Cl
ENDBRANCH  22  23
ENDBRANCH  20  22
ENDBRANCH  19  20
ENDBRANCH  18  19
ENDBRANCH   3  18
TORSDOF 7
