REMARK  Name = ZINCrD00000eSJAE.0
REMARK                            x       y       z     vdW  Elec       q    Type
REMARK                         _______ _______ _______ _____ _____    ______ ____
ROOT
ATOM      1  C   LIG    1        1.076   3.603  -0.032  0.00  0.00    +0.580 C 
ATOM      2  N   LIG    1        2.199   4.337  -0.162  0.00  0.00    -0.620 N 
ATOM      3  C   LIG    1        3.568   3.831  -0.398  0.00  0.00    +0.260 C 
ATOM      4  C   LIG    1        4.469   5.104  -0.448  0.00  0.00    +0.260 C 
ATOM      5  C   LIG    1        3.700   5.984   0.630  0.00  0.00    +0.050 C 
ATOM      6  N   LIG    1        4.094   5.794  -1.717  0.00  0.00    -0.620 N 
ATOM      7  C   LIG    1        4.872   5.970  -2.803  0.00  0.00    +0.570 C 
ATOM      8  O   LIG    1        6.008   5.545  -2.812  0.00  0.00    -0.530 OA
ATOM      9  C   LIG    1        2.697   6.246  -1.541  0.00  0.00    +0.250 C 
ATOM     10  C   LIG    1        2.313   5.824  -0.089  0.00  0.00    +0.260 C 
ATOM     11  O   LIG    1       -0.002   4.155   0.071  0.00  0.00    -0.520 OA
ENDROOT
BRANCH   1  19
ATOM     12  C   LIG    1       -0.803   2.051  -1.592  0.00  0.00    +0.110 C 
ATOM     13  C   LIG    1        0.252   1.368  -0.761  0.00  0.00    -0.070 A 
ATOM     14  C   LIG    1        0.332  -0.011  -0.741  0.00  0.00    +0.090 A 
ATOM     15  C   LIG    1        1.306  -0.640   0.018  0.00  0.00    +0.010 A 
ATOM     16  C   LIG    1        2.203   0.108   0.759  0.00  0.00    +0.040 A 
ATOM     17  C   LIG    1        2.133   1.487   0.747  0.00  0.00    +0.040 A 
ATOM     18  F   LIG    1       -0.541  -0.748  -1.462  0.00  0.00    -0.130 F 
ATOM     19  C   LIG    1        1.155   2.127  -0.015  0.00  0.00    -0.110 A 
ENDBRANCH   1  19
BRANCH   7  20
ATOM     20  C   LIG    1        4.331   6.696  -4.008  0.00  0.00    -0.060 C 
ATOM     21  C   LIG    1        4.095   5.877  -5.280  0.00  0.00    +0.090 C 
ATOM     22  C   LIG    1        5.258   6.860  -5.207  0.00  0.00    -0.120 C 
ATOM     23  C   LIG    1        6.760   6.572  -5.300  0.00  0.00    +0.090 C 
ATOM     24  C   LIG    1        6.751   7.386  -6.606  0.00  0.00    -0.090 C 
ATOM     25  C   LIG    1        7.969   8.297  -6.769  0.00  0.00    +0.040 C 
ATOM     26  C   LIG    1        6.468   6.542  -7.851  0.00  0.00    +0.050 C 
ATOM     27  C   LIG    1        5.508   8.110  -6.058  0.00  0.00    +0.070 C 
ENDBRANCH   7  20
TORSDOF 2
