REMARK  Name = ZINCrD00000e7GSa.0
REMARK                            x       y       z     vdW  Elec       q    Type
REMARK                         _______ _______ _______ _____ _____    ______ ____
ROOT
ATOM      1  C   LIG    1        0.763   3.729   0.157  0.00  0.00    +0.520 C 
ATOM      2  N   LIG    1        1.738   3.220   0.934  0.00  0.00    -0.600 N 
ATOM      3  C   LIG    1        1.528   1.930   1.554  0.00  0.00    +0.290 C 
ATOM      4  C   LIG    1        0.850   2.120   2.933  0.00  0.00    +0.010 C 
ATOM      5  C   LIG    1        1.800   2.702   3.893  0.00  0.00    +0.240 C 
ATOM      6  C   LIG    1        2.295   4.096   3.521  0.00  0.00    +0.040 C 
ATOM      7  C   LIG    1        3.467   3.976   2.578  0.00  0.00    -0.070 C 
ATOM      8  C   LIG    1        4.197   2.657   2.843  0.00  0.00    +0.030 C 
ATOM      9  C   LIG    1        4.428   5.143   2.811  0.00  0.00    +0.040 C 
ATOM     10  C   LIG    1        2.979   3.998   1.114  0.00  0.00    +0.270 C 
ATOM     11  O   LIG    1       -0.295   3.145   0.049  0.00  0.00    -0.530 OA
ENDROOT
BRANCH   5  12
ATOM     12  N   LIG    1        1.149   2.778   5.203  0.00  0.00    -0.720 N 
ATOM     13  H   LIG    1        0.711   3.598   5.481  0.00  0.00    +0.400 HD
ATOM     14  C   LIG    1        1.158   1.708   6.023  0.00  0.00    +0.530 C 
ATOM     15  O   LIG    1        1.705   0.683   5.676  0.00  0.00    -0.540 OA
BRANCH  14  16
ATOM     16  C   LIG    1        0.488   1.786   7.371  0.00  0.00    -0.080 C 
ATOM     17  C   LIG    1       -0.999   2.096   7.184  0.00  0.00    +0.060 C 
ATOM     18  C   LIG    1        1.140   2.893   8.201  0.00  0.00    +0.060 C 
BRANCH  16  19
ATOM     19  C   LIG    1        0.643   0.447   8.095  0.00  0.00    +0.090 C 
BRANCH  19  20
ATOM     20  C   LIG    1        0.105   0.574   9.522  0.00  0.00    +0.450 C 
ATOM     21  F   LIG    1        0.852   1.530  10.218  0.00  0.00    -0.180 F 
ATOM     22  F   LIG    1        0.209  -0.661  10.171  0.00  0.00    -0.180 F 
ATOM     23  F   LIG    1       -1.237   0.968   9.481  0.00  0.00    -0.180 F 
ENDBRANCH  19  20
ENDBRANCH  16  19
ENDBRANCH  14  16
ENDBRANCH   5  12
BRANCH   1  24
ATOM     24  C   LIG    1        0.986   5.025  -0.580  0.00  0.00    -0.010 C 
ATOM     25  C   LIG    1        1.985   4.800  -1.717  0.00  0.00    +0.060 C 
BRANCH  24  26
ATOM     26  C   LIG    1       -0.342   5.518  -1.158  0.00  0.00    +0.190 C 
BRANCH  26  28
ATOM     27  C   LIG    1       -1.340   7.356  -2.329  0.00  0.00    +0.200 C 
ATOM     28  O   LIG    1       -0.154   6.802  -1.756  0.00  0.00    -0.390 OA
ENDBRANCH  26  28
ENDBRANCH  24  26
ENDBRANCH   1  24
TORSDOF 7
