REMARK  Name = ZINCtV000002PoeR.0
REMARK                            x       y       z     vdW  Elec       q    Type
REMARK                         _______ _______ _______ _____ _____    ______ ____
ROOT
ATOM      1  O   LIG    1        4.364   3.839   0.653  0.00  0.00    -0.440 OA
ATOM      2  C   LIG    1        3.484   3.226   0.080  0.00  0.00    +0.560 C 
ATOM      3  N   LIG    1        2.497   3.894  -0.550  0.00  0.00    -0.470 N 
ENDROOT
BRANCH   3   4
ATOM      4  C   LIG    1        2.550   5.276  -0.649  0.00  0.00    +0.330 A 
ATOM      5  N   LIG    1        3.539   6.004  -0.262  0.00  0.00    -0.460 NA
ATOM      6  C   LIG    1        3.443   7.338  -0.425  0.00  0.00    +0.100 A 
ATOM      7  C   LIG    1        4.379   8.338  -0.088  0.00  0.00    +0.070 A 
ATOM      8  C   LIG    1        4.102   9.660  -0.333  0.00  0.00    +0.040 A 
ATOM      9  C   LIG    1        2.899  10.033  -0.915  0.00  0.00    +0.040 A 
ATOM     10  C   LIG    1        1.970   9.073  -1.252  0.00  0.00    +0.060 A 
ATOM     11  C   LIG    1        2.235   7.728  -1.011  0.00  0.00    -0.180 A 
ATOM     12  S   LIG    1        1.278   6.282  -1.327  0.00  0.00    +0.080 S 
ENDBRANCH   3   4
BRANCH   3  13
ATOM     13  C   LIG    1        1.419   3.193  -1.103  0.00  0.00    +0.120 A 
ATOM     14  C   LIG    1        1.631   2.303  -2.147  0.00  0.00    +0.040 A 
ATOM     15  C   LIG    1        0.565   1.613  -2.692  0.00  0.00    +0.060 A 
ATOM     16  C   LIG    1       -0.712   1.811  -2.203  0.00  0.00    +0.060 A 
ATOM     17  C   LIG    1       -0.926   2.694  -1.158  0.00  0.00    -0.020 A 
ATOM     18 CL   LIG    1       -2.531   2.936  -0.542  0.00  0.00    -0.050 Cl
ATOM     19  C   LIG    1        0.136   3.387  -0.609  0.00  0.00    +0.040 A 
ENDBRANCH   3  13
BRANCH   2  20
ATOM     20  C   LIG    1        3.497   1.748   0.073  0.00  0.00    -0.140 A 
ATOM     21  C   LIG    1        2.295   1.037   0.080  0.00  0.00    +0.080 A 
ATOM     22  C   LIG    1        2.314  -0.342   0.067  0.00  0.00    +0.030 A 
ATOM     23  C   LIG    1        3.520  -1.021   0.060  0.00  0.00    +0.110 A 
ATOM     24  C   LIG    1        4.714  -0.322   0.059  0.00  0.00    -0.190 A 
ATOM     25  C   LIG    1        4.710   1.058   0.065  0.00  0.00    +0.140 A 
BRANCH  24  26
ATOM     26  C   LIG    1        6.023  -1.069   0.051  0.00  0.00    +0.510 C 
ATOM     27  F   LIG    1        6.992  -0.306  -0.608  0.00  0.00    -0.170 F 
ATOM     28  F   LIG    1        5.859  -2.289  -0.613  0.00  0.00    -0.170 F 
ATOM     29  F   LIG    1        6.432  -1.306   1.368  0.00  0.00    -0.170 F 
ENDBRANCH  24  26
ENDBRANCH   2  20
TORSDOF 4
