REMARK  Name = ZINCvU0000000Hoc.0
REMARK                            x       y       z     vdW  Elec       q    Type
REMARK                         _______ _______ _______ _____ _____    ______ ____
ROOT
ATOM      1  C   LIG    1        0.126   2.760   1.722  0.00  0.00    +0.280 A 
ATOM      2  N   LIG    1       -0.547   3.813   1.339  0.00  0.00    -0.500 NA
ATOM      3  C   LIG    1       -0.309   4.831   2.176  0.00  0.00    +0.270 A 
ATOM      4  N   LIG    1        0.526   4.425   3.107  0.00  0.00    -0.290 NA
ATOM      5  N   LIG    1        0.816   3.079   2.831  0.00  0.00    -0.370 N 
ENDROOT
BRANCH   3   6
ATOM      6  C   LIG    1       -0.892   6.192   2.071  0.00  0.00    -0.050 A 
ATOM      7  C   LIG    1       -0.568   7.165   3.014  0.00  0.00    +0.090 A 
ATOM      8  C   LIG    1       -1.106   8.431   2.910  0.00  0.00    -0.070 A 
ATOM      9  C   LIG    1       -1.980   8.732   1.873  0.00  0.00    +0.140 A 
ATOM     10  C   LIG    1       -2.309   7.762   0.935  0.00  0.00    -0.010 A 
ATOM     11  C   LIG    1       -1.769   6.497   1.031  0.00  0.00    +0.120 A 
BRANCH   9  12
ATOM     12  O   LIG    1       -2.513   9.977   1.776  0.00  0.00    -0.260 OA
BRANCH  12  13
ATOM     13  C   LIG    1       -2.154  10.899   2.708  0.00  0.00    +0.080 A 
ATOM     14  C   LIG    1       -2.895  11.034   3.873  0.00  0.00    +0.010 A 
ATOM     15  C   LIG    1       -2.525  11.969   4.821  0.00  0.00    +0.020 A 
ATOM     16  C   LIG    1       -1.424  12.777   4.604  0.00  0.00    +0.010 A 
ATOM     17  C   LIG    1       -0.687  12.648   3.441  0.00  0.00    +0.020 A 
ATOM     18  C   LIG    1       -1.050  11.711   2.493  0.00  0.00    +0.010 A 
ENDBRANCH  12  13
ENDBRANCH   9  12
ENDBRANCH   3   6
BRANCH   5  19
ATOM     19  C   LIG    1        1.698   2.197   3.599  0.00  0.00    +0.240 C 
ATOM     20  C   LIG    1        1.215   2.091   5.066  0.00  0.00    +0.030 C 
ATOM     21  C   LIG    1        2.554   2.130   5.850  0.00  0.00    +0.220 C 
ATOM     22  O   LIG    1        3.360   3.063   5.098  0.00  0.00    -0.360 OA
ATOM     23  C   LIG    1        3.109   2.807   3.706  0.00  0.00    +0.230 C 
ENDBRANCH   5  19
BRANCH   1  25
ATOM     24  C   LIG    1        0.962   1.490  -0.238  0.00  0.00    +0.060 C 
ATOM     25  C   LIG    1        0.124   1.415   1.040  0.00  0.00    +0.270 C 
BRANCH  25  26
ATOM     26  O   LIG    1       -1.218   1.051   0.709  0.00  0.00    -0.340 OA
BRANCH  26  27
ATOM     27  C   LIG    1       -1.453  -0.358   0.705  0.00  0.00    +0.210 C 
BRANCH  27  28
ATOM     28  C   LIG    1       -2.913  -0.631   0.340  0.00  0.00    +0.460 C 
ATOM     29  F   LIG    1       -3.750  -0.022   1.280  0.00  0.00    -0.170 F 
ATOM     30  F   LIG    1       -3.143  -2.011   0.335  0.00  0.00    -0.170 F 
ATOM     31  F   LIG    1       -3.182  -0.109  -0.930  0.00  0.00    -0.170 F 
ENDBRANCH  27  28
ENDBRANCH  26  27
ENDBRANCH  25  26
ENDBRANCH   1  25
TORSDOF 8
