REMARK  Name = ZINCvU000000085Y.0
REMARK                            x       y       z     vdW  Elec       q    Type
REMARK                         _______ _______ _______ _____ _____    ______ ____
ROOT
ATOM      1  C   LIG    1       -2.600  -0.803  -2.017  0.00  0.00    -0.690 A 
ATOM      2  C   LIG    1       -1.502  -0.826  -2.857  0.00  0.00    +0.180 A 
ATOM      3  C   LIG    1       -1.014  -2.029  -3.336  0.00  0.00    +0.030 A 
ATOM      4  C   LIG    1       -1.629  -3.215  -2.985  0.00  0.00    +0.070 A 
ATOM      5  C   LIG    1       -2.742  -3.197  -2.141  0.00  0.00    -0.150 A 
ATOM      6 CL   LIG    1       -1.020  -4.723  -3.593  0.00  0.00    -0.000 Cl
ATOM      7  C   LIG    1       -3.224  -1.980  -1.658  0.00  0.00    +0.170 A 
ENDROOT
BRANCH   5   8
ATOM      8  C   LIG    1       -3.405  -4.462  -1.760  0.00  0.00    +0.550 C 
ATOM      9  N   LIG    1       -4.478  -4.441  -0.945  0.00  0.00    -0.630 N 
ATOM     10  H   LIG    1       -4.815  -3.596  -0.609  0.00  0.00    +0.420 HD
ATOM     11  O   LIG    1       -2.982  -5.521  -2.183  0.00  0.00    -0.440 OA
BRANCH   9  12
ATOM     12  C   LIG    1       -5.101  -5.630  -0.588  0.00  0.00    +0.270 A 
ATOM     13  N   LIG    1       -4.738  -6.805  -0.984  0.00  0.00    -0.470 NA
ATOM     14  C   LIG    1       -5.436  -7.846  -0.548  0.00  0.00    +0.100 A 
ATOM     15  C   LIG    1       -6.456  -7.501   0.258  0.00  0.00    -0.240 A 
ATOM     16  C   LIG    1       -7.425  -8.466   0.898  0.00  0.00    +0.120 C 
ATOM     17  C   LIG    1       -7.318  -9.815   0.179  0.00  0.00    +0.030 C 
ATOM     18  C   LIG    1       -5.842 -10.211   0.081  0.00  0.00    +0.030 C 
ATOM     19  C   LIG    1       -5.134  -9.291  -0.916  0.00  0.00    +0.130 C 
ATOM     20  S   LIG    1       -6.466  -5.751   0.434  0.00  0.00    +0.130 S 
ENDBRANCH   9  12
ENDBRANCH   5   8
BRANCH   1  21
ATOM     21  S   LIG    1       -3.208   0.735  -1.408  0.00  0.00    +2.680 S 
ATOM     22  O   LIG    1       -2.774   1.729  -2.326  0.00  0.00    -0.930 OA
ATOM     23  O   LIG    1       -4.575   0.524  -1.079  0.00  0.00    -0.940 OA
BRANCH  21  25
ATOM     24  C   LIG    1       -2.994   0.565   1.282  0.00  0.00    +0.320 C 
ATOM     25  N   LIG    1       -2.426   1.041   0.019  0.00  0.00    -0.950 N 
BRANCH  25  26
ATOM     26  C   LIG    1       -1.224   1.754   0.017  0.00  0.00    +0.140 A 
ATOM     27  C   LIG    1       -0.013   1.076   0.008  0.00  0.00    +0.040 A 
ATOM     28  C   LIG    1        1.174   1.784   0.000  0.00  0.00    +0.030 A 
ATOM     29  C   LIG    1        1.157   3.166   0.008  0.00  0.00    +0.050 A 
ATOM     30  C   LIG    1       -0.048   3.846   0.023  0.00  0.00    +0.040 A 
ATOM     31  C   LIG    1       -1.238   3.144   0.030  0.00  0.00    -0.020 A 
ATOM     32 CL   LIG    1       -2.750   3.998   0.049  0.00  0.00    -0.050 Cl
ENDBRANCH  25  26
ENDBRANCH  21  25
ENDBRANCH   1  21
TORSDOF 5
