REMARK  Name = ZINCrD0000074TbL.0
REMARK                            x       y       z     vdW  Elec       q    Type
REMARK                         _______ _______ _______ _____ _____    ______ ____
ROOT
ATOM      1  N   LIG    1       -2.954  -2.339   0.018  0.00  0.00    -0.520 N 
ATOM      2  H   LIG    1       -3.700  -1.719   0.028  0.00  0.00    +0.430 HD
ATOM      3  C   LIG    1       -3.183  -3.667   0.013  0.00  0.00    +0.520 C 
ATOM      4  O   LIG    1       -2.250  -4.443  -0.000  0.00  0.00    -0.510 OA
ENDROOT
BRANCH   1   6
ATOM      5  C   LIG    1       -1.412  -0.526   0.013  0.00  0.00    +0.540 C 
ATOM      6  N   LIG    1       -1.640  -1.854   0.008  0.00  0.00    -0.520 N 
ATOM      7  H   LIG    1       -0.894  -2.474  -0.003  0.00  0.00    +0.430 HD
ATOM      8  O   LIG    1       -2.344   0.250   0.026  0.00  0.00    -0.520 OA
BRANCH   5   9
ATOM      9  C   LIG    1        0.002  -0.004   0.002  0.00  0.00    +0.090 C 
BRANCH   9  10
ATOM     10  S   LIG    1       -0.022   1.810   0.012  0.00  0.00    -0.010 S 
BRANCH  10  17
ATOM     11  C   LIG    1        1.038   4.654   0.005  0.00  0.00    +0.100 C 
ATOM     12  C   LIG    1        2.079   3.563  -0.004  0.00  0.00    -0.060 A 
ATOM     13  C   LIG    1        3.421   3.889  -0.009  0.00  0.00    +0.030 A 
ATOM     14  C   LIG    1        4.376   2.889  -0.024  0.00  0.00    +0.010 A 
ATOM     15  C   LIG    1        3.992   1.560  -0.028  0.00  0.00    +0.020 A 
ATOM     16  C   LIG    1        2.651   1.228  -0.017  0.00  0.00    -0.010 A 
ATOM     17  C   LIG    1        1.689   2.229  -0.002  0.00  0.00    -0.110 A 
ENDBRANCH  10  17
ENDBRANCH   9  10
ENDBRANCH   5   9
ENDBRANCH   1   6
BRANCH   3  18
ATOM     18  C   LIG    1       -4.596  -4.189   0.024  0.00  0.00    +0.170 C 
ATOM     19  C   LIG    1       -5.336  -3.682  -1.216  0.00  0.00    +0.090 C 
BRANCH  18  20
ATOM     20  N   LIG    1       -4.577  -5.654   0.015  0.00  0.00    -0.520 NA
ATOM     21  C   LIG    1       -5.124  -6.320   0.997  0.00  0.00    +0.400 A 
ATOM     22  N   LIG    1       -5.188  -7.674   1.135  0.00  0.00    -0.630 N 
ATOM     23  H   LIG    1       -4.805  -8.263   0.466  0.00  0.00    +0.420 HD
ATOM     24  C   LIG    1       -5.816  -8.184   2.259  0.00  0.00    +0.150 A 
ATOM     25  C   LIG    1       -5.997  -9.532   2.604  0.00  0.00    +0.000 A 
ATOM     26  C   LIG    1       -6.647  -9.880   3.766  0.00  0.00    +0.070 A 
ATOM     27  C   LIG    1       -7.139  -8.909   4.620  0.00  0.00    +0.010 A 
ATOM     28  C   LIG    1       -6.973  -7.575   4.300  0.00  0.00    +0.100 A 
ATOM     29  C   LIG    1       -6.319  -7.221   3.133  0.00  0.00    -0.150 A 
ATOM     30  S   LIG    1       -5.928  -5.647   2.425  0.00  0.00    -0.020 S 
ENDBRANCH  18  20
ENDBRANCH   3  18
TORSDOF 6
