REMARK  Name = ZINCqH00000098Oo.0
REMARK                            x       y       z     vdW  Elec       q    Type
REMARK                         _______ _______ _______ _____ _____    ______ ____
ROOT
ATOM      1  N   LIG    1       -1.640  -1.854   0.008  0.00  0.00    -0.720 N 
ATOM      2  H   LIG    1       -0.894  -2.474  -0.003  0.00  0.00    +0.400 HD
ATOM      3  C   LIG    1       -1.412  -0.526   0.013  0.00  0.00    +0.520 C 
ATOM      4  O   LIG    1       -2.344   0.250   0.026  0.00  0.00    -0.490 OA
ENDROOT
BRANCH   1   6
ATOM      5  C   LIG    1       -3.550  -2.412  -1.414  0.00  0.00    +0.040 C 
ATOM      6  C   LIG    1       -3.014  -2.361   0.018  0.00  0.00    +0.290 C 
BRANCH   6   7
ATOM      7  C   LIG    1       -3.034  -3.746   0.611  0.00  0.00    -0.100 A 
ATOM      8  C   LIG    1       -2.034  -4.648   0.301  0.00  0.00    +0.000 A 
ATOM      9  C   LIG    1       -2.058  -5.914   0.850  0.00  0.00    +0.000 A 
ATOM     10  C   LIG    1       -3.085  -6.293   1.704  0.00  0.00    -0.070 A 
ATOM     11  C   LIG    1       -3.060  -7.696   2.252  0.00  0.00    +0.070 C 
ATOM     12  C   LIG    1       -3.968  -7.811   3.474  0.00  0.00    +0.020 C 
ATOM     13  C   LIG    1       -5.345  -7.245   3.109  0.00  0.00    +0.020 C 
ATOM     14  C   LIG    1       -5.216  -5.732   2.945  0.00  0.00    +0.080 C 
ATOM     15  C   LIG    1       -4.082  -5.395   2.013  0.00  0.00    -0.070 A 
ATOM     16  C   LIG    1       -4.055  -4.121   1.462  0.00  0.00    +0.010 A 
ENDBRANCH   6   7
ENDBRANCH   1   6
BRANCH   3  17
ATOM     17  C   LIG    1        0.002  -0.004   0.002  0.00  0.00    +0.230 C 
BRANCH  17  18
ATOM     18  O   LIG    1       -0.017   1.425   0.010  0.00  0.00    -0.260 OA
BRANCH  18  19
ATOM     19  C   LIG    1        1.185   2.058   0.002  0.00  0.00    +0.190 A 
ATOM     20  C   LIG    1        2.359   1.320  -0.013  0.00  0.00    -0.070 A 
ATOM     21  C   LIG    1        3.580   1.966  -0.022  0.00  0.00    +0.120 A 
ATOM     22  C   LIG    1        3.633   3.348  -0.015  0.00  0.00    +0.000 A 
ATOM     23  C   LIG    1        2.463   4.086   0.000  0.00  0.00    +0.140 A 
ATOM     24  C   LIG    1        1.240   3.445   0.003  0.00  0.00    -0.080 A 
BRANCH  24  25
ATOM     25  N   LIG    1       -0.011   4.236   0.013  0.00  0.00    +0.030 N 
ATOM     26  O   LIG    1       -1.089   3.670   0.020  0.00  0.00    -0.120 OA
ATOM     27  O   LIG    1        0.038   5.453   0.014  0.00  0.00    -0.180 OA
ENDBRANCH  24  25
ENDBRANCH  18  19
ENDBRANCH  17  18
ENDBRANCH   3  17
TORSDOF 6
