REMARK  Name = ZINCrH00000No56P.0
REMARK                            x       y       z     vdW  Elec       q    Type
REMARK                         _______ _______ _______ _____ _____    ______ ____
ROOT
ATOM      1  C   LIG    1        1.044   3.574   0.006  0.00  0.00    +0.190 C 
ATOM      2  C   LIG    1        1.013   4.078   1.450  0.00  0.00    +0.070 C 
ENDROOT
BRANCH   1   5
ATOM      3  N   LIG    1        2.359   5.497  -0.825  0.00  0.00    -0.670 N 
ATOM      4  H   LIG    1        1.649   6.080  -0.512  0.00  0.00    +0.410 HD
ATOM      5  C   LIG    1        2.236   4.161  -0.706  0.00  0.00    +0.520 C 
ATOM      6  O   LIG    1        3.084   3.429  -1.172  0.00  0.00    -0.500 OA
BRANCH   3  10
ATOM      7  C   LIG    1        5.791   7.129  -2.534  0.00  0.00    -0.090 A 
ATOM      8  C   LIG    1        5.289   5.929  -3.005  0.00  0.00    +0.030 A 
ATOM      9  C   LIG    1        4.152   5.386  -2.440  0.00  0.00    +0.020 A 
ATOM     10  C   LIG    1        3.512   6.045  -1.399  0.00  0.00    +0.130 A 
ATOM     11  C   LIG    1        4.015   7.252  -0.932  0.00  0.00    -0.010 A 
ATOM     12  C   LIG    1        5.156   7.788  -1.497  0.00  0.00    +0.030 A 
BRANCH   7  14
ATOM     13  C   LIG    1        6.637   8.633  -4.314  0.00  0.00    +0.030 C 
ATOM     14  C   LIG    1        7.032   7.719  -3.152  0.00  0.00    +0.050 C 
ENDBRANCH   7  14
ENDBRANCH   3  10
ENDBRANCH   1   5
BRANCH   1  15
ATOM     15  O   LIG    1        1.139   2.148   0.000  0.00  0.00    -0.320 OA
BRANCH  15  16
ATOM     16  C   LIG    1       -0.019   1.457   0.001  0.00  0.00    +0.500 C 
ATOM     17  O   LIG    1       -1.081   2.049   0.001  0.00  0.00    -0.500 OA
BRANCH  16  18
ATOM     18  C   LIG    1        0.003  -0.005  -0.004  0.00  0.00    -0.030 C 
ATOM     19  C   LIG    1       -1.155  -0.697  -0.004  0.00  0.00    +0.140 C 
BRANCH  19  20
ATOM     20  C   LIG    1       -1.134  -2.169  -0.009  0.00  0.00    -0.080 A 
ATOM     21  C   LIG    1        0.085  -2.853  -0.015  0.00  0.00    +0.100 A 
ATOM     22  C   LIG    1        0.097  -4.232  -0.019  0.00  0.00    +0.050 A 
ATOM     23  C   LIG    1       -1.093  -4.938  -0.018  0.00  0.00    +0.120 A 
ATOM     24  C   LIG    1       -2.304  -4.268  -0.011  0.00  0.00    -0.040 A 
ATOM     25  C   LIG    1       -2.333  -2.889  -0.003  0.00  0.00    +0.130 A 
BRANCH  24  26
ATOM     26  N   LIG    1       -3.571  -5.032  -0.009  0.00  0.00    +0.020 N 
ATOM     27  O   LIG    1       -4.638  -4.444  -0.004  0.00  0.00    -0.150 OA
ATOM     28  O   LIG    1       -3.548  -6.250  -0.012  0.00  0.00    -0.150 OA
ENDBRANCH  24  26
ENDBRANCH  19  20
ENDBRANCH  16  18
ENDBRANCH  15  16
ENDBRANCH   1  15
TORSDOF 8
