REMARK  Name = ZINCvU00000004O3.0
REMARK                            x       y       z     vdW  Elec       q    Type
REMARK                         _______ _______ _______ _____ _____    ______ ____
ROOT
ATOM      1  C   LIG    1        3.691  -0.692  -0.046  0.00  0.00    +0.510 C 
ATOM      2  O   LIG    1        4.735  -0.071  -0.062  0.00  0.00    -0.480 OA
ENDROOT
BRANCH   1   3
ATOM      3  C   LIG    1        2.405   0.028  -0.027  0.00  0.00    -0.160 A 
ATOM      4  C   LIG    1        1.202  -0.683  -0.009  0.00  0.00    +0.130 A 
ATOM      5  C   LIG    1        0.003  -0.003   0.009  0.00  0.00    -0.030 A 
ATOM      6  C   LIG    1       -0.016   1.382   0.009  0.00  0.00    +0.090 A 
ATOM      7  C   LIG    1        1.165   2.096  -0.008  0.00  0.00    -0.090 A 
ATOM      8  C   LIG    1        2.381   1.430  -0.027  0.00  0.00    +0.190 A 
BRANCH   8   9
ATOM      9  O   LIG    1        3.542   2.131  -0.043  0.00  0.00    -0.280 OA
BRANCH   9  10
ATOM     10  C   LIG    1        3.440   3.556  -0.042  0.00  0.00    +0.220 C 
BRANCH  10  11
ATOM     11  C   LIG    1        4.842   4.168  -0.062  0.00  0.00    +0.230 C 
BRANCH  11  12
ATOM     12  O   LIG    1        5.489   3.837  -1.293  0.00  0.00    -0.310 OA
BRANCH  12  13
ATOM     13  C   LIG    1        6.751   4.307  -1.472  0.00  0.00    +0.130 A 
ATOM     14  C   LIG    1        7.353   5.076  -0.487  0.00  0.00    -0.080 A 
ATOM     15  C   LIG    1        8.638   5.548  -0.670  0.00  0.00    +0.040 A 
ATOM     16  C   LIG    1        9.321   5.264  -1.838  0.00  0.00    -0.040 A 
ATOM     17  C   LIG    1        8.721   4.502  -2.824  0.00  0.00    +0.050 A 
ATOM     18  C   LIG    1        7.438   4.023  -2.644  0.00  0.00    -0.020 A 
ENDBRANCH  12  13
ENDBRANCH  11  12
ENDBRANCH  10  11
ENDBRANCH   9  10
ENDBRANCH   8   9
ENDBRANCH   1   3
BRANCH   1  19
ATOM     19  O   LIG    1        3.709  -2.040  -0.047  0.00  0.00    -0.330 OA
BRANCH  19  20
ATOM     20  C   LIG    1        5.011  -2.682  -0.067  0.00  0.00    +0.270 C 
BRANCH  20  23
ATOM     21  N   LIG    1        5.913  -4.985  -0.081  0.00  0.00    -0.670 N 
ATOM     22  H   LIG    1        6.801  -4.604  -0.162  0.00  0.00    +0.420 HD
ATOM     23  C   LIG    1        4.833  -4.178  -0.065  0.00  0.00    +0.520 C 
ATOM     24  O   LIG    1        3.719  -4.656  -0.048  0.00  0.00    -0.490 OA
BRANCH  21  28
ATOM     25  C   LIG    1        7.548  -9.329   1.540  0.00  0.00    +0.100 C 
ATOM     26  C   LIG    1        6.529  -8.502   0.799  0.00  0.00    -0.040 A 
ATOM     27  C   LIG    1        6.694  -7.134   0.697  0.00  0.00    +0.000 A 
ATOM     28  C   LIG    1        5.752  -6.371   0.019  0.00  0.00    +0.160 A 
ATOM     29  C   LIG    1        4.653  -6.988  -0.565  0.00  0.00    +0.030 A 
ATOM     30  C   LIG    1        4.497  -8.357  -0.466  0.00  0.00    +0.070 A 
ATOM     31  C   LIG    1        5.434  -9.113   0.216  0.00  0.00    -0.110 A 
ATOM     32 BR   LIG    1        5.216 -10.987   0.351  0.00  0.00    -0.050 Br
ENDBRANCH  21  28
ENDBRANCH  20  23
ENDBRANCH  19  20
ENDBRANCH   1  19
TORSDOF 10
