REMARK  Name = ZINCvU00000008hL.0
REMARK                            x       y       z     vdW  Elec       q    Type
REMARK                         _______ _______ _______ _____ _____    ______ ____
ROOT
ATOM      1  C   LIG    1        1.302   7.228  -0.548  0.00  0.00    -0.670 A 
ATOM      2  C   LIG    1       -0.051   6.997  -0.713  0.00  0.00    +0.160 A 
ATOM      3  C   LIG    1       -0.974   7.747  -0.006  0.00  0.00    +0.020 A 
ATOM      4  C   LIG    1       -0.547   8.737   0.857  0.00  0.00    +0.020 A 
ATOM      5  C   LIG    1        0.813   8.975   1.020  0.00  0.00    +0.110 A 
ATOM      6 CL   LIG    1       -1.706   9.683   1.737  0.00  0.00    -0.050 Cl
ATOM      7  C   LIG    1        1.737   8.217   0.313  0.00  0.00    +0.220 A 
ENDROOT
BRANCH   1   8
ATOM      8  S   LIG    1        2.474   6.265  -1.445  0.00  0.00    +2.690 S 
ATOM      9  O   LIG    1        1.843   5.897  -2.663  0.00  0.00    -0.950 OA
ATOM     10  O   LIG    1        3.703   6.976  -1.391  0.00  0.00    -0.940 OA
BRANCH   8  11
ATOM     11  N   LIG    1        2.708   4.862  -0.597  0.00  0.00    -1.050 N 
ATOM     12  H   LIG    1        2.449   4.012  -0.985  0.00  0.00    +0.430 HD
BRANCH  11  17
ATOM     13  C   LIG    1        5.013   5.042   4.582  0.00  0.00    +0.100 C 
ATOM     14  C   LIG    1        4.402   4.992   3.206  0.00  0.00    -0.060 A 
ATOM     15  C   LIG    1        4.977   5.703   2.169  0.00  0.00    +0.070 A 
ATOM     16  C   LIG    1        4.417   5.663   0.907  0.00  0.00    +0.030 A 
ATOM     17  C   LIG    1        3.277   4.904   0.678  0.00  0.00    +0.140 A 
ATOM     18  C   LIG    1        2.703   4.186   1.720  0.00  0.00    +0.020 A 
ATOM     19  C   LIG    1        3.269   4.229   2.980  0.00  0.00    -0.020 A 
ATOM     20 CL   LIG    1        2.553   3.333   4.283  0.00  0.00    -0.070 Cl
ENDBRANCH  11  17
ENDBRANCH   8  11
ENDBRANCH   1   8
BRANCH   5  21
ATOM     21  N   LIG    1        1.250   9.977   1.893  0.00  0.00    -0.630 N 
ATOM     22  H   LIG    1        0.842  10.857   1.866  0.00  0.00    +0.410 HD
BRANCH  21  23
ATOM     23  C   LIG    1        2.238   9.720   2.774  0.00  0.00    +0.500 C 
ATOM     24  S   LIG    1        3.036   8.206   2.746  0.00  0.00    -0.450 S 
BRANCH  23  25
ATOM     25  N   LIG    1        2.596  10.654   3.676  0.00  0.00    -0.640 N 
ATOM     26  H   LIG    1        2.144  11.512   3.692  0.00  0.00    +0.410 HD
ATOM     27  C   LIG    1        3.584  10.397   4.557  0.00  0.00    +0.490 C 
ATOM     28  O   LIG    1        4.149   9.325   4.537  0.00  0.00    -0.400 OA
BRANCH  27  29
ATOM     29  C   LIG    1        3.985  11.442   5.566  0.00  0.00    +0.000 C 
ATOM     30  C   LIG    1        4.459  12.700   4.836  0.00  0.00    +0.020 C 
ATOM     31  C   LIG    1        4.866  13.761   5.861  0.00  0.00    +0.020 C 
ATOM     32  C   LIG    1        6.001  13.219   6.732  0.00  0.00    +0.010 C 
ATOM     33  C   LIG    1        5.527  11.960   7.462  0.00  0.00    +0.010 C 
ATOM     34  C   LIG    1        5.119  10.900   6.438  0.00  0.00    +0.040 C 
ENDBRANCH  27  29
ENDBRANCH  23  25
ENDBRANCH  21  23
ENDBRANCH   5  21
TORSDOF 7
