REMARK  Name = ZINCrg00000SjSx0.0
REMARK                            x       y       z     vdW  Elec       q    Type
REMARK                         _______ _______ _______ _____ _____    ______ ____
ROOT
ATOM      1  N   LIG    1       -1.240   2.068   0.019  0.00  0.00    -0.400 N 
ATOM      2  C   LIG    1       -1.945   2.461   1.142  0.00  0.00    +0.090 A 
ATOM      3  C   LIG    1       -3.050   3.082   0.741  0.00  0.00    +0.190 A 
ATOM      4  N   LIG    1       -3.067   3.095  -0.642  0.00  0.00    -0.350 N 
ATOM      5  C   LIG    1       -3.776   3.495  -1.765  0.00  0.00    -0.190 A 
ATOM      6  C   LIG    1       -4.987   4.175  -1.973  0.00  0.00    +0.600 A 
ATOM      7  N   LIG    1       -5.404   4.413  -3.234  0.00  0.00    -0.550 N 
ATOM      8  C   LIG    1       -4.679   4.009  -4.291  0.00  0.00    +0.710 A 
ATOM      9  N   LIG    1       -3.513   3.354  -4.139  0.00  0.00    -0.510 N 
ATOM     10  C   LIG    1       -2.752   2.930  -5.317  0.00  0.00    +0.340 C 
ATOM     11  O   LIG    1       -5.088   4.241  -5.413  0.00  0.00    -0.530 OA
ATOM     12  C   LIG    1       -6.666   5.122  -3.454  0.00  0.00    +0.340 C 
ATOM     13  O   LIG    1       -5.656   4.547  -1.024  0.00  0.00    -0.520 OA
ATOM     14  C   LIG    1       -3.031   3.080  -2.868  0.00  0.00    +0.370 A 
ATOM     15  N   LIG    1       -1.943   2.469  -2.409  0.00  0.00    -0.500 NA
ATOM     16  C   LIG    1       -1.532   2.226   2.572  0.00  0.00    +0.190 C 
ATOM     17  C   LIG    1       -1.947   2.474  -1.084  0.00  0.00    +0.460 A 
ENDROOT
BRANCH   1  22
ATOM     18  C   LIG    1        1.213  -0.679  -0.013  0.00  0.00    +0.100 A 
ATOM     19  C   LIG    1        2.404   0.030  -0.021  0.00  0.00    +0.000 A 
ATOM     20  C   LIG    1        2.388   1.413  -0.013  0.00  0.00    -0.020 A 
ATOM     21  C   LIG    1        1.182   2.093   0.002  0.00  0.00    +0.120 A 
ATOM     22  C   LIG    1       -0.017   1.383   0.010  0.00  0.00    +0.120 A 
ATOM     23  C   LIG    1        0.002  -0.004   0.002  0.00  0.00    +0.060 A 
BRANCH  18  25
ATOM     24  C   LIG    1        2.515  -2.670  -0.037  0.00  0.00    +0.250 C 
ATOM     25  O   LIG    1        1.232  -2.039  -0.021  0.00  0.00    -0.310 OA
ENDBRANCH  18  25
BRANCH  21  26
ATOM     26  O   LIG    1        1.167   3.453   0.009  0.00  0.00    -0.310 OA
ATOM     27  C   LIG    1        2.433   4.116   0.001  0.00  0.00    +0.240 C 
ENDBRANCH  21  26
ENDBRANCH   1  22
TORSDOF 3
