REMARK  Name = ZINCrH000004q7HE.0
REMARK                            x       y       z     vdW  Elec       q    Type
REMARK                         _______ _______ _______ _____ _____    ______ ____
ROOT
ATOM      1  C   LIG    1       -1.172  -0.895   0.008  0.00  0.00    +0.600 C 
ATOM      2  N   LIG    1       -2.411  -0.377   0.124  0.00  0.00    -0.610 N 
ATOM      3  C   LIG    1       -3.590  -1.250   0.237  0.00  0.00    +0.270 C 
ATOM      4  C   LIG    1       -4.417  -0.786   1.447  0.00  0.00    +0.220 C 
ATOM      5  O   LIG    1       -4.674   0.615   1.329  0.00  0.00    -0.370 OA
ATOM      6  C   LIG    1       -3.499   1.429   1.346  0.00  0.00    +0.210 C 
ATOM      7  C   LIG    1       -2.625   1.079   0.136  0.00  0.00    +0.260 C 
ATOM      8  O   LIG    1       -1.022  -2.099  -0.078  0.00  0.00    -0.530 OA
ENDROOT
BRANCH   6   9
ATOM      9  C   LIG    1       -3.892   2.883   1.278  0.00  0.00    -0.130 A 
ATOM     10  C   LIG    1       -5.102   3.245   0.716  0.00  0.00    +0.120 A 
ATOM     11  C   LIG    1       -5.464   4.578   0.654  0.00  0.00    -0.010 A 
ATOM     12  C   LIG    1       -4.616   5.551   1.154  0.00  0.00    +0.140 A 
ATOM     13  C   LIG    1       -3.404   5.189   1.718  0.00  0.00    -0.040 A 
ATOM     14  F   LIG    1       -4.970   6.853   1.093  0.00  0.00    -0.130 F 
ATOM     15  C   LIG    1       -3.044   3.854   1.784  0.00  0.00    +0.140 A 
ATOM     16  F   LIG    1       -1.864   3.498   2.338  0.00  0.00    -0.130 F 
ENDBRANCH   6   9
BRANCH   1  19
ATOM     17  C   LIG    1        1.453  -1.257   1.707  0.00  0.00    +0.150 C 
ATOM     18  C   LIG    1        1.157  -0.151   0.726  0.00  0.00    +0.150 A 
ATOM     19  C   LIG    1        0.001  -0.003  -0.013  0.00  0.00    -0.300 A 
ATOM     20  C   LIG    1        0.153   1.164  -0.795  0.00  0.00    +0.270 A 
ATOM     21  N   LIG    1        1.325   1.675  -0.535  0.00  0.00    -0.280 NA
ATOM     22  N   LIG    1        1.969   0.871   0.412  0.00  0.00    -0.350 N 
BRANCH  22  23
ATOM     23  C   LIG    1        3.305   1.104   0.967  0.00  0.00    +0.260 C 
ATOM     24  C   LIG    1        3.362   2.492   1.638  0.00  0.00    +0.020 C 
ATOM     25  C   LIG    1        4.784   3.013   1.310  0.00  0.00    +0.020 C 
ATOM     26  C   LIG    1        5.006   2.514  -0.139  0.00  0.00    +0.020 C 
ATOM     27  C   LIG    1        4.350   1.118  -0.163  0.00  0.00    +0.030 C 
ENDBRANCH  22  23
ENDBRANCH   1  19
TORSDOF 3
