REMARK  Name = ZINC650000002EAu.0
REMARK                            x       y       z     vdW  Elec       q    Type
REMARK                         _______ _______ _______ _____ _____    ______ ____
ROOT
ATOM      1  C   LIG    1        1.473   1.857  -0.002  0.00  0.00    +0.140 C 
ATOM      2  C   LIG    1        2.084   0.763  -0.920  0.00  0.00    +0.050 C 
ATOM      3  C   LIG    1        1.229  -0.474  -0.569  0.00  0.00    +0.230 C 
ATOM      4  O   LIG    1        0.002  -0.004   0.002  0.00  0.00    -0.360 OA
ATOM      5  C   LIG    1       -0.017   1.432   0.010  0.00  0.00    +0.240 C 
ENDROOT
BRANCH   1   6
ATOM      6  N   LIG    1        1.637   3.193  -0.589  0.00  0.00    -0.630 N 
ATOM      7  H   LIG    1        1.274   3.194  -1.531  0.00  0.00    +0.440 HD
ATOM      8  H   LIG    1        2.617   3.435  -0.607  0.00  0.00    +0.440 HD
ATOM      9  H   LIG    1        1.134   3.869  -0.034  0.00  0.00    +0.440 HD
ENDBRANCH   1   6
TORSDOF 1
