REMARK  Name = ZINCtj000001VgbK.1
REMARK                            x       y       z     vdW  Elec       q    Type
REMARK                         _______ _______ _______ _____ _____    ______ ____
ROOT
ATOM      1  C   LIG    1        7.822  -0.336  -3.037  0.00  0.00    +0.170 C 
ATOM      2  C   LIG    1        6.510  -0.944  -3.563  0.00  0.00    +0.100 C 
ATOM      3  C   LIG    1        5.814   0.355  -3.118  0.00  0.00    +0.250 C 
ATOM      4  C   LIG    1        7.178   1.032  -3.261  0.00  0.00    -0.120 C 
ATOM      5  C   LIG    1        7.558   2.236  -2.399  0.00  0.00    +0.040 C 
ATOM      6  C   LIG    1        8.446   2.688  -3.573  0.00  0.00    +0.040 C 
ATOM      7  C   LIG    1        7.518   1.874  -4.492  0.00  0.00    +0.100 C 
ENDROOT
BRANCH   3   8
ATOM      8  N   LIG    1        5.320   0.315  -1.740  0.00  0.00    -0.740 N 
ATOM      9  H   LIG    1        5.839   0.719  -1.026  0.00  0.00    +0.390 HD
ATOM     10  C   LIG    1        4.144  -0.282  -1.463  0.00  0.00    +0.520 C 
ATOM     11  O   LIG    1        3.495  -0.786  -2.355  0.00  0.00    -0.490 OA
BRANCH  10  12
ATOM     12  C   LIG    1        3.635  -0.323  -0.045  0.00  0.00    +0.200 C 
BRANCH  12  13
ATOM     13  C   LIG    1        2.311  -1.041  -0.007  0.00  0.00    +0.280 A 
ATOM     14  N   LIG    1        2.139  -2.327   0.166  0.00  0.00    -0.520 NA
ATOM     15  C   LIG    1        0.838  -2.615   0.145  0.00  0.00    +0.260 A 
ATOM     16  N   LIG    1        0.162  -1.512  -0.042  0.00  0.00    -0.300 NA
ATOM     17  N   LIG    1        1.100  -0.473  -0.144  0.00  0.00    -0.370 N 
ATOM     18  C   LIG    1        0.817   0.949  -0.357  0.00  0.00    +0.370 C 
BRANCH  15  19
ATOM     19  C   LIG    1        0.243  -3.990   0.309  0.00  0.00    +0.050 C 
ATOM     20  C   LIG    1       -1.257  -4.146   0.054  0.00  0.00    +0.050 C 
ATOM     21  C   LIG    1       -0.713  -4.210   1.483  0.00  0.00    +0.050 C 
ENDBRANCH  15  19
ENDBRANCH  12  13
ENDBRANCH  10  12
ENDBRANCH   3   8
BRANCH   1  22
ATOM     22  N   LIG    1        8.088  -0.640  -1.624  0.00  0.00    -0.500 N 
ATOM     23  H   LIG    1        7.295  -0.363  -1.066  0.00  0.00    +0.420 HD
ATOM     24  H   LIG    1        8.906  -0.134  -1.320  0.00  0.00    +0.440 HD
BRANCH  22  25
ATOM     25  C   LIG    1        8.318  -2.082  -1.468  0.00  0.00    +0.460 C 
BRANCH  25  29
ATOM     26  C   LIG    1        8.398  -2.894   2.028  0.00  0.00    +0.190 A 
ATOM     27  N   LIG    1        9.653  -2.697   1.751  0.00  0.00    -0.340 NA
ATOM     28  O   LIG    1        9.784  -2.409   0.580  0.00  0.00    +0.110 OA
ATOM     29  C   LIG    1        8.590  -2.394  -0.019  0.00  0.00    +0.080 A 
ATOM     30  N   LIG    1        7.700  -2.697   0.895  0.00  0.00    -0.420 NA
BRANCH  26  32
ATOM     31  C   LIG    1        7.490  -1.999   4.154  0.00  0.00    +0.050 C 
ATOM     32  C   LIG    1        7.829  -3.269   3.372  0.00  0.00    +0.160 C 
ENDBRANCH  26  32
ENDBRANCH  25  29
ENDBRANCH  22  25
ENDBRANCH   1  22
TORSDOF 8
