REMARK  Name = ZINCpe000000XYHq.0
REMARK                            x       y       z     vdW  Elec       q    Type
REMARK                         _______ _______ _______ _____ _____    ______ ____
ROOT
ATOM      1  N   LIG    1        0.704   2.171  -1.039  0.00  0.00    -0.520 NA
ATOM      2  C   LIG    1        0.303   3.580  -1.143  0.00  0.00    +0.190 C 
ATOM      3  C   LIG    1        0.371   4.024  -2.606  0.00  0.00    +0.070 C 
ATOM      4  C   LIG    1        1.800   3.841  -3.124  0.00  0.00    -0.460 C 
ATOM      5  C   LIG    1        2.211   2.376  -2.959  0.00  0.00    +0.070 C 
ATOM      6  C   LIG    1        2.089   1.979  -1.486  0.00  0.00    +0.190 C 
ENDROOT
BRANCH   4   7
ATOM      7  S   LIG    1        1.873   4.298  -4.878  0.00  0.00    +2.620 S 
ATOM      8  O   LIG    1        0.859   3.623  -5.611  0.00  0.00    -0.940 OA
ATOM      9  O   LIG    1        3.218   4.315  -5.333  0.00  0.00    -0.950 OA
BRANCH   7  10
ATOM     10  N   LIG    1        1.410   5.888  -4.910  0.00  0.00    -1.010 NA
ATOM     11  C   LIG    1        0.033   6.377  -5.068  0.00  0.00    +0.260 C 
ATOM     12  C   LIG    1        0.090   7.919  -5.064  0.00  0.00    +0.030 C 
ATOM     13  C   LIG    1        1.556   8.211  -5.482  0.00  0.00    +0.030 C 
ATOM     14  C   LIG    1        2.313   7.048  -4.793  0.00  0.00    +0.260 C 
ENDBRANCH   7  10
ENDBRANCH   4   7
BRANCH   1  15
ATOM     15  C   LIG    1        0.518   1.671   0.330  0.00  0.00    +0.220 C 
BRANCH  15  18
ATOM     16  N   LIG    1        0.537  -0.510   1.496  0.00  0.00    -0.650 N 
ATOM     17  H   LIG    1        0.244  -0.051   2.299  0.00  0.00    +0.410 HD
ATOM     18  C   LIG    1        0.682   0.173   0.344  0.00  0.00    +0.510 C 
ATOM     19  O   LIG    1        0.945  -0.418  -0.682  0.00  0.00    -0.500 OA
BRANCH  16  27
ATOM     20  C   LIG    1       -0.493  -2.574  -0.597  0.00  0.00    +0.170 C 
ATOM     21  C   LIG    1        0.364  -2.847   0.612  0.00  0.00    +0.100 A 
ATOM     22  N   LIG    1        0.820  -4.017   0.980  0.00  0.00    -0.290 NA
ATOM     23  N   LIG    1        1.572  -3.851   2.150  0.00  0.00    -0.470 N 
ATOM     24  H   LIG    1        2.026  -4.553   2.641  0.00  0.00    +0.440 HD
ATOM     25  C   LIG    1        1.556  -2.531   2.471  0.00  0.00    +0.070 A 
ATOM     26  C   LIG    1        2.241  -1.895   3.654  0.00  0.00    +0.150 C 
ATOM     27  C   LIG    1        0.810  -1.890   1.536  0.00  0.00    -0.010 A 
ENDBRANCH  16  27
ENDBRANCH  15  18
ENDBRANCH   1  15
TORSDOF 5
