REMARK  Name = ZINCvU0000000Abk.0
REMARK                            x       y       z     vdW  Elec       q    Type
REMARK                         _______ _______ _______ _____ _____    ______ ____
ROOT
ATOM      1  C   LIG    1       -2.343  -0.013   4.156  0.00  0.00    +0.590 C 
ATOM      2  N   LIG    1       -2.893   0.351   5.332  0.00  0.00    -0.710 N 
ATOM      3  H   LIG    1       -3.020   1.290   5.538  0.00  0.00    +0.410 HD
ATOM      4  O   LIG    1       -2.270  -1.190   3.857  0.00  0.00    -0.550 OA
ENDROOT
BRANCH   1   8
ATOM      5  C   LIG    1        0.016   1.085   0.024  0.00  0.00    +0.330 C 
ATOM      6  N   LIG    1       -0.681   1.558   1.223  0.00  0.00    -0.480 N 
ATOM      7  C   LIG    1       -1.162   0.652   2.084  0.00  0.00    +0.430 A 
ATOM      8  C   LIG    1       -1.830   1.014   3.235  0.00  0.00    -0.340 A 
ATOM      9  C   LIG    1       -2.021   2.443   3.527  0.00  0.00    +0.440 A 
ATOM     10  C   LIG    1       -1.477   3.408   2.554  0.00  0.00    -0.170 A 
ATOM     11  C   LIG    1       -1.611   4.782   2.748  0.00  0.00    +0.130 A 
ATOM     12  C   LIG    1       -1.091   5.656   1.817  0.00  0.00    -0.070 A 
ATOM     13  C   LIG    1       -0.436   5.172   0.693  0.00  0.00    +0.100 A 
ATOM     14  C   LIG    1       -0.296   3.816   0.489  0.00  0.00    +0.000 A 
ATOM     15 CL   LIG    1       -1.255   7.368   2.052  0.00  0.00    -0.050 Cl
ATOM     16  O   LIG    1       -2.604   2.814   4.531  0.00  0.00    -0.480 OA
ATOM     17  C   LIG    1       -0.810   2.916   1.419  0.00  0.00    +0.180 A 
ENDBRANCH   1   8
BRANCH   2  18
ATOM     18  C   LIG    1       -3.301  -0.673   6.298  0.00  0.00    +0.290 C 
BRANCH  18  19
ATOM     19  C   LIG    1       -2.116  -1.069   7.140  0.00  0.00    -0.100 A 
ATOM     20  C   LIG    1       -1.221  -0.107   7.570  0.00  0.00    +0.020 A 
ATOM     21  C   LIG    1       -0.136  -0.469   8.346  0.00  0.00    +0.000 A 
ATOM     22  C   LIG    1        0.059  -1.795   8.685  0.00  0.00    +0.000 A 
ATOM     23  C   LIG    1       -0.833  -2.758   8.251  0.00  0.00    +0.000 A 
ATOM     24  C   LIG    1       -1.920  -2.395   7.478  0.00  0.00    +0.020 A 
ENDBRANCH  18  19
BRANCH  18  25
ATOM     25  C   LIG    1       -4.403  -0.113   7.199  0.00  0.00    +0.090 C 
BRANCH  25  26
ATOM     26  C   LIG    1       -5.632   0.168   6.374  0.00  0.00    -0.090 A 
ATOM     27  C   LIG    1       -5.804   1.411   5.792  0.00  0.00    +0.050 A 
ATOM     28  C   LIG    1       -6.928   1.668   5.031  0.00  0.00    -0.020 A 
ATOM     29  C   LIG    1       -7.888   0.685   4.860  0.00  0.00    +0.090 A 
ATOM     30  C   LIG    1       -7.718  -0.557   5.447  0.00  0.00    -0.010 A 
ATOM     31  F   LIG    1       -8.991   0.937   4.121  0.00  0.00    -0.140 F 
ATOM     32  C   LIG    1       -6.590  -0.814   6.204  0.00  0.00    +0.040 A 
ENDBRANCH  25  26
ENDBRANCH  18  25
ENDBRANCH   2  18
TORSDOF 5
