REMARK  Name = ZINCrD000000AXW0.0
REMARK                            x       y       z     vdW  Elec       q    Type
REMARK                         _______ _______ _______ _____ _____    ______ ____
ROOT
ATOM      1  O   LIG    1        1.887  -6.748  -0.386  0.00  0.00    -0.560 OA
ATOM      2  C   LIG    1        0.700  -6.494  -0.325  0.00  0.00    +0.700 C 
ATOM      3  N   LIG    1        0.287  -5.214  -0.234  0.00  0.00    -0.690 N 
ATOM      4  H   LIG    1       -0.654  -5.015  -0.110  0.00  0.00    +0.410 HD
ATOM      5  N   LIG    1       -0.205  -7.493  -0.349  0.00  0.00    -0.740 N 
ATOM      6  H   LIG    1       -1.152  -7.291  -0.300  0.00  0.00    +0.400 HD
ENDROOT
BRANCH   3   7
ATOM      7  C   LIG    1        1.218  -4.172  -0.319  0.00  0.00    +0.170 A 
ATOM      8  C   LIG    1        1.018  -3.002   0.404  0.00  0.00    +0.010 A 
ATOM      9  C   LIG    1        1.934  -1.969   0.323  0.00  0.00    +0.040 A 
ATOM     10  C   LIG    1        3.055  -2.096  -0.472  0.00  0.00    +0.030 A 
ATOM     11  C   LIG    1        3.262  -3.265  -1.206  0.00  0.00    -0.010 A 
ATOM     12  C   LIG    1        2.338  -4.306  -1.124  0.00  0.00    +0.080 A 
BRANCH  11  13
ATOM     13  C   LIG    1        4.460  -3.401  -2.062  0.00  0.00    +0.210 A 
ATOM     14  N   LIG    1        4.777  -4.441  -2.796  0.00  0.00    -0.270 NA
ATOM     15  N   LIG    1        5.885  -4.207  -3.407  0.00  0.00    -0.290 NA
ATOM     16  C   LIG    1        6.315  -3.018  -3.089  0.00  0.00    +0.420 A 
ATOM     17  O   LIG    1        5.429  -2.480  -2.234  0.00  0.00    -0.220 OA
ENDBRANCH  11  13
ENDBRANCH   3   7
BRANCH   5  18
ATOM     18  C   LIG    1        0.243  -8.884  -0.448  0.00  0.00    +0.250 C 
BRANCH  18  19
ATOM     19  C   LIG    1       -0.974  -9.812  -0.455  0.00  0.00    +0.220 C 
BRANCH  19  20
ATOM     20  N   LIG    1       -0.523 -11.210  -0.457  0.00  0.00    -0.480 N 
ATOM     21  C   LIG    1        0.111 -11.559   0.816  0.00  0.00    +0.190 C 
ATOM     22  C   LIG    1        0.585 -13.016   0.745  0.00  0.00    +0.040 C 
ATOM     23  C   LIG    1        1.736 -13.089  -0.262  0.00  0.00    +0.080 C 
ATOM     24  C   LIG    1        1.355 -12.351  -1.521  0.00  0.00    -0.120 A 
ATOM     25  C   LIG    1        2.112 -12.570  -2.661  0.00  0.00    +0.030 A 
ATOM     26  C   LIG    1        1.810 -11.916  -3.839  0.00  0.00    -0.020 A 
ATOM     27  C   LIG    1        0.745 -11.035  -3.885  0.00  0.00    +0.020 A 
ATOM     28  C   LIG    1       -0.013 -10.813  -2.755  0.00  0.00    -0.040 A 
ATOM     29  C   LIG    1        0.286 -11.473  -1.562  0.00  0.00    +0.120 A 
ENDBRANCH  19  20
ENDBRANCH  18  19
ENDBRANCH   5  18
TORSDOF 5
