REMARK  Name = ZINCrD000000CPH5.2
REMARK                            x       y       z     vdW  Elec       q    Type
REMARK                         _______ _______ _______ _____ _____    ______ ____
ROOT
ATOM      1  N   LIG    1        0.626   2.551  -2.410  0.00  0.00    -0.460 NA
ATOM      2  C   LIG    1       -0.457   3.077  -1.549  0.00  0.00    +0.170 C 
ATOM      3  C   LIG    1       -0.760   1.610  -1.217  0.00  0.00    -0.070 C 
ATOM      4  C   LIG    1       -0.014   1.092   0.012  0.00  0.00    +0.050 C 
ATOM      5  C   LIG    1       -0.722   1.597   1.274  0.00  0.00    +0.210 C 
ATOM      6  O   LIG    1       -2.099   1.209   1.227  0.00  0.00    -0.380 OA
ATOM      7  C   LIG    1       -2.838   1.777   0.144  0.00  0.00    +0.200 C 
ATOM      8  C   LIG    1       -2.251   1.283  -1.183  0.00  0.00    +0.010 C 
ATOM      9  C   LIG    1       -0.080   1.256  -2.546  0.00  0.00    +0.170 C 
ENDROOT
BRANCH   9  10
ATOM     10  C   LIG    1        0.829   0.057  -2.464  0.00  0.00    -0.060 A 
ATOM     11  C   LIG    1        2.107   0.192  -1.954  0.00  0.00    +0.040 A 
ATOM     12  C   LIG    1        2.939  -0.909  -1.874  0.00  0.00    +0.000 A 
ATOM     13  C   LIG    1        2.497  -2.143  -2.313  0.00  0.00    +0.000 A 
ATOM     14  C   LIG    1        1.221  -2.276  -2.828  0.00  0.00    +0.000 A 
ATOM     15  C   LIG    1        0.387  -1.177  -2.903  0.00  0.00    -0.010 A 
ENDBRANCH   9  10
BRANCH   1  16
ATOM     16  C   LIG    1        0.670   3.263  -3.694  0.00  0.00    +0.200 C 
BRANCH  16  24
ATOM     17  O   LIG    1        2.716  -1.661  -8.433  0.00  0.00    -0.510 OA
ATOM     18  C   LIG    1        2.979  -0.768  -7.655  0.00  0.00    +0.490 C 
ATOM     19  C   LIG    1        4.413  -0.483  -7.288  0.00  0.00    +0.300 C 
ATOM     20  O   LIG    1        4.571   0.912  -7.013  0.00  0.00    -0.300 OA
ATOM     21  C   LIG    1        3.637   1.486  -6.209  0.00  0.00    +0.080 A 
ATOM     22  C   LIG    1        3.980   2.521  -5.357  0.00  0.00    +0.030 A 
ATOM     23  C   LIG    1        3.015   3.097  -4.550  0.00  0.00    +0.040 A 
ATOM     24  C   LIG    1        1.713   2.634  -4.582  0.00  0.00    -0.070 A 
ATOM     25  C   LIG    1        1.363   1.600  -5.431  0.00  0.00    +0.020 A 
ATOM     26  C   LIG    1        2.322   1.023  -6.246  0.00  0.00    +0.100 A 
ATOM     27  N   LIG    1        1.989  -0.026  -7.114  0.00  0.00    -0.660 N 
ATOM     28  H   LIG    1        1.061  -0.215  -7.324  0.00  0.00    +0.420 HD
ENDBRANCH  16  24
ENDBRANCH   1  16
TORSDOF 3
