REMARK  Name = ZINCpk000004ATIT.0
REMARK                            x       y       z     vdW  Elec       q    Type
REMARK                         _______ _______ _______ _____ _____    ______ ____
ROOT
ATOM      1  C   LIG    1        0.035   1.258  -0.004  0.00  0.00    +0.110 A 
ATOM      2  C   LIG    1        1.249   1.923  -0.066  0.00  0.00    +0.160 A 
ATOM      3  C   LIG    1        1.280   3.306  -0.089  0.00  0.00    -0.690 A 
ATOM      4  C   LIG    1        0.102   4.028  -0.050  0.00  0.00    +0.130 A 
ATOM      5  C   LIG    1       -1.114   3.373   0.012  0.00  0.00    -0.030 A 
ATOM      6  C   LIG    1       -1.155   1.987   0.030  0.00  0.00    +0.140 A 
ENDROOT
BRANCH   6   7
ATOM      7  N   LIG    1       -2.384   1.321   0.087  0.00  0.00    -0.470 N 
ATOM      8  C   LIG    1       -3.513   2.276  -0.056  0.00  0.00    +0.190 C 
ATOM      9  C   LIG    1       -4.690   1.369  -0.495  0.00  0.00    +0.040 C 
ATOM     10  C   LIG    1       -4.008   0.345  -1.431  0.00  0.00    +0.020 C 
ATOM     11  C   LIG    1       -2.521   0.364  -1.032  0.00  0.00    +0.180 C 
ENDBRANCH   6   7
BRANCH   1  13
ATOM     12  C   LIG    1        0.915  -0.850  -0.674  0.00  0.00    +0.540 C 
ATOM     13  N   LIG    1        0.002  -0.142   0.019  0.00  0.00    -0.660 N 
ATOM     14  H   LIG    1       -0.679  -0.603   0.535  0.00  0.00    +0.420 HD
ATOM     15  O   LIG    1        1.816  -0.275  -1.255  0.00  0.00    -0.530 OA
BRANCH  12  17
ATOM     16  C   LIG    1        1.723  -3.015  -1.415  0.00  0.00    +0.160 C 
ATOM     17  C   LIG    1        0.822  -2.316  -0.730  0.00  0.00    -0.090 C 
ENDBRANCH  12  17
ENDBRANCH   1  13
BRANCH   3  18
ATOM     18  S   LIG    1        2.825   4.149  -0.167  0.00  0.00    +2.690 S 
ATOM     19  O   LIG    1        3.798   3.252   0.350  0.00  0.00    -0.950 OA
ATOM     20  O   LIG    1        2.602   5.447   0.367  0.00  0.00    -0.950 OA
BRANCH  18  21
ATOM     21  N   LIG    1        3.188   4.359  -1.769  0.00  0.00    -1.000 NA
ATOM     22  C   LIG    1        3.964   3.351  -2.509  0.00  0.00    +0.270 C 
ATOM     23  C   LIG    1        3.204   3.016  -3.802  0.00  0.00    +0.220 C 
ATOM     24  O   LIG    1        2.910   4.228  -4.501  0.00  0.00    -0.380 OA
ATOM     25  C   LIG    1        2.054   5.123  -3.786  0.00  0.00    +0.210 C 
ATOM     26  C   LIG    1        2.750   5.563  -2.493  0.00  0.00    +0.280 C 
ENDBRANCH  18  21
ENDBRANCH   3  18
TORSDOF 5
