REMARK  Name = ZINCqH0000000q9N.0
REMARK                            x       y       z     vdW  Elec       q    Type
REMARK                         _______ _______ _______ _____ _____    ______ ____
ROOT
ATOM      1  C   LIG    1       -2.515   3.870   0.044  0.00  0.00    +0.420 C 
ATOM      2  O   LIG    1       -2.526   5.082   0.050  0.00  0.00    -0.430 OA
ENDROOT
BRANCH   1   6
ATOM      3  C   LIG    1        1.178   1.782   0.000  0.00  0.00    -0.050 A 
ATOM      4  C   LIG    1       -0.013   1.076   0.008  0.00  0.00    +0.010 A 
ATOM      5  C   LIG    1       -1.217   1.747   0.017  0.00  0.00    +0.070 A 
ATOM      6  C   LIG    1       -1.234   3.146   0.029  0.00  0.00    -0.160 A 
ATOM      7  C   LIG    1       -0.027   3.852   0.022  0.00  0.00    +0.090 A 
ATOM      8  C   LIG    1        1.169   3.166   0.007  0.00  0.00    +0.010 A 
BRANCH   3   9
ATOM      9  C   LIG    1        2.489   1.041  -0.015  0.00  0.00    +0.080 C 
BRANCH   9  10
ATOM     10  C   LIG    1        2.920   0.796  -1.463  0.00  0.00    +0.260 C 
BRANCH  10  13
ATOM     11  C   LIG    1        6.083  -0.992  -2.667  0.00  0.00    +0.090 C 
ATOM     12  C   LIG    1        4.771  -0.251  -2.652  0.00  0.00    +0.510 C 
ATOM     13  N   LIG    1        4.195   0.075  -1.478  0.00  0.00    -0.740 N 
ATOM     14  H   LIG    1        4.625  -0.167  -0.643  0.00  0.00    +0.400 HD
ATOM     15  O   LIG    1        4.234   0.053  -3.696  0.00  0.00    -0.540 OA
ENDBRANCH  10  13
ENDBRANCH   9  10
ENDBRANCH   3   9
ENDBRANCH   1   6
BRANCH   1  16
ATOM     16  C   LIG    1       -3.813   3.104   0.053  0.00  0.00    +0.000 C 
ATOM     17  C   LIG    1       -4.202   2.744  -1.382  0.00  0.00    +0.100 C 
BRANCH  16  18
ATOM     18  S   LIG    1       -5.111   4.127   0.791  0.00  0.00    +0.020 S 
BRANCH  18  19
ATOM     19  C   LIG    1       -6.438   2.968   0.813  0.00  0.00    +0.210 A 
ATOM     20  C   LIG    1       -7.695   3.330   1.325  0.00  0.00    -0.260 A 
ATOM     21  S   LIG    1       -8.290   4.840   2.001  0.00  0.00    +0.170 S 
ATOM     22  C   LIG    1       -9.883   4.149   2.260  0.00  0.00    +0.040 A 
ATOM     23  C   LIG    1       -9.919   2.889   1.854  0.00  0.00    +0.030 A 
ATOM     24  C   LIG    1       -8.723   2.385   1.320  0.00  0.00    +0.190 A 
ATOM     25  N   LIG    1       -8.447   1.155   0.827  0.00  0.00    -0.500 NA
ATOM     26  C   LIG    1       -7.258   0.863   0.365  0.00  0.00    +0.530 A 
ATOM     27  N   LIG    1       -6.266   1.735   0.350  0.00  0.00    -0.520 NA
ENDBRANCH  18  19
ENDBRANCH  16  18
ENDBRANCH   1  16
TORSDOF 7
