REMARK  Name = ZINCkj00000vD3Tp.0
REMARK                            x       y       z     vdW  Elec       q    Type
REMARK                         _______ _______ _______ _____ _____    ______ ____
ROOT
ATOM      1  C   LIG    1        2.881   3.719   1.795  0.00  0.00    +0.180 C 
ATOM      2  C   LIG    1        3.890   4.024   0.686  0.00  0.00    +0.150 C 
ATOM      3  C   LIG    1        4.143   5.509   0.622  0.00  0.00    -0.090 A 
ATOM      4  C   LIG    1        4.745   6.032  -0.511  0.00  0.00    +0.040 A 
ATOM      5  C   LIG    1        4.995   7.387  -0.605  0.00  0.00    +0.050 A 
ATOM      6  C   LIG    1        4.643   8.225   0.437  0.00  0.00    +0.040 A 
ATOM      7  C   LIG    1        4.042   7.704   1.565  0.00  0.00    +0.050 A 
ATOM      8  C   LIG    1        3.789   6.344   1.661  0.00  0.00    -0.140 A 
ATOM      9  C   LIG    1        3.126   5.821   2.907  0.00  0.00    +0.340 C 
ATOM     10  N   LIG    1        3.327   4.375   3.033  0.00  0.00    -0.490 N 
ATOM     11  H   LIG    1        4.307   4.186   3.183  0.00  0.00    +0.440 HD
ATOM     12  H   LIG    1        2.791   4.025   3.813  0.00  0.00    +0.440 HD
ENDROOT
BRANCH   1  18
ATOM     13  C   LIG    1        0.701  -0.513   1.290  0.00  0.00    +0.150 C 
ATOM     14  C   LIG    1       -0.035  -0.001   0.051  0.00  0.00    +0.010 C 
ATOM     15  C   LIG    1       -0.058   1.530   0.065  0.00  0.00    +0.030 C 
ATOM     16  C   LIG    1        1.380   2.058   0.027  0.00  0.00    +0.270 C 
ATOM     17  N   LIG    1        2.135   1.455   1.134  0.00  0.00    -0.580 N 
ATOM     18  C   LIG    1        2.803   2.229   2.011  0.00  0.00    +0.510 C 
ATOM     19  O   LIG    1        3.342   1.728   2.975  0.00  0.00    -0.520 OA
ATOM     20  C   LIG    1        2.147  -0.008   1.266  0.00  0.00    +0.310 C 
BRANCH  13  22
ATOM     21  C   LIG    1       -0.429  -2.518   1.960  0.00  0.00    +0.230 C 
ATOM     22  O   LIG    1        0.695  -1.942   1.292  0.00  0.00    -0.380 OA
ENDBRANCH  13  22
ENDBRANCH   1  18
TORSDOF 2
