REMARK  Name = ZINCpe000000XTge.0
REMARK                            x       y       z     vdW  Elec       q    Type
REMARK                         _______ _______ _______ _____ _____    ______ ____
ROOT
ATOM      1  N   LIG    1       -0.725   6.106  -1.393  0.00  0.00    -0.990 NA
ATOM      2  C   LIG    1        0.107   6.344  -2.580  0.00  0.00    +0.300 C 
ATOM      3  C   LIG    1       -0.438   5.487  -3.735  0.00  0.00    +0.270 C 
ATOM      4  N   LIG    1       -1.888   5.700  -3.833  0.00  0.00    -0.610 N 
ATOM      5  C   LIG    1       -2.720   5.468  -2.644  0.00  0.00    +0.280 C 
ATOM      6  C   LIG    1       -2.446   6.102  -4.992  0.00  0.00    +0.520 C 
ATOM      7  O   LIG    1       -3.644   6.275  -5.061  0.00  0.00    -0.510 OA
ATOM      8  C   LIG    1       -2.176   6.320  -1.491  0.00  0.00    +0.290 C 
ENDROOT
BRANCH   6   9
ATOM      9  C   LIG    1       -1.580   6.337  -6.203  0.00  0.00    +0.160 C 
ATOM     10  C   LIG    1       -0.950   5.008  -6.662  0.00  0.00    +0.020 C 
ATOM     11  C   LIG    1       -1.439   4.840  -8.121  0.00  0.00    +0.020 C 
ATOM     12  C   LIG    1       -1.817   6.292  -8.507  0.00  0.00    +0.210 C 
ATOM     13  O   LIG    1       -2.382   6.830  -7.289  0.00  0.00    -0.350 OA
ENDBRANCH   6   9
BRANCH   1  14
ATOM     14  S   LIG    1       -0.040   5.612   0.032  0.00  0.00    +2.680 S 
ATOM     15  O   LIG    1        1.320   6.021  -0.014  0.00  0.00    -0.940 OA
ATOM     16  O   LIG    1       -0.935   6.003   1.064  0.00  0.00    -0.940 OA
BRANCH  14  22
ATOM     17  C   LIG    1       -2.512   0.976   0.019  0.00  0.00    +0.110 C 
ATOM     18  C   LIG    1       -1.217   1.748   0.017  0.00  0.00    -0.050 A 
ATOM     19  C   LIG    1       -0.013   1.076   0.008  0.00  0.00    +0.080 A 
ATOM     20  C   LIG    1        1.177   1.782   0.000  0.00  0.00    +0.050 A 
ATOM     21  C   LIG    1        1.168   3.166   0.007  0.00  0.00    +0.130 A 
ATOM     22  C   LIG    1       -0.030   3.850   0.023  0.00  0.00    -0.640 A 
ATOM     23  C   LIG    1       -1.234   3.144   0.030  0.00  0.00    +0.070 A 
BRANCH  23  24
ATOM     24  C   LIG    1       -2.481   3.848   0.046  0.00  0.00    +0.220 C 
ATOM     25  N   LIG    1       -3.470   4.406   0.058  0.00  0.00    -0.350 NA
ENDBRANCH  23  24
ENDBRANCH  14  22
ENDBRANCH   1  14
TORSDOF 4
