REMARK  Name = ZINCvU0000000Aa4.0
REMARK                            x       y       z     vdW  Elec       q    Type
REMARK                         _______ _______ _______ _____ _____    ______ ____
ROOT
ATOM      1  N   LIG    1       -0.162  -1.309   2.541  0.00  0.00    -0.520 N 
ATOM      2  C   LIG    1       -1.227  -2.065   2.168  0.00  0.00    +0.610 A 
ATOM      3  N   LIG    1       -1.731  -2.977   2.938  0.00  0.00    -0.500 NA
ATOM      4  C   LIG    1       -1.224  -3.225   4.188  0.00  0.00    +0.180 A 
ATOM      5  C   LIG    1       -0.136  -2.470   4.617  0.00  0.00    -0.340 A 
ATOM      6  S   LIG    1        0.330  -2.967   6.238  0.00  0.00    +0.250 S 
ATOM      7  C   LIG    1       -0.950  -4.169   6.285  0.00  0.00    -0.110 A 
ATOM      8  C   LIG    1       -1.646  -4.155   5.138  0.00  0.00    +0.040 A 
ATOM      9  C   LIG    1        0.401  -1.484   3.754  0.00  0.00    +0.570 A 
ATOM     10  O   LIG    1        1.354  -0.807   4.101  0.00  0.00    -0.530 OA
ENDROOT
BRANCH   7  11
ATOM     11  C   LIG    1       -1.220  -5.070   7.425  0.00  0.00    -0.010 A 
ATOM     12  C   LIG    1       -2.269  -5.988   7.360  0.00  0.00    +0.050 A 
ATOM     13  C   LIG    1       -2.513  -6.830   8.425  0.00  0.00    +0.060 A 
ATOM     14  C   LIG    1       -1.727  -6.757   9.562  0.00  0.00    -0.080 A 
ATOM     15  C   LIG    1       -0.689  -5.844   9.636  0.00  0.00    +0.060 A 
ATOM     16 BR   LIG    1       -2.074  -7.908  11.022  0.00  0.00    -0.040 Br
ATOM     17  C   LIG    1       -0.431  -5.001   8.575  0.00  0.00    +0.030 A 
ENDBRANCH   7  11
BRANCH   1  18
ATOM     18  C   LIG    1        0.373  -0.296   1.627  0.00  0.00    +0.210 C 
ATOM     19  C   LIG    1        0.839  -0.970   0.335  0.00  0.00    +0.080 C 
BRANCH  18  20
ATOM     20  C   LIG    1       -0.703   0.711   1.308  0.00  0.00    +0.420 C 
ATOM     21  O   LIG    1       -1.863   0.460   1.563  0.00  0.00    -0.440 OA
BRANCH  20  26
ATOM     22  C   LIG    1       -0.469   3.995  -0.193  0.00  0.00    -0.260 A 
ATOM     23  C   LIG    1        0.856   3.582  -0.172  0.00  0.00    +0.130 A 
ATOM     24  N   LIG    1        0.913   2.357   0.370  0.00  0.00    -0.520 N 
ATOM     25  H   LIG    1        1.723   1.840   0.502  0.00  0.00    +0.420 HD
ATOM     26  C   LIG    1       -0.360   1.948   0.711  0.00  0.00    -0.100 A 
ATOM     27  C   LIG    1        2.033   4.377  -0.673  0.00  0.00    +0.160 C 
ATOM     28  C   LIG    1       -1.239   2.949   0.365  0.00  0.00    -0.000 A 
ATOM     29  C   LIG    1       -2.735   2.934   0.547  0.00  0.00    +0.140 C 
BRANCH  22  31
ATOM     30  C   LIG    1       -1.169   6.435   0.236  0.00  0.00    +0.070 C 
ATOM     31  C   LIG    1       -0.975   5.273  -0.704  0.00  0.00    +0.430 C 
ATOM     32  O   LIG    1       -1.236   5.395  -1.882  0.00  0.00    -0.450 OA
ENDBRANCH  22  31
ENDBRANCH  20  26
ENDBRANCH  18  20
ENDBRANCH   1  18
TORSDOF 5
