REMARK  Name = ZINCqH0000032ek5.0
REMARK                            x       y       z     vdW  Elec       q    Type
REMARK                         _______ _______ _______ _____ _____    ______ ____
ROOT
ATOM      1  C   LIG    1       -4.559   4.071   7.862  0.00  0.00    +0.210 C 
ATOM      2  C   LIG    1       -3.965   3.776   9.244  0.00  0.00    +0.220 C 
ATOM      3  O   LIG    1       -2.542   3.910   9.182  0.00  0.00    -0.380 OA
ATOM      4  C   LIG    1       -1.905   2.987   8.296  0.00  0.00    +0.220 C 
ATOM      5  C   LIG    1       -2.395   3.237   6.869  0.00  0.00    +0.240 C 
ATOM      6  N   LIG    1       -3.866   3.233   6.870  0.00  0.00    -0.630 N 
ATOM      7  C   LIG    1       -4.559   2.481   5.992  0.00  0.00    +0.710 C 
ATOM      8  N   LIG    1       -3.907   1.645   5.160  0.00  0.00    -0.740 N 
ATOM      9  H   LIG    1       -2.937   1.637   5.142  0.00  0.00    +0.390 HD
ATOM     10  O   LIG    1       -5.771   2.557   5.951  0.00  0.00    -0.570 OA
ENDROOT
BRANCH   8  11
ATOM     11  C   LIG    1       -4.663   0.747   4.284  0.00  0.00    +0.310 C 
ATOM     12  C   LIG    1       -5.022  -0.529   5.048  0.00  0.00    +0.040 C 
BRANCH  11  13
ATOM     13  C   LIG    1       -3.824   0.393   3.083  0.00  0.00    -0.060 A 
ATOM     14  C   LIG    1       -2.446   0.447   3.164  0.00  0.00    +0.030 A 
ATOM     15  C   LIG    1       -1.671   0.122   2.060  0.00  0.00    +0.070 A 
ATOM     16  C   LIG    1       -2.285  -0.259   0.873  0.00  0.00    +0.060 A 
ATOM     17  O   LIG    1       -1.544  -0.586  -0.221  0.00  0.00    -0.300 OA
ATOM     18  C   LIG    1       -0.175  -0.166  -0.220  0.00  0.00    +0.230 C 
ATOM     19  C   LIG    1        0.432  -0.508   1.147  0.00  0.00    +0.230 C 
ATOM     20  C   LIG    1       -3.669  -0.310   0.797  0.00  0.00    +0.070 A 
ATOM     21  O   LIG    1       -0.314   0.184   2.155  0.00  0.00    -0.300 OA
ATOM     22  C   LIG    1       -4.436   0.015   1.901  0.00  0.00    -0.080 A 
ATOM     23 BR   LIG    1       -6.322  -0.055   1.794  0.00  0.00    -0.020 Br
ENDBRANCH  11  13
ENDBRANCH   8  11
BRANCH   1  24
ATOM     24  C   LIG    1       -6.053   3.740   7.862  0.00  0.00    +0.060 C 
BRANCH  24  26
ATOM     25  C   LIG    1       -6.681   6.054   8.563  0.00  0.00    +0.010 C 
ATOM     26  C   LIG    1       -6.760   4.572   8.934  0.00  0.00    -0.040 C 
ATOM     27  C   LIG    1       -8.227   4.146   9.025  0.00  0.00    +0.020 C 
ENDBRANCH  24  26
ENDBRANCH   1  24
TORSDOF 4
