REMARK  Name = ZINCtV000002AyAl.0
REMARK                            x       y       z     vdW  Elec       q    Type
REMARK                         _______ _______ _______ _____ _____    ______ ____
ROOT
ATOM      1  C   LIG    1        0.622  -2.712  -0.031  0.00  0.00    +0.100 A 
ATOM      2  C   LIG    1        1.637  -1.775  -0.043  0.00  0.00    +0.000 A 
ATOM      3  C   LIG    1        1.325  -0.418  -0.037  0.00  0.00    -0.090 A 
ATOM      4  C   LIG    1       -0.011   0.003  -0.019  0.00  0.00    +0.070 A 
ATOM      5  O   LIG    1       -0.035   1.355  -0.018  0.00  0.00    -0.190 OA
ATOM      6  C   LIG    1        1.213   1.873  -0.034  0.00  0.00    +0.090 A 
ATOM      7  C   LIG    1        1.683   3.181  -0.039  0.00  0.00    +0.020 A 
ATOM      8  C   LIG    1        3.040   3.428  -0.057  0.00  0.00    +0.060 A 
ATOM      9  C   LIG    1        3.947   2.381  -0.070  0.00  0.00    -0.010 A 
ATOM     10  C   LIG    1        3.500   1.076  -0.065  0.00  0.00    +0.070 A 
ATOM     11  C   LIG    1       -1.024  -0.948  -0.006  0.00  0.00    +0.080 A 
ATOM     12  C   LIG    1        2.133   0.816  -0.047  0.00  0.00    -0.130 A 
ATOM     13  C   LIG    1       -0.711  -2.296  -0.013  0.00  0.00    +0.150 A 
ENDROOT
BRANCH  13  14
ATOM     14  N   LIG    1       -1.736  -3.249   0.000  0.00  0.00    -0.650 N 
ATOM     15  H   LIG    1       -1.629  -4.083  -0.482  0.00  0.00    +0.430 HD
ATOM     16  C   LIG    1       -2.873  -3.006   0.682  0.00  0.00    +0.610 C 
ATOM     17  O   LIG    1       -3.042  -1.927   1.218  0.00  0.00    -0.490 OA
BRANCH  16  18
ATOM     18  C   LIG    1       -3.908  -4.044   0.778  0.00  0.00    -0.040 A 
ATOM     19  C   LIG    1       -5.089  -3.912   1.436  0.00  0.00    -0.060 A 
ATOM     20  C   LIG    1       -5.792  -5.184   1.266  0.00  0.00    -0.130 A 
ATOM     21  C   LIG    1       -7.027  -5.678   1.692  0.00  0.00    +0.090 A 
ATOM     22  C   LIG    1       -7.402  -6.947   1.354  0.00  0.00    +0.020 A 
ATOM     23  C   LIG    1       -6.564  -7.749   0.591  0.00  0.00    +0.080 A 
ATOM     24  C   LIG    1       -5.340  -7.281   0.161  0.00  0.00    -0.030 A 
ATOM     25 CL   LIG    1       -4.305  -8.297  -0.792  0.00  0.00    -0.050 Cl
ATOM     26  C   LIG    1       -4.937  -5.991   0.493  0.00  0.00    +0.080 A 
ATOM     27  C   LIG    1       -5.576  -2.701   2.190  0.00  0.00    +0.140 C 
ATOM     28  O   LIG    1       -3.832  -5.271   0.221  0.00  0.00    -0.170 OA
ENDBRANCH  16  18
ENDBRANCH  13  14
BRANCH   1  30
ATOM     29  C   LIG    1        2.306  -4.393  -0.054  0.00  0.00    +0.250 C 
ATOM     30  O   LIG    1        0.921  -4.039  -0.036  0.00  0.00    -0.310 OA
ENDBRANCH   1  30
TORSDOF 3
