REMARK  Name = ZINCpk00000ebpq9.0
REMARK                            x       y       z     vdW  Elec       q    Type
REMARK                         _______ _______ _______ _____ _____    ______ ____
ROOT
ATOM      1  C   LIG    1       -0.210   1.218  -2.368  0.00  0.00    +0.510 C 
ATOM      2  O   LIG    1        0.790   0.531  -2.429  0.00  0.00    -0.490 OA
ENDROOT
BRANCH   1   5
ATOM      3  C   LIG    1       -0.972   1.738  -6.006  0.00  0.00    -0.690 A 
ATOM      4  C   LIG    1       -0.346   1.316  -4.852  0.00  0.00    +0.230 A 
ATOM      5  C   LIG    1       -0.871   1.671  -3.607  0.00  0.00    -0.140 A 
ATOM      6  C   LIG    1       -2.021   2.461  -3.540  0.00  0.00    +0.170 A 
ATOM      7  C   LIG    1       -2.634   2.881  -4.702  0.00  0.00    +0.020 A 
ATOM      8  C   LIG    1       -2.112   2.521  -5.933  0.00  0.00    +0.080 A 
ATOM      9 CL   LIG    1       -2.890   3.053  -7.391  0.00  0.00    -0.020 Cl
BRANCH   3  10
ATOM     10  S   LIG    1       -0.316   1.285  -7.578  0.00  0.00    +2.700 S 
ATOM     11  O   LIG    1        0.816   0.465  -7.319  0.00  0.00    -0.950 OA
ATOM     12  O   LIG    1       -0.251   2.479  -8.345  0.00  0.00    -0.940 OA
BRANCH  10  13
ATOM     13  N   LIG    1       -1.436   0.314  -8.316  0.00  0.00    -1.250 NA
ATOM     14  H   LIG    1       -1.261  -0.043  -9.200  0.00  0.00    +0.430 HD
ATOM     15  H   LIG    1       -2.268   0.104  -7.864  0.00  0.00    +0.420 HD
ENDBRANCH  10  13
ENDBRANCH   3  10
ENDBRANCH   1   5
BRANCH   1  16
ATOM     16  O   LIG    1       -0.715   1.567  -1.168  0.00  0.00    -0.330 OA
BRANCH  16  17
ATOM     17  C   LIG    1       -0.013   1.086   0.008  0.00  0.00    +0.270 C 
BRANCH  17  18
ATOM     18  C   LIG    1       -0.718   1.572   1.248  0.00  0.00    +0.520 C 
ATOM     19  N   LIG    1       -0.242   1.246   2.466  0.00  0.00    -0.720 N 
ATOM     20  H   LIG    1        0.555   0.699   2.544  0.00  0.00    +0.410 HD
ATOM     21  O   LIG    1       -1.714   2.256   1.150  0.00  0.00    -0.510 OA
BRANCH  19  22
ATOM     22  C   LIG    1       -0.927   1.718   3.671  0.00  0.00    +0.320 C 
BRANCH  22  23
ATOM     23  C   LIG    1       -0.198   1.219   4.892  0.00  0.00    -0.120 A 
ATOM     24  C   LIG    1       -0.546   0.006   5.457  0.00  0.00    +0.020 A 
ATOM     25  C   LIG    1        0.126  -0.454   6.574  0.00  0.00    +0.010 A 
ATOM     26  C   LIG    1        1.138   0.304   7.132  0.00  0.00    +0.010 A 
ATOM     27  C   LIG    1        1.482   1.519   6.571  0.00  0.00    +0.010 A 
ATOM     28  C   LIG    1        0.814   1.977   5.451  0.00  0.00    +0.020 A 
ENDBRANCH  22  23
ENDBRANCH  19  22
ENDBRANCH  17  18
ENDBRANCH  16  17
ENDBRANCH   1  16
TORSDOF 8
