REMARK  Name = ZINCrH000004nqT0.1
REMARK                            x       y       z     vdW  Elec       q    Type
REMARK                         _______ _______ _______ _____ _____    ______ ____
ROOT
ATOM      1  N   LIG    1       -1.755  -0.260   0.008  0.00  0.00    -0.740 N 
ATOM      2  H   LIG    1       -2.655   0.095   0.081  0.00  0.00    +0.400 HD
ATOM      3  C   LIG    1       -0.762   0.515  -0.471  0.00  0.00    +0.710 C 
ATOM      4  N   LIG    1       -1.019   1.782  -0.850  0.00  0.00    -0.730 N 
ATOM      5  H   LIG    1       -1.920   2.136  -0.781  0.00  0.00    +0.410 HD
ATOM      6  O   LIG    1        0.366   0.070  -0.563  0.00  0.00    -0.570 OA
ENDROOT
BRANCH   1   7
ATOM      7  C   LIG    1       -1.475  -1.638   0.420  0.00  0.00    +0.310 C 
BRANCH   7   8
ATOM      8  C   LIG    1       -2.734  -2.251   1.036  0.00  0.00    +0.170 C 
BRANCH   8  13
ATOM      9  C   LIG    1       -4.428   0.147   3.415  0.00  0.00    +0.130 A 
ATOM     10  C   LIG    1       -3.758  -0.122   4.599  0.00  0.00    -0.080 A 
ATOM     11  C   LIG    1       -2.760  -1.078   4.626  0.00  0.00    +0.050 A 
ATOM     12  C   LIG    1       -2.430  -1.766   3.473  0.00  0.00    +0.000 A 
ATOM     13  C   LIG    1       -3.096  -1.500   2.291  0.00  0.00    -0.040 A 
ATOM     14  C   LIG    1       -4.091  -0.542   2.258  0.00  0.00    -0.020 A 
BRANCH   9  16
ATOM     15  C   LIG    1       -5.698   1.760   4.613  0.00  0.00    +0.250 C 
ATOM     16  O   LIG    1       -5.409   1.087   3.386  0.00  0.00    -0.320 OA
ENDBRANCH   9  16
ENDBRANCH   8  13
BRANCH   8  17
ATOM     17  N   LIG    1       -2.481  -3.660   1.366  0.00  0.00    -0.530 NA
ATOM     18  C   LIG    1       -2.020  -4.403   0.184  0.00  0.00    +0.200 C 
ATOM     19  C   LIG    1       -3.674  -4.287   1.949  0.00  0.00    +0.190 C 
ENDBRANCH   8  17
ENDBRANCH   7   8
ENDBRANCH   1   7
BRANCH   4  20
ATOM     20  C   LIG    1        0.060   2.625  -1.372  0.00  0.00    +0.270 C 
BRANCH  20  21
ATOM     21  C   LIG    1       -0.530   3.710  -2.274  0.00  0.00    -0.010 C 
ATOM     22  C   LIG    1       -1.559   4.549  -1.488  0.00  0.00    +0.020 C 
ATOM     23  C   LIG    1       -2.671   4.853  -2.522  0.00  0.00    +0.020 C 
ATOM     24  C   LIG    1       -2.757   3.534  -3.330  0.00  0.00    +0.000 C 
ATOM     25  C   LIG    1       -1.292   3.065  -3.445  0.00  0.00    +0.020 C 
ENDBRANCH  20  21
BRANCH  20  26
ATOM     26  C   LIG    1        0.805   3.280  -0.207  0.00  0.00    +0.430 C 
ATOM     27  F   LIG    1       -0.103   3.988   0.587  0.00  0.00    -0.180 F 
ATOM     28  F   LIG    1        1.772   4.158  -0.707  0.00  0.00    -0.180 F 
ATOM     29  F   LIG    1        1.426   2.291   0.564  0.00  0.00    -0.170 F 
ENDBRANCH  20  26
ENDBRANCH   4  20
TORSDOF 8
