REMARK  Name = ZINCc70000004gZs.0
REMARK                            x       y       z     vdW  Elec       q    Type
REMARK                         _______ _______ _______ _____ _____    ______ ____
ROOT
ATOM      1  C   LIG    1       -1.330   1.944   0.019  0.00  0.00    -0.010 C 
ATOM      2  C   LIG    1       -2.555   1.015   0.020  0.00  0.00    +0.120 C 
ATOM      3  C   LIG    1       -3.199   1.994   1.016  0.00  0.00    +0.050 C 
ATOM      4  C   LIG    1       -1.771   2.398   1.421  0.00  0.00    +0.060 C 
ENDROOT
BRANCH   1   8
ATOM      5  C   LIG    1        2.422   1.183  -0.015  0.00  0.00    +0.280 C 
ATOM      6  N   LIG    1        1.143   1.898   0.001  0.00  0.00    -0.730 N 
ATOM      7  H   LIG    1        1.130   2.868   0.007  0.00  0.00    +0.400 HD
ATOM      8  C   LIG    1       -0.014   1.209   0.009  0.00  0.00    +0.520 C 
ATOM      9  O   LIG    1        0.002  -0.004   0.002  0.00  0.00    -0.530 OA
ENDBRANCH   1   8
BRANCH   3  10
ATOM     10  C   LIG    1       -3.989   3.120   0.345  0.00  0.00    +0.390 C 
ATOM     11  F   LIG    1       -3.135   3.863  -0.478  0.00  0.00    -0.190 F 
ATOM     12  F   LIG    1       -4.534   3.956   1.326  0.00  0.00    -0.200 F 
ENDBRANCH   3  10
BRANCH   3  13
ATOM     13  O   LIG    1       -3.929   1.350   2.061  0.00  0.00    -0.530 OA
ATOM     14  H   LIG    1       -4.336   1.961   2.691  0.00  0.00    +0.390 HD
ENDBRANCH   3  13
TORSDOF 3
