REMARK  Name = ZINCnE000001Qa2R.0
REMARK                            x       y       z     vdW  Elec       q    Type
REMARK                         _______ _______ _______ _____ _____    ______ ____
ROOT
ATOM      1  S   LIG    1        3.806   3.078  -0.017  0.00  0.00    +2.600 S 
ATOM      2  O   LIG    1        3.880   2.413  -1.270  0.00  0.00    -1.020 OA
ATOM      3  O   LIG    1        3.902   2.401   1.229  0.00  0.00    -1.020 OA
ENDROOT
BRANCH   1   4
ATOM      4  C   LIG    1        5.082   4.293  -0.022  0.00  0.00    -0.580 A 
ATOM      5  C   LIG    1        5.576   4.771  -1.222  0.00  0.00    +0.110 A 
ATOM      6  C   LIG    1        6.574   5.728  -1.229  0.00  0.00    +0.040 A 
ATOM      7  C   LIG    1        7.088   6.201  -0.037  0.00  0.00    -0.020 A 
ATOM      8  C   LIG    1        6.598   5.719   1.168  0.00  0.00    +0.070 A 
ATOM      9  C   LIG    1        5.593   4.763   1.173  0.00  0.00    +0.130 A 
BRANCH   8  10
ATOM     10  O   LIG    1        7.102   6.182   2.342  0.00  0.00    -0.310 OA
BRANCH  10  11
ATOM     11  C   LIG    1        8.135   7.166   2.260  0.00  0.00    +0.600 C 
ATOM     12  F   LIG    1        9.228   6.638   1.564  0.00  0.00    -0.170 F 
ATOM     13  F   LIG    1        8.536   7.529   3.551  0.00  0.00    -0.130 F 
ATOM     14  F   LIG    1        7.654   8.294   1.587  0.00  0.00    -0.170 F 
ENDBRANCH  10  11
ENDBRANCH   8  10
ENDBRANCH   1   4
BRANCH   1  15
ATOM     15  N   LIG    1        2.361   3.885   0.000  0.00  0.00    -1.070 NA
BRANCH  15  21
ATOM     16  C   LIG    1       -2.564   3.861   0.046  0.00  0.00    +0.090 C 
ATOM     17  C   LIG    1       -1.245   3.132   0.030  0.00  0.00    -0.080 A 
ATOM     18  C   LIG    1       -1.220   1.749   0.017  0.00  0.00    -0.100 A 
ATOM     19  C   LIG    1       -0.013   1.076   0.008  0.00  0.00    +0.030 A 
ATOM     20  C   LIG    1        1.176   1.782   0.000  0.00  0.00    -0.160 A 
ATOM     21  C   LIG    1        1.159   3.169   0.008  0.00  0.00    +0.260 A 
ATOM     22  C   LIG    1       -0.059   3.846   0.022  0.00  0.00    +0.030 A 
BRANCH  22  23
ATOM     23  O   LIG    1       -0.082   5.206   0.030  0.00  0.00    -0.480 OA
ATOM     24  H   LIG    1       -0.097   5.604  -0.851  0.00  0.00    +0.360 HD
ENDBRANCH  22  23
ENDBRANCH  15  21
ENDBRANCH   1  15
TORSDOF 6
