REMARK  Name = ZINCrH000004tmMB.0
REMARK                            x       y       z     vdW  Elec       q    Type
REMARK                         _______ _______ _______ _____ _____    ______ ____
ROOT
ATOM      1  C   LIG    1       -1.367   7.650  -0.172  0.00  0.00    +0.040 C 
ATOM      2  C   LIG    1       -0.734   8.296   1.064  0.00  0.00    +0.070 C 
ATOM      3  C   LIG    1       -0.885   9.816   0.973  0.00  0.00    +0.220 C 
ATOM      4  N   LIG    1       -2.310  10.164   0.892  0.00  0.00    -0.480 N 
ATOM      5  C   LIG    1       -2.928   9.594  -0.312  0.00  0.00    +0.230 C 
ATOM      6  C   LIG    1       -2.837   8.067  -0.260  0.00  0.00    +0.070 C 
ENDROOT
BRANCH   4   7
ATOM      7  C   LIG    1       -2.490  11.541   0.940  0.00  0.00    +0.340 A 
ATOM      8  C   LIG    1       -1.974  12.267   2.009  0.00  0.00    -0.040 A 
ATOM      9  C   LIG    1       -2.161  13.637   2.044  0.00  0.00    +0.150 A 
ATOM     10  C   LIG    1       -2.858  14.238   1.005  0.00  0.00    -0.270 A 
ATOM     11  C   LIG    1       -3.343  13.456  -0.025  0.00  0.00    +0.360 A 
ATOM     12  N   LIG    1       -3.146  12.152  -0.035  0.00  0.00    -0.520 NA
BRANCH  10  13
ATOM     13  C   LIG    1       -3.085  15.728   1.001  0.00  0.00    +0.520 C 
ATOM     14  F   LIG    1       -3.155  16.192   2.318  0.00  0.00    -0.180 F 
ATOM     15  F   LIG    1       -4.284  16.016   0.341  0.00  0.00    -0.170 F 
ATOM     16  F   LIG    1       -2.026  16.359   0.339  0.00  0.00    -0.180 F 
ENDBRANCH  10  13
ENDBRANCH   4   7
BRANCH   1  17
ATOM     17  C   LIG    1       -1.274   6.150  -0.059  0.00  0.00    +0.470 C 
ATOM     18  O   LIG    1       -2.281   5.482  -0.050  0.00  0.00    -0.480 OA
BRANCH  17  19
ATOM     19  O   LIG    1       -0.073   5.556   0.031  0.00  0.00    -0.290 OA
BRANCH  19  23
ATOM     20  C   LIG    1       -0.014   1.428  -0.039  0.00  0.00    -0.020 A 
ATOM     21  C   LIG    1        0.308   2.114   1.136  0.00  0.00    +0.090 A 
ATOM     22  C   LIG    1        0.292   3.491   1.153  0.00  0.00    +0.030 A 
ATOM     23  C   LIG    1       -0.054   4.199   0.008  0.00  0.00    +0.110 A 
ATOM     24  C   LIG    1       -0.380   3.521  -1.160  0.00  0.00    +0.010 A 
ATOM     25  C   LIG    1       -0.361   2.143  -1.188  0.00  0.00    +0.090 A 
BRANCH  20  27
ATOM     26  N   LIG    1        0.021  -1.139  -0.081  0.00  0.00    -0.400 NA
ATOM     27  C   LIG    1        0.006  -0.003  -0.062  0.00  0.00    +0.250 C 
ENDBRANCH  20  27
ENDBRANCH  19  23
ENDBRANCH  17  19
ENDBRANCH   1  17
TORSDOF 6
