REMARK  Name = ZINCrH000004jkPU.0
REMARK                            x       y       z     vdW  Elec       q    Type
REMARK                         _______ _______ _______ _____ _____    ______ ____
ROOT
ATOM      1  C   LIG    1        1.173   2.087  -0.009  0.00  0.00    +0.160 A 
ATOM      2  C   LIG    1        0.008   1.375   0.255  0.00  0.00    -0.010 A 
ATOM      3  C   LIG    1        0.022  -0.003   0.238  0.00  0.00    +0.030 A 
ATOM      4  C   LIG    1        1.208  -0.684  -0.045  0.00  0.00    -0.030 A 
ATOM      5  C   LIG    1        2.376   0.034  -0.309  0.00  0.00    +0.090 A 
ATOM      6  C   LIG    1        2.355   1.411  -0.290  0.00  0.00    +0.040 A 
ENDROOT
BRANCH   4   7
ATOM      7  C   LIG    1        1.227  -2.162  -0.064  0.00  0.00    +0.220 A 
ATOM      8  N   LIG    1        2.132  -2.929  -0.635  0.00  0.00    -0.280 NA
ATOM      9  N   LIG    1        1.836  -4.167  -0.446  0.00  0.00    -0.290 NA
ATOM     10  C   LIG    1        0.736  -4.260   0.247  0.00  0.00    +0.190 A 
ATOM     11  C   LIG    1        0.050  -5.523   0.702  0.00  0.00    +0.150 C 
ATOM     12  C   LIG    1       -1.448  -5.415   0.401  0.00  0.00    +0.020 C 
ATOM     13  C   LIG    1       -2.161  -4.753   1.575  0.00  0.00    +0.020 C 
ATOM     14  C   LIG    1       -1.255  -3.716   2.239  0.00  0.00    +0.030 C 
ATOM     15  C   LIG    1       -0.904  -2.617   1.231  0.00  0.00    +0.290 C 
ATOM     16  N   LIG    1        0.307  -2.995   0.504  0.00  0.00    -0.470 N 
ENDBRANCH   4   7
BRANCH   1  18
ATOM     17  C   LIG    1        2.221   4.165   0.472  0.00  0.00    +0.610 C 
ATOM     18  N   LIG    1        1.155   3.483   0.010  0.00  0.00    -0.660 N 
ATOM     19  H   LIG    1        0.375   3.963  -0.311  0.00  0.00    +0.420 HD
ATOM     20  O   LIG    1        3.230   3.568   0.797  0.00  0.00    -0.500 OA
BRANCH  17  26
ATOM     21  C   LIG    1        2.533   6.645  -0.417  0.00  0.00    +0.060 A 
ATOM     22  N   LIG    1        2.307   7.792   0.153  0.00  0.00    -0.350 NA
ATOM     23  O   LIG    1        1.885   7.669   1.277  0.00  0.00    +0.100 OA
ATOM     24  C   LIG    1        1.751   6.395   1.651  0.00  0.00    +0.030 A 
ATOM     25  C   LIG    1        1.247   5.892   2.979  0.00  0.00    +0.210 C 
ATOM     26  C   LIG    1        2.165   5.633   0.586  0.00  0.00    -0.260 A 
BRANCH  21  28
ATOM     27  C   LIG    1        1.887   6.310  -2.787  0.00  0.00    +0.040 C 
ATOM     28  C   LIG    1        3.059   6.404  -1.808  0.00  0.00    +0.130 C 
ENDBRANCH  21  28
ENDBRANCH  17  26
ENDBRANCH   1  18
TORSDOF 4
