REMARK  Name = ZINCqH0000006WWx.2
REMARK                            x       y       z     vdW  Elec       q    Type
REMARK                         _______ _______ _______ _____ _____    ______ ____
ROOT
ATOM      1  C   LIG    1       -6.412  -5.431  -0.770  0.00  0.00    +0.100 A 
ATOM      2  C   LIG    1       -5.324  -5.707   0.038  0.00  0.00    -0.030 A 
ATOM      3  C   LIG    1       -4.194  -4.904  -0.008  0.00  0.00    -0.060 A 
ATOM      4  C   LIG    1       -4.151  -3.824  -0.865  0.00  0.00    -0.080 A 
ATOM      5  C   LIG    1       -2.943  -2.927  -0.953  0.00  0.00    +0.230 C 
ATOM      6  N   LIG    1       -2.085  -3.105   0.222  0.00  0.00    -0.530 NA
ATOM      7  C   LIG    1       -1.772  -4.530   0.414  0.00  0.00    +0.170 C 
ATOM      8  C   LIG    1       -5.241  -3.542  -1.676  0.00  0.00    -0.040 A 
ATOM      9  C   LIG    1       -3.036  -5.243   0.895  0.00  0.00    +0.100 C 
ATOM     10  C   LIG    1       -6.370  -4.339  -1.633  0.00  0.00    +0.100 A 
ENDROOT
BRANCH   1  12
ATOM     11  C   LIG    1       -7.488  -7.323   0.188  0.00  0.00    +0.240 C 
ATOM     12  O   LIG    1       -7.518  -6.222  -0.722  0.00  0.00    -0.310 OA
ENDBRANCH   1  12
BRANCH  10  13
ATOM     13  O   LIG    1       -7.436  -4.058  -2.431  0.00  0.00    -0.310 OA
ATOM     14  C   LIG    1       -7.320  -2.922  -3.290  0.00  0.00    +0.230 C 
ENDBRANCH  10  13
BRANCH   6  15
ATOM     15  C   LIG    1       -0.856  -2.308   0.102  0.00  0.00    +0.210 C 
BRANCH  15  16
ATOM     16  C   LIG    1       -1.209  -0.820   0.131  0.00  0.00    +0.070 C 
BRANCH  16  17
ATOM     17  C   LIG    1        0.051  -0.003   0.007  0.00  0.00    +0.520 C 
ATOM     18  N   LIG    1       -0.016   1.344   0.009  0.00  0.00    -0.670 N 
ATOM     19  H   LIG    1       -0.879   1.786   0.019  0.00  0.00    +0.410 HD
ATOM     20  O   LIG    1        1.125  -0.556  -0.094  0.00  0.00    -0.520 OA
BRANCH  18  21
ATOM     21  C   LIG    1        1.159   2.103  -0.008  0.00  0.00    +0.160 A 
ATOM     22  C   LIG    1        1.218   3.308   0.679  0.00  0.00    -0.010 A 
ATOM     23  C   LIG    1        2.382   4.053   0.665  0.00  0.00    +0.050 A 
ATOM     24  C   LIG    1        3.483   3.605  -0.040  0.00  0.00    +0.010 A 
ATOM     25  C   LIG    1        3.426   2.406  -0.730  0.00  0.00    -0.020 A 
ATOM     26 CL   LIG    1        4.811   1.847  -1.614  0.00  0.00    -0.060 Cl
ATOM     27  C   LIG    1        2.267   1.654  -0.716  0.00  0.00    +0.030 A 
ENDBRANCH  18  21
ENDBRANCH  16  17
ENDBRANCH  15  16
ENDBRANCH   6  15
TORSDOF 6
