REMARK  Name = ZINCqH0000006WWX.0
REMARK                            x       y       z     vdW  Elec       q    Type
REMARK                         _______ _______ _______ _____ _____    ______ ____
ROOT
ATOM      1  C   LIG    1       -1.802   1.812  -3.917  0.00  0.00    +0.100 A 
ATOM      2  C   LIG    1       -0.932   1.284  -2.981  0.00  0.00    -0.040 A 
ATOM      3  C   LIG    1       -1.210   1.391  -1.626  0.00  0.00    -0.080 A 
ATOM      4  C   LIG    1       -2.358   2.028  -1.207  0.00  0.00    -0.110 A 
ATOM      5  C   LIG    1       -2.697   2.177   0.254  0.00  0.00    +0.290 C 
ATOM      6  N   LIG    1       -1.916   1.233   1.060  0.00  0.00    -0.500 NA
ATOM      7  C   LIG    1       -0.486   1.365   0.752  0.00  0.00    +0.230 C 
ATOM      8  C   LIG    1       -3.235   2.559  -2.143  0.00  0.00    -0.030 A 
ATOM      9  C   LIG    1       -0.233   0.795  -0.644  0.00  0.00    +0.030 C 
ATOM     10  C   LIG    1       -2.963   2.454  -3.495  0.00  0.00    +0.100 A 
ENDROOT
BRANCH   1  12
ATOM     11  C   LIG    1       -0.315   1.033  -5.602  0.00  0.00    +0.240 C 
ATOM     12  O   LIG    1       -1.524   1.705  -5.244  0.00  0.00    -0.310 OA
ENDBRANCH   1  12
BRANCH   6  13
ATOM     13  C   LIG    1       -2.376  -0.146   0.849  0.00  0.00    +0.140 C 
ATOM     14  C   LIG    1       -3.892  -0.214   1.047  0.00  0.00    +0.080 C 
BRANCH  13  15
ATOM     15  C   LIG    1       -1.699  -1.058   1.839  0.00  0.00    +0.520 C 
ATOM     16  N   LIG    1       -1.723  -2.393   1.652  0.00  0.00    -0.670 N 
ATOM     17  H   LIG    1       -2.236  -2.770   0.920  0.00  0.00    +0.410 HD
ATOM     18  O   LIG    1       -1.132  -0.592   2.804  0.00  0.00    -0.490 OA
BRANCH  16  19
ATOM     19  C   LIG    1       -1.008  -3.234   2.513  0.00  0.00    +0.160 A 
ATOM     20  C   LIG    1       -0.870  -2.901   3.853  0.00  0.00    +0.040 A 
ATOM     21  C   LIG    1       -0.163  -3.733   4.700  0.00  0.00    +0.040 A 
ATOM     22  C   LIG    1        0.406  -4.896   4.215  0.00  0.00    +0.010 A 
ATOM     23  C   LIG    1        0.271  -5.230   2.879  0.00  0.00    +0.050 A 
ATOM     24  C   LIG    1       -0.440  -4.406   2.028  0.00  0.00    -0.070 A 
ATOM     25 CL   LIG    1       -0.617  -4.830   0.354  0.00  0.00    -0.070 Cl
ENDBRANCH  16  19
ENDBRANCH  13  15
ENDBRANCH   6  13
BRANCH  10  26
ATOM     26  O   LIG    1       -3.826   2.975  -4.408  0.00  0.00    -0.310 OA
ATOM     27  C   LIG    1       -4.996   3.619  -3.900  0.00  0.00    +0.250 C 
ENDBRANCH  10  26
TORSDOF 5
