REMARK  Name = ZINCvU0000000CBw.0
REMARK                            x       y       z     vdW  Elec       q    Type
REMARK                         _______ _______ _______ _____ _____    ______ ____
ROOT
ATOM      1  C   LIG    1        3.563   0.705  -0.044  0.00  0.00    +0.330 C 
ENDROOT
BRANCH   1   2
ATOM      2  C   LIG    1        2.056   0.737  -0.033  0.00  0.00    +0.290 A 
ATOM      3  N   LIG    1        1.288  -0.313  -0.029  0.00  0.00    -0.440 NA
ATOM      4  C   LIG    1       -0.014   0.074  -0.020  0.00  0.00    +0.060 A 
ATOM      5  C   LIG    1       -1.225  -0.623  -0.012  0.00  0.00    +0.090 A 
ATOM      6  C   LIG    1       -2.413   0.073  -0.003  0.00  0.00    -0.040 A 
ATOM      7  C   LIG    1       -2.417   1.462  -0.001  0.00  0.00    +0.050 A 
ATOM      8  C   LIG    1       -1.231   2.163  -0.004  0.00  0.00    +0.040 A 
ATOM      9 CL   LIG    1       -3.918  -0.793   0.008  0.00  0.00    -0.060 Cl
ATOM     10  C   LIG    1       -0.024   1.479  -0.018  0.00  0.00    +0.060 A 
ATOM     11  N   LIG    1        1.302   1.869  -0.026  0.00  0.00    -0.590 N 
ATOM     12  H   LIG    1        1.633   2.781  -0.028  0.00  0.00    +0.430 HD
ENDBRANCH   1   2
BRANCH   1  13
ATOM     13  C   LIG    1        4.055  -0.123   1.115  0.00  0.00    -0.110 A 
ATOM     14  C   LIG    1        4.152  -1.497   0.992  0.00  0.00    +0.060 A 
ATOM     15  C   LIG    1        4.607  -2.256   2.054  0.00  0.00    +0.010 A 
ATOM     16  C   LIG    1        4.959  -1.642   3.242  0.00  0.00    +0.020 A 
ATOM     17  C   LIG    1        4.858  -0.269   3.367  0.00  0.00    +0.010 A 
ATOM     18  C   LIG    1        4.406   0.490   2.304  0.00  0.00    +0.020 A 
ENDBRANCH   1  13
BRANCH   1  19
ATOM     19  O   LIG    1        4.026   0.118  -1.289  0.00  0.00    -0.330 OA
BRANCH  19  20
ATOM     20  C   LIG    1        5.216   0.539  -1.758  0.00  0.00    +0.510 C 
ATOM     21  O   LIG    1        5.850   1.374  -1.144  0.00  0.00    -0.490 OA
BRANCH  20  24
ATOM     22  C   LIG    1        7.478  -0.102  -4.692  0.00  0.00    +0.130 A 
ATOM     23  C   LIG    1        6.980   0.426  -3.511  0.00  0.00    +0.100 A 
ATOM     24  C   LIG    1        5.750  -0.013  -3.020  0.00  0.00    -0.110 A 
ATOM     25  C   LIG    1        5.024  -0.973  -3.727  0.00  0.00    +0.070 A 
ATOM     26  C   LIG    1        5.525  -1.488  -4.905  0.00  0.00    +0.030 A 
ATOM     27  C   LIG    1        6.746  -1.057  -5.389  0.00  0.00    -0.080 A 
ATOM     28  C   LIG    1        7.287  -1.625  -6.676  0.00  0.00    +0.110 C 
BRANCH  22  31
ATOM     29  C   LIG    1       10.915   1.419  -4.890  0.00  0.00    +0.110 C 
ATOM     30  C   LIG    1        9.635   0.839  -4.345  0.00  0.00    +0.510 C 
ATOM     31  N   LIG    1        8.713   0.330  -5.186  0.00  0.00    -0.670 N 
ATOM     32  H   LIG    1        8.907   0.264  -6.134  0.00  0.00    +0.410 HD
ATOM     33  O   LIG    1        9.434   0.830  -3.148  0.00  0.00    -0.520 OA
ENDBRANCH  22  31
ENDBRANCH  20  24
ENDBRANCH  19  20
ENDBRANCH   1  19
TORSDOF 6
