REMARK  Name = ZINCvU0000000CBw.1
REMARK                            x       y       z     vdW  Elec       q    Type
REMARK                         _______ _______ _______ _____ _____    ______ ____
ROOT
ATOM      1  C   LIG    1        4.733   2.602  -0.013  0.00  0.00    +0.330 C 
ENDROOT
BRANCH   1   2
ATOM      2  C   LIG    1        3.229   2.520   0.004  0.00  0.00    +0.290 A 
ATOM      3  N   LIG    1        2.427   3.545   0.015  0.00  0.00    -0.440 NA
ATOM      4  C   LIG    1        1.138   3.116   0.030  0.00  0.00    +0.050 A 
ATOM      5  C   LIG    1       -0.095   3.773   0.045  0.00  0.00    +0.100 A 
ATOM      6  C   LIG    1       -1.252   3.047   0.058  0.00  0.00    +0.020 A 
ATOM      7  C   LIG    1       -1.218   1.659   0.051  0.00  0.00    -0.010 A 
ATOM      8  C   LIG    1       -0.011   0.990   0.042  0.00  0.00    +0.040 A 
ATOM      9 CL   LIG    1       -2.703   0.760   0.061  0.00  0.00    -0.060 Cl
ATOM     10  C   LIG    1        1.174   1.711   0.028  0.00  0.00    +0.070 A 
ATOM     11  N   LIG    1        2.511   1.365   0.012  0.00  0.00    -0.590 N 
ATOM     12  H   LIG    1        2.871   0.464   0.006  0.00  0.00    +0.430 HD
ENDBRANCH   1   2
BRANCH   1  13
ATOM     13  C   LIG    1        5.177   3.443  -1.181  0.00  0.00    -0.110 A 
ATOM     14  C   LIG    1        5.231   4.819  -1.061  0.00  0.00    +0.060 A 
ATOM     15  C   LIG    1        5.643   5.591  -2.131  0.00  0.00    +0.010 A 
ATOM     16  C   LIG    1        5.992   4.988  -3.325  0.00  0.00    +0.020 A 
ATOM     17  C   LIG    1        5.933   3.612  -3.447  0.00  0.00    +0.010 A 
ATOM     18  C   LIG    1        5.526   2.840  -2.375  0.00  0.00    +0.020 A 
ENDBRANCH   1  13
BRANCH   1  19
ATOM     19  O   LIG    1        5.200   3.204   1.223  0.00  0.00    -0.330 OA
BRANCH  19  20
ATOM     20  C   LIG    1        6.411   2.822   1.671  0.00  0.00    +0.510 C 
ATOM     21  O   LIG    1        7.060   2.007   1.046  0.00  0.00    -0.490 OA
BRANCH  20  24
ATOM     22  C   LIG    1        8.704   3.540   4.562  0.00  0.00    +0.140 A 
ATOM     23  C   LIG    1        8.203   2.995   3.391  0.00  0.00    +0.100 A 
ATOM     24  C   LIG    1        6.950   3.394   2.922  0.00  0.00    -0.110 A 
ATOM     25  C   LIG    1        6.207   4.330   3.642  0.00  0.00    +0.070 A 
ATOM     26  C   LIG    1        6.713   4.863   4.810  0.00  0.00    +0.030 A 
ATOM     27  C   LIG    1        7.956   4.472   5.272  0.00  0.00    -0.080 A 
ATOM     28  C   LIG    1        8.501   5.058   6.549  0.00  0.00    +0.110 C 
BRANCH  22  31
ATOM     29  C   LIG    1       12.192   2.131   4.698  0.00  0.00    +0.110 C 
ATOM     30  C   LIG    1       10.884   2.668   4.176  0.00  0.00    +0.510 C 
ATOM     31  N   LIG    1        9.963   3.148   5.034  0.00  0.00    -0.670 N 
ATOM     32  H   LIG    1       10.171   3.222   5.978  0.00  0.00    +0.410 HD
ATOM     33  O   LIG    1       10.662   2.669   2.983  0.00  0.00    -0.520 OA
ENDBRANCH  22  31
ENDBRANCH  20  24
ENDBRANCH  19  20
ENDBRANCH   1  19
TORSDOF 6
