REMARK  Name = ZINCb80000002mA1.0
REMARK                            x       y       z     vdW  Elec       q    Type
REMARK                         _______ _______ _______ _____ _____    ______ ____
ROOT
ATOM      1  C   LIG    1       -0.762   1.525   1.300  0.00  0.00    +0.290 C 
ENDROOT
BRANCH   1   2
ATOM      2  C   LIG    1       -1.139   2.973   1.477  0.00  0.00    -0.010 A 
ATOM      3  N   LIG    1       -2.107   3.449   2.247  0.00  0.00    -0.380 NA
ATOM      4  N   LIG    1       -2.105   4.733   2.125  0.00  0.00    -0.160 NA
ATOM      5  N   LIG    1       -1.177   5.075   1.302  0.00  0.00    -0.160 NA
ATOM      6  N   LIG    1       -0.569   4.015   0.890  0.00  0.00    -0.340 NA
ENDBRANCH   1   2
BRANCH   1   7
ATOM      7  N   LIG    1       -1.979   0.720   1.126  0.00  0.00    -0.630 N 
ATOM      8  H   LIG    1       -2.520   1.091   0.359  0.00  0.00    +0.430 HD
ATOM      9  H   LIG    1       -1.724  -0.235   0.927  0.00  0.00    +0.430 HD
ATOM     10  H   LIG    1       -2.528   0.753   1.972  0.00  0.00    +0.440 HD
ENDBRANCH   1   7
BRANCH   1  11
ATOM     11  C   LIG    1       -0.003   1.040   2.537  0.00  0.00    +0.040 C 
BRANCH  11  13
ATOM     12  C   LIG    1        2.027   1.400   3.949  0.00  0.00    +0.030 C 
ATOM     13  C   LIG    1        1.329   1.786   2.643  0.00  0.00    +0.000 C 
ATOM     14  C   LIG    1        2.220   1.410   1.458  0.00  0.00    +0.020 C 
ENDBRANCH  11  13
ENDBRANCH   1  11
TORSDOF 4
