REMARK  Name = ZINCpe000000SQn7.0
REMARK                            x       y       z     vdW  Elec       q    Type
REMARK                         _______ _______ _______ _____ _____    ______ ____
ROOT
ATOM      1  N   LIG    1       -2.081   0.058  -1.279  0.00  0.00    -0.710 N 
ATOM      2  H   LIG    1       -1.535   0.495  -1.950  0.00  0.00    +0.410 HD
ATOM      3  C   LIG    1       -3.402  -0.108  -1.487  0.00  0.00    +0.520 C 
ATOM      4  O   LIG    1       -4.084  -0.655  -0.647  0.00  0.00    -0.530 OA
ENDROOT
BRANCH   3   5
ATOM      5  C   LIG    1       -4.032   0.388  -2.763  0.00  0.00    +0.000 C 
ATOM      6  C   LIG    1       -4.011   1.932  -2.827  0.00  0.00    +0.080 C 
ATOM      7  C   LIG    1       -5.324   2.294  -3.486  0.00  0.00    +0.520 C 
ATOM      8  N   LIG    1       -6.163   1.244  -3.452  0.00  0.00    -0.620 N 
ATOM      9  O   LIG    1       -5.583   3.373  -3.974  0.00  0.00    -0.520 OA
ATOM     10  C   LIG    1       -5.548   0.091  -2.783  0.00  0.00    +0.300 C 
BRANCH   8  11
ATOM     11  C   LIG    1       -7.517   1.249  -4.010  0.00  0.00    +0.430 C 
BRANCH  11  12
ATOM     12  C   LIG    1       -8.494   1.700  -2.955  0.00  0.00    -0.050 A 
ATOM     13  C   LIG    1       -8.869   2.971  -2.722  0.00  0.00    -0.030 A 
ATOM     14  C   LIG    1       -9.792   2.936  -1.652  0.00  0.00    -0.070 A 
ATOM     15  C   LIG    1       -9.927   1.646  -1.295  0.00  0.00    +0.170 A 
ATOM     16  O   LIG    1       -9.142   0.902  -2.092  0.00  0.00    -0.170 OA
ENDBRANCH  11  12
ENDBRANCH   8  11
ENDBRANCH   3   5
BRANCH   1  17
ATOM     17  C   LIG    1       -1.469  -0.424  -0.038  0.00  0.00    +0.280 C 
BRANCH  17  19
ATOM     18  C   LIG    1        0.675  -0.618   1.231  0.00  0.00    +0.020 C 
ATOM     19  C   LIG    1        0.002  -0.004   0.002  0.00  0.00    +0.090 C 
ATOM     20  C   LIG    1        0.094   1.522   0.080  0.00  0.00    +0.060 C 
BRANCH  19  21
ATOM     21  N   LIG    1        0.679  -0.474  -1.214  0.00  0.00    -0.520 NA
ATOM     22  C   LIG    1        0.565  -1.933  -1.349  0.00  0.00    +0.150 C 
ATOM     23  C   LIG    1        1.230  -2.373  -2.656  0.00  0.00    +0.220 C 
ATOM     24  O   LIG    1        2.591  -1.934  -2.663  0.00  0.00    -0.380 OA
ATOM     25  C   LIG    1        2.739  -0.517  -2.534  0.00  0.00    +0.220 C 
ATOM     26  C   LIG    1        2.089  -0.059  -1.226  0.00  0.00    +0.150 C 
ENDBRANCH  19  21
ENDBRANCH  17  19
ENDBRANCH   1  17
TORSDOF 6
