REMARK  Name = ZINCpe00000RaYSI.0
REMARK                            x       y       z     vdW  Elec       q    Type
REMARK                         _______ _______ _______ _____ _____    ______ ____
ROOT
ATOM      1  C   LIG    1       -0.019   1.526   0.010  0.00  0.00    +0.130 C 
ATOM      2  C   LIG    1        1.417   2.057  -0.000  0.00  0.00    +0.010 C 
ATOM      3  C   LIG    1        1.387   3.587  -0.053  0.00  0.00    +0.030 C 
ATOM      4  C   LIG    1        0.611   4.035  -1.293  0.00  0.00    +0.170 C 
ATOM      5  N   LIG    1       -0.756   3.502  -1.235  0.00  0.00    -0.520 NA
ATOM      6  C   LIG    1       -0.754   2.034  -1.232  0.00  0.00    +0.230 C 
ENDROOT
BRANCH   1   7
ATOM      7  O   LIG    1       -0.689   1.987   1.185  0.00  0.00    -0.530 OA
ATOM      8  H   LIG    1       -0.275   1.703   2.011  0.00  0.00    +0.370 HD
ENDBRANCH   1   7
BRANCH   5   9
ATOM      9  C   LIG    1       -1.572   4.025  -2.339  0.00  0.00    +0.300 C 
BRANCH   9  10
ATOM     10  C   LIG    1       -1.759   5.511  -2.166  0.00  0.00    +0.020 A 
ATOM     11  N   LIG    1       -2.676   6.115  -1.445  0.00  0.00    -0.260 NA
ATOM     12  N   LIG    1       -2.509   7.386  -1.545  0.00  0.00    -0.100 N 
ATOM     13  N   LIG    1       -1.516   7.656  -2.316  0.00  0.00    -0.290 NA
ATOM     14  C   LIG    1       -0.995   6.528  -2.744  0.00  0.00    +0.190 A 
BRANCH  12  15
ATOM     15  C   LIG    1       -3.306   8.347  -0.907  0.00  0.00    +0.140 A 
ATOM     16  C   LIG    1       -4.361   7.949  -0.097  0.00  0.00    +0.040 A 
ATOM     17  C   LIG    1       -5.141   8.898   0.534  0.00  0.00    +0.040 A 
ATOM     18  C   LIG    1       -4.878  10.243   0.353  0.00  0.00    +0.020 A 
ATOM     19  C   LIG    1       -3.830  10.643  -0.456  0.00  0.00    +0.040 A 
ATOM     20  C   LIG    1       -3.044   9.698  -1.087  0.00  0.00    +0.040 A 
ENDBRANCH  12  15
ENDBRANCH   9  10
ENDBRANCH   5   9
BRANCH   1  21
ATOM     21  C   LIG    1        0.002  -0.004   0.002  0.00  0.00    +0.310 C 
BRANCH  21  22
ATOM     22  N   LIG    1        0.711  -0.489   1.189  0.00  0.00    -0.290 N 
ATOM     23  C   LIG    1        0.222  -1.358   2.104  0.00  0.00    +0.140 A 
ATOM     24  C   LIG    1        1.201  -1.528   3.023  0.00  0.00    +0.140 A 
ATOM     25  N   LIG    1        2.227  -0.765   2.630  0.00  0.00    -0.270 NA
ATOM     26  N   LIG    1        1.907  -0.167   1.538  0.00  0.00    -0.080 NA
ENDBRANCH  21  22
ENDBRANCH   1  21
TORSDOF 6
