REMARK  Name = ZINCrD0000073XmD.0
REMARK                            x       y       z     vdW  Elec       q    Type
REMARK                         _______ _______ _______ _____ _____    ______ ____
ROOT
ATOM      1  C   LIG    1       -2.709   4.646  -1.402  0.00  0.00    +0.060 C 
ATOM      2  C   LIG    1       -2.274   4.361   0.037  0.00  0.00    +0.180 C 
ENDROOT
BRANCH   2   3
ATOM      3  C   LIG    1       -2.019   5.662   0.752  0.00  0.00    +0.520 C 
ATOM      4  N   LIG    1       -3.036   6.519   0.974  0.00  0.00    -0.720 N 
ATOM      5  H   LIG    1       -3.931   6.298   0.673  0.00  0.00    +0.400 HD
ATOM      6  O   LIG    1       -0.900   5.938   1.129  0.00  0.00    -0.500 OA
BRANCH   4   7
ATOM      7  C   LIG    1       -2.788   7.785   1.670  0.00  0.00    +0.320 C 
BRANCH   7   8
ATOM      8  C   LIG    1       -4.079   8.553   1.788  0.00  0.00    -0.110 A 
ATOM      9  C   LIG    1       -4.447   9.444   0.797  0.00  0.00    +0.050 A 
ATOM     10  C   LIG    1       -5.633  10.145   0.903  0.00  0.00    +0.030 A 
ATOM     11  C   LIG    1       -6.447   9.965   2.007  0.00  0.00    -0.030 A 
ATOM     12  C   LIG    1       -6.075   9.078   3.002  0.00  0.00    +0.030 A 
ATOM     13 CL   LIG    1       -7.933  10.852   2.145  0.00  0.00    -0.060 Cl
ATOM     14  C   LIG    1       -4.892   8.372   2.892  0.00  0.00    +0.050 A 
ENDBRANCH   7   8
ENDBRANCH   4   7
ENDBRANCH   2   3
BRANCH   2  15
ATOM     15  O   LIG    1       -1.058   3.568   0.026  0.00  0.00    -0.320 OA
BRANCH  15  16
ATOM     16  C   LIG    1       -1.201   2.227   0.020  0.00  0.00    +0.550 C 
ATOM     17  O   LIG    1       -2.312   1.734   0.023  0.00  0.00    -0.490 OA
BRANCH  16  18
ATOM     18  C   LIG    1       -0.017   1.364   0.009  0.00  0.00    -0.080 A 
ATOM     19  C   LIG    1        0.002  -0.004   0.002  0.00  0.00    +0.280 A 
ATOM     20  N   LIG    1        1.276  -0.395  -0.012  0.00  0.00    -0.490 NA
ATOM     21  C   LIG    1        2.060   0.653  -0.014  0.00  0.00    +0.460 A 
ATOM     22  N   LIG    1        1.306   1.770  -0.001  0.00  0.00    -0.390 N 
BRANCH  22  23
ATOM     23  C   LIG    1        1.773   3.091   0.002  0.00  0.00    +0.100 A 
ATOM     24  C   LIG    1        1.272   4.007  -0.913  0.00  0.00    +0.050 A 
ATOM     25  C   LIG    1        1.729   5.311  -0.904  0.00  0.00    +0.040 A 
ATOM     26  C   LIG    1        2.694   5.700   0.007  0.00  0.00    +0.030 A 
ATOM     27  C   LIG    1        3.200   4.787   0.915  0.00  0.00    +0.020 A 
ATOM     28  C   LIG    1        2.742   3.484   0.915  0.00  0.00    +0.020 A 
ENDBRANCH  22  23
ENDBRANCH  16  18
ENDBRANCH  15  16
ENDBRANCH   2  15
TORSDOF 7
