REMARK  Name = ZINCrD0000075rt7.0
REMARK                            x       y       z     vdW  Elec       q    Type
REMARK                         _______ _______ _______ _____ _____    ______ ____
ROOT
ATOM      1  O   LIG    1      -10.280   3.008   0.116  0.00  0.00    -0.440 OA
ATOM      2  C   LIG    1      -10.067   1.815   0.108  0.00  0.00    +0.520 C 
ATOM      3  N   LIG    1      -11.097   0.946   0.113  0.00  0.00    -0.690 N 
ATOM      4  H   LIG    1      -10.926  -0.009   0.106  0.00  0.00    +0.410 HD
ATOM      5  C   LIG    1      -12.365   1.404   0.128  0.00  0.00    +0.700 C 
ATOM      6  N   LIG    1      -13.395   0.535   0.133  0.00  0.00    -0.730 N 
ATOM      7  H   LIG    1      -13.224  -0.420   0.126  0.00  0.00    +0.400 HD
ATOM      8  O   LIG    1      -12.579   2.600   0.136  0.00  0.00    -0.520 OA
ENDROOT
BRANCH   6   9
ATOM      9  C   LIG    1      -14.773   1.032   0.149  0.00  0.00    +0.340 C 
BRANCH   9  10
ATOM     10  C   LIG    1      -15.728  -0.134   0.151  0.00  0.00    -0.110 A 
ATOM     11  C   LIG    1      -16.181  -0.658  -1.044  0.00  0.00    +0.030 A 
ATOM     12  C   LIG    1      -17.054  -1.731  -1.042  0.00  0.00    +0.010 A 
ATOM     13  C   LIG    1      -17.480  -2.272   0.157  0.00  0.00    +0.010 A 
ATOM     14  C   LIG    1      -17.030  -1.744   1.353  0.00  0.00    +0.010 A 
ATOM     15  C   LIG    1      -16.154  -0.675   1.350  0.00  0.00    +0.030 A 
ENDBRANCH   9  10
ENDBRANCH   6   9
BRANCH   2  16
ATOM     16  C   LIG    1       -8.649   1.303   0.092  0.00  0.00    +0.270 C 
BRANCH  16  17
ATOM     17  O   LIG    1       -7.729   2.427   0.089  0.00  0.00    -0.330 OA
BRANCH  17  18
ATOM     18  C   LIG    1       -6.418   2.140   0.075  0.00  0.00    +0.470 C 
ATOM     19  O   LIG    1       -6.051   0.989   0.065  0.00  0.00    -0.500 OA
BRANCH  18  20
ATOM     20  C   LIG    1       -5.403   3.254   0.071  0.00  0.00    +0.140 C 
BRANCH  20  21
ATOM     21  C   LIG    1       -3.994   2.660   0.054  0.00  0.00    +0.090 C 
BRANCH  21  22
ATOM     22  S   LIG    1       -2.772   4.002   0.050  0.00  0.00    -0.090 S 
BRANCH  22  23
ATOM     23  C   LIG    1       -1.236   3.139   0.031  0.00  0.00    -0.080 A 
ATOM     24  C   LIG    1       -1.218   1.749   0.017  0.00  0.00    +0.020 A 
ATOM     25  C   LIG    1       -0.013   1.076   0.008  0.00  0.00    +0.050 A 
ATOM     26  C   LIG    1        1.177   1.783   0.000  0.00  0.00    -0.040 A 
ATOM     27  C   LIG    1        1.162   3.167   0.008  0.00  0.00    +0.050 A 
ATOM     28 CL   LIG    1        2.690   0.933  -0.019  0.00  0.00    -0.060 Cl
ATOM     29  C   LIG    1       -0.040   3.846   0.023  0.00  0.00    +0.050 A 
ENDBRANCH  22  23
ENDBRANCH  21  22
ENDBRANCH  20  21
ENDBRANCH  18  20
ENDBRANCH  17  18
ENDBRANCH  16  17
ENDBRANCH   2  16
TORSDOF 9
