REMARK  Name = ZINCrg00000IYNWk.0
REMARK                            x       y       z     vdW  Elec       q    Type
REMARK                         _______ _______ _______ _____ _____    ______ ____
ROOT
ATOM      1  C   LIG    1       -2.699   2.747   4.793  0.00  0.00    +0.580 C 
ATOM      2  N   LIG    1       -2.011   2.941   5.935  0.00  0.00    -0.610 N 
ATOM      3  C   LIG    1       -0.556   2.802   6.093  0.00  0.00    +0.260 C 
ATOM      4  C   LIG    1       -0.220   3.148   7.559  0.00  0.00    +0.050 C 
ATOM      5  C   LIG    1       -1.435   4.004   8.004  0.00  0.00    +0.130 C 
ATOM      6  C   LIG    1       -2.594   3.322   7.235  0.00  0.00    +0.280 C 
ATOM      7  O   LIG    1       -3.891   2.982   4.753  0.00  0.00    -0.530 OA
ENDROOT
BRANCH   1  10
ATOM      8  C   LIG    1       -2.077   1.442   1.322  0.00  0.00    +0.120 A 
ATOM      9  C   LIG    1       -2.735   1.904   2.449  0.00  0.00    -0.010 A 
ATOM     10  C   LIG    1       -2.004   2.248   3.587  0.00  0.00    -0.100 A 
ATOM     11  C   LIG    1       -0.614   2.119   3.583  0.00  0.00    +0.000 A 
ATOM     12  C   LIG    1        0.031   1.652   2.456  0.00  0.00    +0.050 A 
ATOM     13  C   LIG    1       -0.694   1.311   1.329  0.00  0.00    -0.090 A 
ATOM     14  C   LIG    1        0.018   0.802   0.103  0.00  0.00    +0.100 C 
BRANCH   8  16
ATOM     15  C   LIG    1       -4.203   1.270   0.273  0.00  0.00    +0.240 C 
ATOM     16  O   LIG    1       -2.784   1.111   0.210  0.00  0.00    -0.310 OA
ENDBRANCH   8  16
ENDBRANCH   1  10
BRANCH   5  17
ATOM     17  N   LIG    1       -1.641   3.912   9.456  0.00  0.00    -0.520 NA
ATOM     18  C   LIG    1       -2.969   4.416   9.832  0.00  0.00    +0.200 C 
BRANCH  17  19
ATOM     19  C   LIG    1       -0.582   4.623  10.184  0.00  0.00    +0.260 C 
BRANCH  19  20
ATOM     20  C   LIG    1       -0.682   4.306  11.653  0.00  0.00    +0.240 A 
ATOM     21  C   LIG    1        0.319   3.615  12.271  0.00  0.00    -0.180 A 
ATOM     22  C   LIG    1        0.205   3.335  13.644  0.00  0.00    +0.540 A 
ATOM     23  N   LIG    1       -0.898   3.752  14.302  0.00  0.00    -0.650 N 
ATOM     24  H   LIG    1       -0.999   3.566  15.249  0.00  0.00    +0.410 HD
ATOM     25  C   LIG    1       -1.867   4.433  13.632  0.00  0.00    +0.640 A 
ATOM     26  O   LIG    1        1.084   2.723  14.229  0.00  0.00    -0.540 OA
ATOM     27  N   LIG    1       -1.750   4.696  12.346  0.00  0.00    -0.590 NA
BRANCH  25  28
ATOM     28  N   LIG    1       -2.982   4.852  14.306  0.00  0.00    -0.820 N 
ATOM     29  H   LIG    1       -3.077   4.663  15.253  0.00  0.00    +0.420 HD
ATOM     30  H   LIG    1       -3.678   5.338  13.837  0.00  0.00    +0.430 HD
ENDBRANCH  25  28
ENDBRANCH  19  20
ENDBRANCH  17  19
ENDBRANCH   5  17
TORSDOF 6
