REMARK  Name = ZINCqH0000000r9t.0
REMARK                            x       y       z     vdW  Elec       q    Type
REMARK                         _______ _______ _______ _____ _____    ______ ____
ROOT
ATOM      1  C   LIG    1        5.751   2.413   1.219  0.00  0.00    +0.240 A 
ATOM      2  N   LIG    1        6.994   2.074   1.356  0.00  0.00    -0.500 NA
ATOM      3  C   LIG    1        7.801   2.969   1.895  0.00  0.00    +0.110 A 
ATOM      4  C   LIG    1        7.210   4.114   2.238  0.00  0.00    -0.130 A 
ATOM      5  S   LIG    1        5.503   3.995   1.818  0.00  0.00    +0.240 S 
ENDROOT
BRANCH   3   6
ATOM      6  C   LIG    1        9.271   2.715   2.109  0.00  0.00    +0.020 C 
ATOM      7  C   LIG    1       10.080   3.490   1.068  0.00  0.00    +0.020 C 
ATOM      8  C   LIG    1       11.573   3.232   1.286  0.00  0.00    -0.020 C 
ATOM      9  C   LIG    1       11.970   3.696   2.689  0.00  0.00    +0.010 C 
ATOM     10  C   LIG    1       11.161   2.920   3.730  0.00  0.00    -0.020 C 
ATOM     11  C   LIG    1       11.447   1.424   3.587  0.00  0.00    +0.010 C 
ATOM     12  C   LIG    1       11.049   0.961   2.184  0.00  0.00    -0.020 C 
ATOM     13  C   LIG    1       11.858   1.736   1.143  0.00  0.00    +0.010 C 
ATOM     14  C   LIG    1        9.669   3.178   3.512  0.00  0.00    +0.020 C 
ATOM     15  C   LIG    1        9.556   1.219   1.966  0.00  0.00    +0.040 C 
ENDBRANCH   3   6
BRANCH   1  17
ATOM     16  C   LIG    1        3.495   2.058   0.580  0.00  0.00    +0.520 C 
ATOM     17  N   LIG    1        4.761   1.606   0.670  0.00  0.00    -0.620 N 
ATOM     18  H   LIG    1        4.982   0.717   0.351  0.00  0.00    +0.430 HD
ATOM     19  O   LIG    1        3.219   3.170   0.979  0.00  0.00    -0.500 OA
BRANCH  16  20
ATOM     20  C   LIG    1        2.422   1.183  -0.015  0.00  0.00    +0.260 C 
BRANCH  20  23
ATOM     21  C   LIG    1       -1.330   1.944   0.019  0.00  0.00    +0.110 C 
ATOM     22  C   LIG    1       -0.014   1.209   0.009  0.00  0.00    +0.520 C 
ATOM     23  N   LIG    1        1.143   1.898   0.001  0.00  0.00    -0.710 N 
ATOM     24  H   LIG    1        1.130   2.868   0.007  0.00  0.00    +0.410 HD
ATOM     25  O   LIG    1        0.002  -0.004   0.002  0.00  0.00    -0.540 OA
ENDBRANCH  20  23
BRANCH  20  26
ATOM     26  C   LIG    1        2.792   0.832  -1.457  0.00  0.00    -0.020 C 
ATOM     27  C   LIG    1        2.916   2.117  -2.279  0.00  0.00    +0.030 C 
ATOM     28  C   LIG    1        1.703  -0.057  -2.061  0.00  0.00    +0.050 C 
ENDBRANCH  20  26
ENDBRANCH  16  20
ENDBRANCH   1  17
TORSDOF 5
