REMARK  Name = ZINCkj000005lod4.0
REMARK                            x       y       z     vdW  Elec       q    Type
REMARK                         _______ _______ _______ _____ _____    ______ ____
ROOT
ATOM      1  N   LIG    1        6.008   4.167  -0.954  0.00  0.00    -0.370 N 
ATOM      2  C   LIG    1        6.126   3.966   0.503  0.00  0.00    +0.260 C 
ATOM      3  C   LIG    1        5.001   4.711   1.176  0.00  0.00    +0.040 C 
ATOM      4  C   LIG    1        3.806   3.784   1.467  0.00  0.00    +0.050 C 
ATOM      5  C   LIG    1        3.537   2.813   0.299  0.00  0.00    +0.030 C 
ATOM      6  C   LIG    1        3.670   3.482  -1.046  0.00  0.00    +0.070 C 
ATOM      7  C   LIG    1        5.111   3.288  -1.564  0.00  0.00    +0.230 C 
ATOM      8  H   LIG    1        5.701   5.112  -1.127  0.00  0.00    +0.420 HD
ENDROOT
BRANCH   5   9
ATOM      9  C   LIG    1        2.141   2.262   0.434  0.00  0.00    -0.050 A 
ATOM     10  C   LIG    1        1.041   3.106   0.427  0.00  0.00    -0.040 A 
ATOM     11  C   LIG    1       -0.224   2.565   0.552  0.00  0.00    +0.270 A 
ATOM     12  N   LIG    1       -0.391   1.263   0.679  0.00  0.00    -0.480 NA
ATOM     13  C   LIG    1        0.631   0.430   0.690  0.00  0.00    +0.270 A 
ATOM     14  C   LIG    1        1.926   0.899   0.569  0.00  0.00    -0.040 A 
ENDBRANCH   5   9
BRANCH   1  15
ATOM     15  C   LIG    1        7.332   3.985  -1.564  0.00  0.00    +0.270 C 
BRANCH  15  16
ATOM     16  C   LIG    1        7.260   4.326  -3.053  0.00  0.00    +0.080 C 
BRANCH  16  17
ATOM     17  C   LIG    1        8.665   4.274  -3.658  0.00  0.00    -0.340 C 
BRANCH  17  18
ATOM     18  S   LIG    1        8.578   4.679  -5.424  0.00  0.00    +2.620 S 
ATOM     19  O   LIG    1        8.227   6.044  -5.606  0.00  0.00    -0.950 OA
ATOM     20  O   LIG    1        7.910   3.649  -6.139  0.00  0.00    -0.950 OA
BRANCH  18  21
ATOM     21  N   LIG    1       10.147   4.588  -5.946  0.00  0.00    -1.250 NA
ATOM     22  H   LIG    1       10.874   4.789  -5.336  0.00  0.00    +0.420 HD
ATOM     23  H   LIG    1       10.339   4.332  -6.862  0.00  0.00    +0.430 HD
ENDBRANCH  18  21
ENDBRANCH  17  18
ENDBRANCH  16  17
ENDBRANCH  15  16
ENDBRANCH   1  15
TORSDOF 6
