REMARK  Name = ZINCkj000005lod4.1
REMARK                            x       y       z     vdW  Elec       q    Type
REMARK                         _______ _______ _______ _____ _____    ______ ____
ROOT
ATOM      1  N   LIG    1       -6.543   0.479  -0.005  0.00  0.00    -0.380 N 
ATOM      2  C   LIG    1       -6.779   1.130  -1.271  0.00  0.00    +0.250 C 
ATOM      3  C   LIG    1       -7.686   2.346  -1.013  0.00  0.00    +0.050 C 
ATOM      4  C   LIG    1       -9.102   2.003  -0.965  0.00  0.00    +0.040 C 
ATOM      5  C   LIG    1       -9.394   1.009   0.187  0.00  0.00    +0.040 C 
ATOM      6  C   LIG    1       -8.915  -0.359  -0.217  0.00  0.00    +0.060 C 
ATOM      7  C   LIG    1       -7.467  -0.655   0.212  0.00  0.00    +0.250 C 
ATOM      8  H   LIG    1       -6.667   1.151   0.738  0.00  0.00    +0.420 HD
ENDROOT
BRANCH   5   9
ATOM      9  C   LIG    1      -10.877   0.967   0.454  0.00  0.00    -0.050 A 
ATOM     10  C   LIG    1      -11.767   0.600  -0.544  0.00  0.00    -0.040 A 
ATOM     11  C   LIG    1      -13.120   0.568  -0.262  0.00  0.00    +0.270 A 
ATOM     12  N   LIG    1      -13.566   0.890   0.936  0.00  0.00    -0.480 NA
ATOM     13  C   LIG    1      -12.750   1.249   1.907  0.00  0.00    +0.270 A 
ATOM     14  C   LIG    1      -11.384   1.299   1.700  0.00  0.00    -0.030 A 
ENDBRANCH   5   9
BRANCH   1  15
ATOM     15  C   LIG    1       -5.161  -0.017   0.026  0.00  0.00    +0.280 C 
BRANCH  15  16
ATOM     16  C   LIG    1       -4.835  -0.530   1.431  0.00  0.00    +0.070 C 
BRANCH  16  17
ATOM     17  C   LIG    1       -3.359  -0.926   1.499  0.00  0.00    -0.340 C 
BRANCH  17  18
ATOM     18  S   LIG    1       -2.972  -1.534   3.164  0.00  0.00    +2.620 S 
ATOM     19  O   LIG    1       -3.040  -0.476   4.110  0.00  0.00    -0.950 OA
ATOM     20  O   LIG    1       -3.623  -2.775   3.405  0.00  0.00    -0.950 OA
BRANCH  18  21
ATOM     21  N   LIG    1       -1.364  -1.922   3.099  0.00  0.00    -1.250 NA
ATOM     22  H   LIG    1       -0.917  -2.272   3.886  0.00  0.00    +0.430 HD
ATOM     23  H   LIG    1       -0.867  -1.796   2.276  0.00  0.00    +0.410 HD
ENDBRANCH  18  21
ENDBRANCH  17  18
ENDBRANCH  16  17
ENDBRANCH  15  16
ENDBRANCH   1  15
TORSDOF 6
