REMARK  Name = ZINCtV00000L6jhz.1
REMARK                            x       y       z     vdW  Elec       q    Type
REMARK                         _______ _______ _______ _____ _____    ______ ____
ROOT
ATOM      1  C   LIG    1        6.709   4.764  -0.161  0.00  0.00    +0.540 C 
ATOM      2  N   LIG    1        7.099   5.985  -0.579  0.00  0.00    -0.610 N 
ATOM      3  H   LIG    1        6.436   6.660  -0.792  0.00  0.00    +0.430 HD
ATOM      4  O   LIG    1        7.538   3.921   0.106  0.00  0.00    -0.480 OA
ENDROOT
BRANCH   2   5
ATOM      5  C   LIG    1        8.452   6.276  -0.705  0.00  0.00    +0.280 A 
ATOM      6  N   LIG    1        8.941   7.411  -1.097  0.00  0.00    -0.490 NA
ATOM      7  C   LIG    1       10.262   7.510  -1.157  0.00  0.00    +0.120 A 
ATOM      8  C   LIG    1       10.939   6.404  -0.799  0.00  0.00    -0.100 A 
ATOM      9  S   LIG    1        9.770   5.163  -0.350  0.00  0.00    +0.220 S 
BRANCH   7  10
ATOM     10  C   LIG    1       10.945   8.753  -1.588  0.00  0.00    -0.000 A 
ATOM     11  C   LIG    1       12.337   8.808  -1.628  0.00  0.00    +0.050 A 
ATOM     12  C   LIG    1       12.969   9.965  -2.036  0.00  0.00    +0.050 A 
ATOM     13  C   LIG    1       12.223  11.075  -2.393  0.00  0.00    -0.030 A 
ATOM     14  C   LIG    1       10.839  11.028  -2.350  0.00  0.00    -0.030 A 
ATOM     15 CL   LIG    1        9.910  12.424  -2.801  0.00  0.00    -0.040 Cl
ATOM     16 CL   LIG    1       13.025  12.530  -2.898  0.00  0.00    -0.040 Cl
ATOM     17  C   LIG    1       10.198   9.873  -1.950  0.00  0.00    +0.080 A 
ENDBRANCH   7  10
ENDBRANCH   2   5
BRANCH   1  18
ATOM     18  C   LIG    1        5.242   4.449  -0.024  0.00  0.00    +0.040 C 
ATOM     19  C   LIG    1        4.716   5.026   1.292  0.00  0.00    +0.100 C 
BRANCH  18  20
ATOM     20  S   LIG    1        5.008   2.654  -0.032  0.00  0.00    +0.080 S 
BRANCH  20  27
ATOM     21  C   LIG    1       -2.509   0.977   0.019  0.00  0.00    +0.100 C 
ATOM     22  C   LIG    1       -1.216   1.751   0.017  0.00  0.00    -0.060 A 
ATOM     23  C   LIG    1       -1.244   3.137   0.032  0.00  0.00    +0.010 A 
ATOM     24  C   LIG    1       -0.071   3.860   0.024  0.00  0.00    +0.070 A 
ATOM     25  C   LIG    1        1.155   3.191   0.008  0.00  0.00    +0.050 A 
ATOM     26  N   LIG    1        2.447   3.612  -0.002  0.00  0.00    -0.490 NA
ATOM     27  C   LIG    1        3.248   2.574  -0.015  0.00  0.00    +0.250 A 
ATOM     28  N   LIG    1        2.514   1.422  -0.014  0.00  0.00    -0.580 N 
ATOM     29  H   LIG    1        2.863   0.517  -0.023  0.00  0.00    +0.430 HD
ATOM     30  C   LIG    1        1.177   1.787   0.000  0.00  0.00    +0.060 A 
ATOM     31  C   LIG    1       -0.013   1.076   0.008  0.00  0.00    +0.010 A 
ENDBRANCH  20  27
ENDBRANCH  18  20
ENDBRANCH   1  18
TORSDOF 5
