REMARK  Name = ZINCtV00000L6jhz.0
REMARK                            x       y       z     vdW  Elec       q    Type
REMARK                         _______ _______ _______ _____ _____    ______ ____
ROOT
ATOM      1  C   LIG    1       -5.151   2.501   0.161  0.00  0.00    +0.540 C 
ATOM      2  N   LIG    1       -5.969   3.481   0.591  0.00  0.00    -0.610 N 
ATOM      3  H   LIG    1       -5.606   4.352   0.817  0.00  0.00    +0.430 HD
ATOM      4  O   LIG    1       -5.605   1.412  -0.123  0.00  0.00    -0.480 OA
ENDROOT
BRANCH   2   5
ATOM      5  C   LIG    1       -7.333   3.245   0.709  0.00  0.00    +0.280 A 
ATOM      6  N   LIG    1       -8.211   4.111   1.111  0.00  0.00    -0.490 NA
ATOM      7  C   LIG    1       -9.474   3.709   1.161  0.00  0.00    +0.120 A 
ATOM      8  C   LIG    1       -9.689   2.436   0.784  0.00  0.00    -0.100 A 
ATOM      9  S   LIG    1       -8.140   1.727   0.330  0.00  0.00    +0.220 S 
BRANCH   7  10
ATOM     10  C   LIG    1      -10.573   4.601   1.602  0.00  0.00    -0.000 A 
ATOM     11  C   LIG    1      -11.885   4.132   1.631  0.00  0.00    +0.050 A 
ATOM     12  C   LIG    1      -12.904   4.965   2.048  0.00  0.00    +0.050 A 
ATOM     13  C   LIG    1      -12.627   6.267   2.425  0.00  0.00    -0.030 A 
ATOM     14  C   LIG    1      -11.325   6.740   2.393  0.00  0.00    -0.030 A 
ATOM     15 CL   LIG    1      -10.985   8.375   2.867  0.00  0.00    -0.040 Cl
ATOM     16 CL   LIG    1      -13.915   7.311   2.941  0.00  0.00    -0.040 Cl
ATOM     17  C   LIG    1      -10.298   5.914   1.983  0.00  0.00    +0.080 A 
ENDBRANCH   7  10
ENDBRANCH   2   5
BRANCH   1  18
ATOM     18  C   LIG    1       -3.671   2.756   0.032  0.00  0.00    +0.040 C 
ATOM     19  C   LIG    1       -3.395   3.507  -1.272  0.00  0.00    +0.100 C 
BRANCH  18  20
ATOM     20  S   LIG    1       -2.785   1.178   0.020  0.00  0.00    +0.080 S 
BRANCH  20  28
ATOM     21  C   LIG    1        3.794   5.122  -0.008  0.00  0.00    +0.100 C 
ATOM     22  C   LIG    1        2.836   3.959  -0.005  0.00  0.00    -0.090 A 
ATOM     23  C   LIG    1        3.327   2.663  -0.016  0.00  0.00    +0.030 A 
ATOM     24  C   LIG    1        2.462   1.587  -0.013  0.00  0.00    +0.020 A 
ATOM     25  C   LIG    1        1.093   1.803   0.001  0.00  0.00    +0.050 A 
ATOM     26  N   LIG    1       -0.011   0.966   0.007  0.00  0.00    -0.580 N 
ATOM     27  H   LIG    1        0.002  -0.004   0.002  0.00  0.00    +0.430 HD
ATOM     28  C   LIG    1       -1.122   1.761   0.016  0.00  0.00    +0.250 A 
ATOM     29  N   LIG    1       -0.766   3.023   0.025  0.00  0.00    -0.490 NA
ATOM     30  C   LIG    1        0.589   3.114   0.013  0.00  0.00    +0.060 A 
ATOM     31  C   LIG    1        1.478   4.192   0.010  0.00  0.00    +0.060 A 
ENDBRANCH  20  28
ENDBRANCH  18  20
ENDBRANCH   1  18
TORSDOF 5
