REMARK  Name = ZINCrH000004quUK.0
REMARK                            x       y       z     vdW  Elec       q    Type
REMARK                         _______ _______ _______ _____ _____    ______ ____
ROOT
ATOM      1  C   LIG    1       -2.614   4.056   0.543  0.00  0.00    +0.180 C 
ATOM      2  C   LIG    1       -3.496   3.315   1.551  0.00  0.00    +0.020 C 
ENDROOT
BRANCH   1   3
ATOM      3  N   LIG    1       -2.400   5.435   1.002  0.00  0.00    -0.510 NA
ATOM      4  C   LIG    1       -1.754   5.457   2.320  0.00  0.00    +0.180 C 
ATOM      5  C   LIG    1       -1.415   6.900   2.700  0.00  0.00    +0.030 C 
ATOM      6  C   LIG    1       -2.700   7.731   2.726  0.00  0.00    +0.230 C 
ATOM      7  C   LIG    1       -3.378   7.652   1.355  0.00  0.00    +0.030 C 
ATOM      8  C   LIG    1       -3.660   6.187   1.015  0.00  0.00    +0.170 C 
BRANCH   6   9
ATOM      9  N   LIG    1       -2.375   9.127   3.031  0.00  0.00    -0.600 N 
ATOM     10  C   LIG    1       -2.972   9.723   4.220  0.00  0.00    +0.240 C 
ATOM     11  C   LIG    1       -2.185  10.965   4.646  0.00  0.00    +0.010 C 
ATOM     12  C   LIG    1       -2.022  11.881   3.427  0.00  0.00    +0.030 C 
ATOM     13  C   LIG    1       -1.101  11.188   2.421  0.00  0.00    +0.060 C 
ATOM     14  C   LIG    1       -1.555   9.773   2.202  0.00  0.00    +0.510 C 
ATOM     15  O   LIG    1       -1.155   9.188   1.218  0.00  0.00    -0.540 OA
ENDBRANCH   6   9
ENDBRANCH   1   3
BRANCH   1  18
ATOM     16  N   LIG    1       -1.238   2.069   0.019  0.00  0.00    -0.690 N 
ATOM     17  H   LIG    1       -2.048   1.619  -0.267  0.00  0.00    +0.410 HD
ATOM     18  C   LIG    1       -1.286   3.353   0.426  0.00  0.00    +0.530 C 
ATOM     19  O   LIG    1       -0.262   3.943   0.697  0.00  0.00    -0.500 OA
BRANCH  16  24
ATOM     20  C   LIG    1        3.703  -0.723  -0.025  0.00  0.00    +0.100 C 
ATOM     21  C   LIG    1        2.392   0.020  -0.013  0.00  0.00    -0.060 A 
ATOM     22  C   LIG    1        1.576  -0.037   1.102  0.00  0.00    +0.020 A 
ATOM     23  C   LIG    1        0.373   0.642   1.116  0.00  0.00    -0.060 A 
ATOM     24  C   LIG    1       -0.017   1.384   0.010  0.00  0.00    +0.140 A 
ATOM     25  C   LIG    1        0.805   1.440  -1.110  0.00  0.00    -0.020 A 
ATOM     26 CL   LIG    1        0.322   2.365  -2.497  0.00  0.00    -0.060 Cl
ATOM     27  C   LIG    1       -0.515   0.578   2.332  0.00  0.00    +0.110 C 
ATOM     28  C   LIG    1        2.007   0.758  -1.117  0.00  0.00    +0.030 A 
ENDBRANCH  16  24
ENDBRANCH   1  18
TORSDOF 4
