REMARK  Name = ZINCqH0000037Nco.0
REMARK                            x       y       z     vdW  Elec       q    Type
REMARK                         _______ _______ _______ _____ _____    ______ ____
ROOT
ATOM      1  C   LIG    1        5.382   6.554   0.893  0.00  0.00    +0.160 A 
ATOM      2  C   LIG    1        4.092   6.833   0.456  0.00  0.00    +0.030 A 
ATOM      3  C   LIG    1        3.204   5.805   0.223  0.00  0.00    +0.040 A 
ATOM      4  C   LIG    1        3.602   4.482   0.425  0.00  0.00    -0.040 A 
ATOM      5  C   LIG    1        4.897   4.205   0.870  0.00  0.00    +0.090 A 
ATOM      6  C   LIG    1        5.781   5.237   1.096  0.00  0.00    +0.000 A 
ENDROOT
BRANCH   4   7
ATOM      7  C   LIG    1        2.653   3.377   0.176  0.00  0.00    +0.330 A 
ATOM      8  N   LIG    1        2.718   2.188   0.725  0.00  0.00    -0.480 NA
ATOM      9  C   LIG    1        1.694   1.423   0.276  0.00  0.00    +0.050 A 
ATOM     10  C   LIG    1        1.296   0.106   0.530  0.00  0.00    +0.070 A 
ATOM     11  C   LIG    1        0.182  -0.404  -0.095  0.00  0.00    +0.000 A 
ATOM     12  C   LIG    1       -0.552   0.378  -0.976  0.00  0.00    +0.030 A 
ATOM     13  C   LIG    1       -0.174   1.678  -1.239  0.00  0.00    +0.010 A 
ATOM     14  C   LIG    1        0.947   2.210  -0.618  0.00  0.00    +0.050 A 
ATOM     15  N   LIG    1        1.573   3.441  -0.664  0.00  0.00    -0.490 N 
ATOM     16  C   LIG    1        1.160   4.598  -1.462  0.00  0.00    +0.330 C 
ENDBRANCH   4   7
BRANCH   1  18
ATOM     17  C   LIG    1        5.836   8.766   1.634  0.00  0.00    +0.520 C 
ATOM     18  N   LIG    1        6.279   7.598   1.128  0.00  0.00    -0.670 N 
ATOM     19  H   LIG    1        7.221   7.482   0.927  0.00  0.00    +0.410 HD
ATOM     20  O   LIG    1        4.648   8.943   1.802  0.00  0.00    -0.500 OA
BRANCH  17  21
ATOM     21  C   LIG    1        6.817   9.853   1.992  0.00  0.00    +0.180 C 
BRANCH  21  25
ATOM     22  C   LIG    1        5.154  13.695   4.886  0.00  0.00    +0.180 C 
ATOM     23  C   LIG    1        5.372  12.687   3.787  0.00  0.00    -0.030 A 
ATOM     24  C   LIG    1        6.280  11.682   3.777  0.00  0.00    -0.060 A 
ATOM     25  C   LIG    1        6.071  11.045   2.532  0.00  0.00    +0.020 A 
ATOM     26  N   LIG    1        5.103  11.690   1.947  0.00  0.00    -0.340 NA
ATOM     27  O   LIG    1        4.702  12.605   2.629  0.00  0.00    +0.110 OA
ENDBRANCH  21  25
ENDBRANCH  17  21
ENDBRANCH   1  18
TORSDOF 4
