REMARK  Name = ZINCrg00000fSsSk.0
REMARK                            x       y       z     vdW  Elec       q    Type
REMARK                         _______ _______ _______ _____ _____    ______ ____
ROOT
ATOM      1  N   LIG    1        1.157   3.487   0.010  0.00  0.00    -0.680 N 
ATOM      2  H   LIG    1        0.313   3.961  -0.047  0.00  0.00    +0.410 HD
ATOM      3  C   LIG    1        2.312   4.177   0.104  0.00  0.00    +0.710 C 
ATOM      4  N   LIG    1        2.288   5.520   0.213  0.00  0.00    -0.750 N 
ATOM      5  H   LIG    1        1.440   5.990   0.224  0.00  0.00    +0.410 HD
ATOM      6  O   LIG    1        3.375   3.587   0.091  0.00  0.00    -0.560 OA
ENDROOT
BRANCH   1  10
ATOM      7  C   LIG    1        1.216  -0.682  -0.037  0.00  0.00    +0.160 A 
ATOM      8  C   LIG    1        0.174  -0.009   0.587  0.00  0.00    +0.030 A 
ATOM      9  C   LIG    1        0.154   1.371   0.602  0.00  0.00    +0.010 A 
ATOM     10  C   LIG    1        1.177   2.087  -0.006  0.00  0.00    +0.150 A 
ATOM     11  C   LIG    1        2.219   1.414  -0.630  0.00  0.00    +0.060 A 
ATOM     12  C   LIG    1        2.239   0.034  -0.646  0.00  0.00    +0.040 A 
BRANCH   7  17
ATOM     13  C   LIG    1        2.566  -5.328  -0.853  0.00  0.00    +0.360 C 
ATOM     14  N   LIG    1        1.823  -4.146  -0.408  0.00  0.00    -0.560 N 
ATOM     15  C   LIG    1        0.644  -4.156   0.297  0.00  0.00    +0.510 A 
ATOM     16  N   LIG    1        0.282  -2.934   0.522  0.00  0.00    -0.280 NA
ATOM     17  N   LIG    1        1.236  -2.083  -0.053  0.00  0.00    -0.390 N 
ATOM     18  C   LIG    1        2.180  -2.864  -0.619  0.00  0.00    +0.650 A 
ATOM     19  O   LIG    1        3.173  -2.480  -1.211  0.00  0.00    -0.530 OA
ENDBRANCH   7  17
ENDBRANCH   1  10
BRANCH   4  20
ATOM     20  C   LIG    1        3.543   6.269   0.316  0.00  0.00    +0.290 C 
ATOM     21  C   LIG    1        3.997   6.305   1.776  0.00  0.00    +0.030 C 
ATOM     22  C   LIG    1        5.308   7.087   1.883  0.00  0.00    +0.020 C 
ATOM     23  C   LIG    1        5.091   8.516   1.381  0.00  0.00    +0.030 C 
ATOM     24  C   LIG    1        4.637   8.480  -0.080  0.00  0.00    +0.060 C 
ATOM     25  C   LIG    1        3.326   7.698  -0.187  0.00  0.00    -0.440 C 
BRANCH  25  26
ATOM     26  S   LIG    1        2.788   7.655  -1.918  0.00  0.00    +2.420 S 
ATOM     27  O   LIG    1        1.462   7.145  -1.968  0.00  0.00    -0.930 OA
ATOM     28  O   LIG    1        3.801   7.028  -2.692  0.00  0.00    -0.930 OA
ATOM     29  C   LIG    1        2.744   9.418  -2.341  0.00  0.00    -0.270 C 
ENDBRANCH  25  26
ENDBRANCH   4  20
TORSDOF 4
