REMARK  Name = ZINCpe000015ofgA.0
REMARK                            x       y       z     vdW  Elec       q    Type
REMARK                         _______ _______ _______ _____ _____    ______ ____
ROOT
ATOM      1  C   LIG    1        0.756  -0.529   1.161  0.00  0.00    +0.160 C 
ATOM      2  C   LIG    1        2.197  -0.017   1.231  0.00  0.00    +0.250 C 
ATOM      3  O   LIG    1        2.191   1.413   1.200  0.00  0.00    -0.360 OA
ATOM      4  C   LIG    1        1.572   1.961   0.033  0.00  0.00    +0.110 C 
ATOM      5  C   LIG    1        0.125   1.468  -0.049  0.00  0.00    +0.200 C 
ATOM      6  C   LIG    1        1.588   3.489   0.115  0.00  0.00    +0.070 C 
ATOM      7  C   LIG    1        2.337   1.508  -1.212  0.00  0.00    +0.030 C 
ATOM      8  N   LIG    1        0.112  -0.002  -0.051  0.00  0.00    -0.480 N 
ENDROOT
BRANCH   8   9
ATOM      9  C   LIG    1       -1.173  -0.485  -0.177  0.00  0.00    +0.410 A 
ATOM     10  N   LIG    1       -2.078  -0.278   0.776  0.00  0.00    -0.570 NA
ATOM     11  C   LIG    1       -3.310  -0.733   0.657  0.00  0.00    +0.570 A 
ATOM     12  N   LIG    1       -3.719  -1.421  -0.390  0.00  0.00    -0.550 NA
ATOM     13  C   LIG    1       -2.888  -1.686  -1.394  0.00  0.00    +0.420 A 
ATOM     14  N   LIG    1       -3.294  -2.400  -2.492  0.00  0.00    -0.500 N 
ATOM     15  C   LIG    1       -4.673  -2.888  -2.574  0.00  0.00    +0.340 C 
ATOM     16  C   LIG    1       -2.433  -2.654  -3.496  0.00  0.00    +0.540 A 
ATOM     17  O   LIG    1       -2.812  -3.289  -4.464  0.00  0.00    -0.520 OA
ATOM     18  C   LIG    1       -1.101  -2.196  -3.446  0.00  0.00    -0.060 A 
ATOM     19  C   LIG    1       -0.662  -1.486  -2.374  0.00  0.00    +0.170 A 
ATOM     20  C   LIG    1       -1.562  -1.216  -1.318  0.00  0.00    -0.200 A 
ENDBRANCH   8   9
BRANCH   1  21
ATOM     21  C   LIG    1        0.760  -2.058   1.113  0.00  0.00    +0.110 C 
BRANCH  21  22
ATOM     22  C   LIG    1        1.282  -2.601   2.419  0.00  0.00    +0.460 C 
ATOM     23  O   LIG    1        1.512  -1.849   3.336  0.00  0.00    -0.500 OA
BRANCH  22  25
ATOM     24  C   LIG    1        1.995  -4.370   3.847  0.00  0.00    +0.270 C 
ATOM     25  O   LIG    1        1.491  -3.919   2.562  0.00  0.00    -0.360 OA
ENDBRANCH  22  25
ENDBRANCH  21  22
ENDBRANCH   1  21
TORSDOF 4
