REMARK  Name = ZINCqH00000054GX.1
REMARK                            x       y       z     vdW  Elec       q    Type
REMARK                         _______ _______ _______ _____ _____    ______ ____
ROOT
ATOM      1  N   LIG    1        3.943   0.860   1.865  0.00  0.00    -0.710 N 
ATOM      2  H   LIG    1        4.566   0.525   1.201  0.00  0.00    +0.410 HD
ATOM      3  C   LIG    1        4.247   0.780   3.175  0.00  0.00    +0.520 C 
ATOM      4  O   LIG    1        3.468   1.199   4.005  0.00  0.00    -0.510 OA
ENDROOT
BRANCH   1   5
ATOM      5  C   LIG    1        2.671   1.453   1.443  0.00  0.00    +0.290 C 
BRANCH   5   6
ATOM      6  C   LIG    1        2.556   1.381  -0.081  0.00  0.00    +0.220 C 
BRANCH   6   7
ATOM      7  C   LIG    1        3.609   2.257  -0.708  0.00  0.00    -0.180 A 
ATOM      8  C   LIG    1        3.403   3.485  -1.187  0.00  0.00    +0.010 A 
ATOM      9  C   LIG    1        4.523   4.098  -1.722  0.00  0.00    +0.010 A 
ATOM     10  C   LIG    1        5.641   3.373  -1.667  0.00  0.00    -0.060 A 
ATOM     11  S   LIG    1        5.300   1.818  -0.918  0.00  0.00    +0.130 S 
ENDBRANCH   6   7
BRANCH   6  13
ATOM     12  C   LIG    1        1.815  -0.912   0.164  0.00  0.00    +0.190 C 
ATOM     13  N   LIG    1        2.749  -0.008  -0.521  0.00  0.00    -0.540 NA
ATOM     14  C   LIG    1        2.616  -0.121  -1.980  0.00  0.00    +0.190 C 
ENDBRANCH   6  13
ENDBRANCH   5   6
ENDBRANCH   1   5
BRANCH   3  15
ATOM     15  C   LIG    1        5.554   0.170   3.609  0.00  0.00    +0.230 C 
BRANCH  15  16
ATOM     16  O   LIG    1        5.644   0.199   5.035  0.00  0.00    -0.260 OA
BRANCH  16  17
ATOM     17  C   LIG    1        6.770  -0.317   5.593  0.00  0.00    +0.170 A 
ATOM     18  C   LIG    1        7.752  -0.839   4.801  0.00  0.00    -0.060 A 
ATOM     19  C   LIG    1        8.915  -1.367   5.354  0.00  0.00    +0.080 A 
ATOM     20  C   LIG    1        9.102  -1.389   6.703  0.00  0.00    -0.060 A 
ATOM     21  C   LIG    1        8.112  -0.866   7.552  0.00  0.00    -0.060 A 
ATOM     22  C   LIG    1        8.268  -0.870   8.950  0.00  0.00    +0.080 A 
ATOM     23  C   LIG    1        7.263  -0.346   9.713  0.00  0.00    -0.010 A 
ATOM     24  C   LIG    1        6.125   0.173   9.101  0.00  0.00    +0.290 A 
ATOM     25  N   LIG    1        5.983   0.175   7.798  0.00  0.00    -0.440 NA
ATOM     26 CL   LIG    1       10.558  -2.058   7.371  0.00  0.00    -0.060 Cl
ATOM     27  C   LIG    1        6.928  -0.322   6.995  0.00  0.00    +0.120 A 
ENDBRANCH  16  17
ENDBRANCH  15  16
ENDBRANCH   3  15
TORSDOF 7
