REMARK  Name = ZINCqH0000005cDl.0
REMARK                            x       y       z     vdW  Elec       q    Type
REMARK                         _______ _______ _______ _____ _____    ______ ____
ROOT
ATOM      1  C   LIG    1        3.633   2.068  -0.177  0.00  0.00    +0.240 C 
ENDROOT
BRANCH   1   2
ATOM      2  C   LIG    1        2.393   1.215  -0.258  0.00  0.00    -0.110 A 
ATOM      3  C   LIG    1        1.147   1.809  -0.279  0.00  0.00    +0.150 A 
ATOM      4  C   LIG    1        0.009   1.026  -0.353  0.00  0.00    -0.080 A 
ATOM      5  C   LIG    1        0.117  -0.350  -0.404  0.00  0.00    +0.150 A 
ATOM      6  C   LIG    1        1.362  -0.950  -0.384  0.00  0.00    -0.210 A 
ATOM      7  C   LIG    1        1.468  -2.453  -0.438  0.00  0.00    +0.300 C 
ATOM      8  O   LIG    1        2.809  -2.821  -0.776  0.00  0.00    -0.370 OA
ATOM      9  C   LIG    1        3.793  -2.140   0.011  0.00  0.00    +0.440 C 
ATOM     10  O   LIG    1        3.736  -0.744  -0.295  0.00  0.00    -0.300 OA
ATOM     11  C   LIG    1        2.504  -0.168  -0.311  0.00  0.00    +0.210 A 
BRANCH   4  12
ATOM     12  N   LIG    1       -1.326   1.665  -0.383  0.00  0.00    +0.030 N 
ATOM     13  O   LIG    1       -1.422   2.878  -0.337  0.00  0.00    -0.160 OA
ATOM     14  O   LIG    1       -2.329   0.977  -0.453  0.00  0.00    -0.160 OA
ENDBRANCH   4  12
ENDBRANCH   1   2
BRANCH   1  16
ATOM     15  C   LIG    1        3.333   2.962  -2.407  0.00  0.00    +0.190 C 
ATOM     16  N   LIG    1        4.222   2.204  -1.516  0.00  0.00    -0.530 NA
BRANCH  16  17
ATOM     17  C   LIG    1        5.551   2.825  -1.446  0.00  0.00    +0.200 C 
BRANCH  17  18
ATOM     18  C   LIG    1        6.568   1.798  -0.942  0.00  0.00    +0.190 C 
BRANCH  18  19
ATOM     19  O   LIG    1        6.684   0.738  -1.894  0.00  0.00    -0.290 OA
BRANCH  19  20
ATOM     20  C   LIG    1        7.553  -0.264  -1.597  0.00  0.00    +0.150 A 
ATOM     21  C   LIG    1        8.282  -0.225  -0.417  0.00  0.00    -0.080 A 
ATOM     22  C   LIG    1        9.161  -1.247  -0.116  0.00  0.00    +0.080 A 
ATOM     23  C   LIG    1        9.322  -2.304  -0.994  0.00  0.00    -0.130 A 
ATOM     24  C   LIG    1        8.600  -2.342  -2.173  0.00  0.00    +0.090 A 
ATOM     25 BR   LIG    1       10.531  -3.699  -0.581  0.00  0.00    -0.050 Br
ATOM     26  C   LIG    1        7.716  -1.325  -2.476  0.00  0.00    -0.010 A 
ENDBRANCH  19  20
ENDBRANCH  18  19
ENDBRANCH  17  18
ENDBRANCH  16  17
ENDBRANCH   1  16
TORSDOF 7
