REMARK  Name = ZINCnE00000dSTlZ.1
REMARK                            x       y       z     vdW  Elec       q    Type
REMARK                         _______ _______ _______ _____ _____    ______ ____
ROOT
ATOM      1  C   LIG    1       10.415  -2.213  -0.105  0.00  0.00    -0.430 A 
ATOM      2  C   LIG    1       10.711  -0.877  -0.102  0.00  0.00    +0.210 A 
ATOM      3  N   LIG    1        9.659  -0.099  -0.089  0.00  0.00    -0.560 NA
ATOM      4  C   LIG    1        8.491  -0.674  -0.081  0.00  0.00    +0.350 A 
ATOM      5  C   LIG    1       12.122  -0.349  -0.113  0.00  0.00    +0.140 C 
ATOM      6  S   LIG    1        8.661  -2.375  -0.084  0.00  0.00    +0.110 S 
ENDROOT
BRANCH   4   7
ATOM      7  N   LIG    1        7.283  -0.003  -0.066  0.00  0.00    -0.640 NA
ATOM      8  C   LIG    1        6.127  -0.697  -0.059  0.00  0.00    +0.480 C 
ATOM      9  O   LIG    1        6.147  -1.913  -0.065  0.00  0.00    -0.590 OA
BRANCH   8  10
ATOM     10  C   LIG    1        4.848   0.014  -0.044  0.00  0.00    +0.000 C 
ATOM     11  C   LIG    1        3.692  -0.680  -0.036  0.00  0.00    +0.040 C 
BRANCH  11  12
ATOM     12  C   LIG    1        2.405   0.035  -0.021  0.00  0.00    -0.050 A 
ATOM     13  C   LIG    1        1.203  -0.681  -0.013  0.00  0.00    +0.010 A 
ATOM     14  C   LIG    1        0.002  -0.004   0.002  0.00  0.00    +0.000 A 
ATOM     15  C   LIG    1       -0.017   1.380   0.010  0.00  0.00    -0.010 A 
ATOM     16  C   LIG    1        1.168   2.095   0.002  0.00  0.00    +0.000 A 
ATOM     17  C   LIG    1        2.377   1.433  -0.013  0.00  0.00    +0.020 A 
ENDBRANCH  11  12
ENDBRANCH   8  10
ENDBRANCH   4   7
BRANCH   1  18
ATOM     18  C   LIG    1       11.381  -3.309  -0.119  0.00  0.00    +0.560 C 
ATOM     19  O   LIG    1       12.574  -3.069  -0.129  0.00  0.00    -0.540 OA
BRANCH  18  20
ATOM     20  O   LIG    1       10.951  -4.588  -0.121  0.00  0.00    -0.350 OA
BRANCH  20  21
ATOM     21  C   LIG    1       11.950  -5.609  -0.134  0.00  0.00    +0.230 C 
BRANCH  21  23
ATOM     22  C   LIG    1       11.711  -7.900  -0.945  0.00  0.00    +0.030 C 
ATOM     23  C   LIG    1       11.287  -6.962  -0.134  0.00  0.00    -0.030 C 
ENDBRANCH  21  23
ENDBRANCH  20  21
ENDBRANCH  18  20
ENDBRANCH   1  18
TORSDOF 7
