REMARK  Name = ZINCqH0000006YJ0.0
REMARK                            x       y       z     vdW  Elec       q    Type
REMARK                         _______ _______ _______ _____ _____    ______ ____
ROOT
ATOM      1  C   LIG    1       -1.272  -0.765   0.010  0.00  0.00    +0.110 A 
ATOM      2  C   LIG    1       -1.322  -2.112  -0.003  0.00  0.00    -0.070 A 
ATOM      3  S   LIG    1       -3.017  -2.590   0.015  0.00  0.00    +0.180 S 
ATOM      4  C   LIG    1       -3.494  -0.949   0.028  0.00  0.00    +0.010 A 
ATOM      5  N   LIG    1       -2.461  -0.180   0.023  0.00  0.00    -0.440 NA
ENDROOT
BRANCH   1   9
ATOM      6  C   LIG    1        2.383   1.415  -0.013  0.00  0.00    +0.110 A 
ATOM      7  C   LIG    1        2.403   0.028  -0.021  0.00  0.00    -0.040 A 
ATOM      8  C   LIG    1        1.219  -0.682  -0.013  0.00  0.00    +0.070 A 
ATOM      9  C   LIG    1        0.002  -0.004   0.002  0.00  0.00    -0.030 A 
ATOM     10  C   LIG    1       -0.017   1.390   0.010  0.00  0.00    +0.070 A 
ATOM     11  C   LIG    1        1.171   2.095   0.002  0.00  0.00    +0.070 A 
ATOM     12  F   LIG    1        1.154   3.445   0.009  0.00  0.00    -0.130 F 
BRANCH   6  14
ATOM     13  C   LIG    1        4.760   1.348  -0.035  0.00  0.00    +0.250 C 
ATOM     14  O   LIG    1        3.551   2.110  -0.020  0.00  0.00    -0.310 OA
ENDBRANCH   6  14
ENDBRANCH   1   9
BRANCH   4  15
ATOM     15  C   LIG    1       -4.922  -0.469   0.043  0.00  0.00    +0.440 C 
BRANCH  15  16
ATOM     16  N   LIG    1       -5.397  -0.307  -1.334  0.00  0.00    -0.580 N 
ATOM     17  C   LIG    1       -5.296   0.831  -2.044  0.00  0.00    +0.570 C 
ATOM     18  C   LIG    1       -5.880   0.603  -3.383  0.00  0.00    -0.140 A 
ATOM     19  C   LIG    1       -6.051   1.390  -4.511  0.00  0.00    +0.100 A 
ATOM     20  C   LIG    1       -6.662   0.856  -5.635  0.00  0.00    +0.050 A 
ATOM     21  C   LIG    1       -7.102  -0.454  -5.638  0.00  0.00    +0.040 A 
ATOM     22  C   LIG    1       -6.938  -1.253  -4.516  0.00  0.00    +0.100 A 
ATOM     23  C   LIG    1       -6.329  -0.733  -3.386  0.00  0.00    -0.140 A 
ATOM     24  O   LIG    1       -4.804   1.870  -1.653  0.00  0.00    -0.440 OA
ATOM     25  C   LIG    1       -5.997  -1.274  -2.051  0.00  0.00    +0.570 C 
ATOM     26  O   LIG    1       -6.227  -2.403  -1.666  0.00  0.00    -0.460 OA
ENDBRANCH  15  16
ENDBRANCH   4  15
TORSDOF 4
