REMARK  Name = ZINCqH0000037nqy.0
REMARK                            x       y       z     vdW  Elec       q    Type
REMARK                         _______ _______ _______ _____ _____    ______ ____
ROOT
ATOM      1  C   LIG    1       -0.013   1.086   0.008  0.00  0.00    +0.080 C 
ATOM      2  C   LIG    1       -0.729   1.579   1.267  0.00  0.00    +0.030 C 
ATOM      3  C   LIG    1       -2.158   1.057   1.272  0.00  0.00    +0.030 C 
ATOM      4  C   LIG    1       -3.065   1.666   2.307  0.00  0.00    +0.300 C 
ATOM      5  N   LIG    1       -2.661   1.272   3.666  0.00  0.00    -0.560 N 
ATOM      6  C   LIG    1       -1.743   2.082   4.348  0.00  0.00    +0.150 A 
ATOM      7  C   LIG    1       -2.190   2.924   5.359  0.00  0.00    +0.010 A 
ATOM      8  C   LIG    1       -1.307   3.801   5.962  0.00  0.00    +0.040 A 
ATOM      9  C   LIG    1        0.019   3.847   5.573  0.00  0.00    +0.030 A 
ATOM     10  C   LIG    1        0.478   2.996   4.581  0.00  0.00    +0.080 A 
ATOM     11  C   LIG    1       -0.404   2.114   3.986  0.00  0.00    -0.100 A 
ATOM     12  C   LIG    1       -3.162   0.161   4.240  0.00  0.00    +0.550 C 
ATOM     13  O   LIG    1       -3.956  -0.529   3.636  0.00  0.00    -0.510 OA
ATOM     14  S   LIG    1        0.157   0.983   2.736  0.00  0.00    -0.150 S 
ENDROOT
BRANCH  12  15
ATOM     15  C   LIG    1       -2.735  -0.225   5.633  0.00  0.00    +0.110 C 
BRANCH  15  16
ATOM     16  S   LIG    1       -3.575  -1.753   6.120  0.00  0.00    +0.110 S 
BRANCH  16  17
ATOM     17  C   LIG    1       -2.910  -1.964   7.739  0.00  0.00    +0.200 A 
ATOM     18  N   LIG    1       -2.047  -1.174   8.339  0.00  0.00    -0.340 NA
ATOM     19  N   LIG    1       -1.772  -1.617   9.512  0.00  0.00    -0.030 NA
ATOM     20  N   LIG    1       -2.425  -2.704   9.745  0.00  0.00    -0.070 NA
ATOM     21  N   LIG    1       -3.197  -2.968   8.601  0.00  0.00    -0.350 N 
BRANCH  21  22
ATOM     22  C   LIG    1       -4.113  -4.091   8.386  0.00  0.00    +0.260 C 
ATOM     23  C   LIG    1       -5.203  -4.101   9.477  0.00  0.00    +0.030 C 
ATOM     24  C   LIG    1       -5.434  -5.605   9.768  0.00  0.00    +0.040 C 
ATOM     25  C   LIG    1       -4.006  -6.196   9.675  0.00  0.00    +0.030 C 
ATOM     26  C   LIG    1       -3.352  -5.423   8.511  0.00  0.00    +0.040 C 
ENDBRANCH  21  22
ENDBRANCH  16  17
ENDBRANCH  15  16
ENDBRANCH  12  15
TORSDOF 4
