REMARK  Name = ZINCqH0000007iBg.0
REMARK                            x       y       z     vdW  Elec       q    Type
REMARK                         _______ _______ _______ _____ _____    ______ ____
ROOT
ATOM      1  C   LIG    1        1.183   2.065  -0.013  0.00  0.00    +0.120 A 
ATOM      2  C   LIG    1        2.348   1.336   0.157  0.00  0.00    -0.040 A 
ATOM      3  C   LIG    1        3.573   1.976   0.147  0.00  0.00    +0.030 A 
ATOM      4  C   LIG    1        3.639   3.353  -0.020  0.00  0.00    +0.120 A 
ATOM      5  C   LIG    1        2.473   4.088  -0.184  0.00  0.00    +0.070 A 
ATOM      6  C   LIG    1        1.244   3.447  -0.181  0.00  0.00    +0.120 A 
ENDROOT
BRANCH   6   7
ATOM      7  N   LIG    1        0.066   4.187  -0.347  0.00  0.00    -0.550 N 
ATOM      8  C   LIG    1       -0.428   4.389  -1.703  0.00  0.00    +0.270 C 
ATOM      9  C   LIG    1       -1.907   4.780  -1.681  0.00  0.00    +0.040 C 
ATOM     10  C   LIG    1       -2.092   5.943  -0.700  0.00  0.00    +0.030 C 
ATOM     11  C   LIG    1       -1.824   5.429   0.717  0.00  0.00    +0.070 C 
ATOM     12  C   LIG    1       -0.535   4.658   0.746  0.00  0.00    +0.520 C 
ATOM     13  O   LIG    1       -0.011   4.457   1.821  0.00  0.00    -0.540 OA
ENDBRANCH   6   7
BRANCH   4  14
ATOM     14  N   LIG    1        4.882   3.999  -0.024  0.00  0.00    -0.670 N 
ATOM     15  H   LIG    1        5.661   3.549  -0.385  0.00  0.00    +0.410 HD
ATOM     16  C   LIG    1        4.994   5.246   0.475  0.00  0.00    +0.510 C 
ATOM     17  O   LIG    1        4.043   5.772   1.013  0.00  0.00    -0.500 OA
BRANCH  16  18
ATOM     18  C   LIG    1        6.301   5.987   0.364  0.00  0.00    +0.120 C 
BRANCH  18  19
ATOM     19  C   LIG    1        6.162   7.349   0.994  0.00  0.00    -0.080 A 
ATOM     20  C   LIG    1        5.758   8.427   0.229  0.00  0.00    +0.020 A 
ATOM     21  C   LIG    1        5.625   9.675   0.808  0.00  0.00    +0.000 A 
ATOM     22  C   LIG    1        5.907   9.848   2.150  0.00  0.00    -0.080 A 
ATOM     23  C   LIG    1        6.317   8.771   2.914  0.00  0.00    +0.000 A 
ATOM     24  C   LIG    1        5.769  11.210   2.780  0.00  0.00    +0.090 C 
ATOM     25  C   LIG    1        6.444   7.522   2.336  0.00  0.00    +0.020 A 
ENDBRANCH  18  19
ENDBRANCH  16  18
ENDBRANCH   4  14
BRANCH   1  27
ATOM     26  C   LIG    1       -0.010   0.015   0.168  0.00  0.00    +0.250 C 
ATOM     27  O   LIG    1       -0.022   1.433  -0.009  0.00  0.00    -0.310 OA
ENDBRANCH   1  27
TORSDOF 5
