REMARK  Name = ZINCpe00000gMOOg.0
REMARK                            x       y       z     vdW  Elec       q    Type
REMARK                         _______ _______ _______ _____ _____    ______ ____
ROOT
ATOM      1  C   LIG    1        2.852   1.009  -1.441  0.00  0.00    +0.450 C 
ATOM      2  O   LIG    1        2.151   1.385  -2.350  0.00  0.00    -0.490 OA
ENDROOT
BRANCH   1   3
ATOM      3  O   LIG    1        4.012   0.386  -1.700  0.00  0.00    -0.330 OA
BRANCH   3   4
ATOM      4  C   LIG    1        4.362   0.199  -3.097  0.00  0.00    +0.280 C 
BRANCH   4   7
ATOM      5  N   LIG    1        6.214  -0.795  -4.400  0.00  0.00    -0.630 N 
ATOM      6  H   LIG    1        5.741  -0.541  -5.208  0.00  0.00    +0.420 HD
ATOM      7  C   LIG    1        5.687  -0.512  -3.193  0.00  0.00    +0.530 C 
ATOM      8  O   LIG    1        6.279  -0.830  -2.183  0.00  0.00    -0.490 OA
BRANCH   5  12
ATOM      9  C   LIG    1       10.505  -3.099  -3.336  0.00  0.00    +0.190 C 
ATOM     10  C   LIG    1        9.320  -2.463  -4.014  0.00  0.00    -0.020 A 
ATOM     11  C   LIG    1        8.254  -1.890  -3.409  0.00  0.00    -0.040 A 
ATOM     12  C   LIG    1        7.441  -1.454  -4.489  0.00  0.00    +0.240 A 
ATOM     13  N   LIG    1        8.070  -1.798  -5.582  0.00  0.00    -0.380 NA
ATOM     14  O   LIG    1        9.115  -2.353  -5.335  0.00  0.00    +0.100 OA
ENDBRANCH   5  12
ENDBRANCH   4   7
ENDBRANCH   3   4
ENDBRANCH   1   3
BRANCH   1  15
ATOM     15  C   LIG    1        2.423   1.239  -0.015  0.00  0.00    +0.410 C 
BRANCH  15  16
ATOM     16  N   LIG    1        1.132   1.932   0.002  0.00  0.00    -0.540 N 
ATOM     17  C   LIG    1        1.098   3.290   0.010  0.00  0.00    +0.580 A 
ATOM     18  N   LIG    1       -0.004   3.976   0.024  0.00  0.00    -0.510 NA
ATOM     19  C   LIG    1       -1.219   3.371   0.032  0.00  0.00    +0.150 A 
ATOM     20  C   LIG    1       -2.404   4.108   0.047  0.00  0.00    +0.030 A 
ATOM     21  C   LIG    1       -3.615   3.452   0.055  0.00  0.00    +0.070 A 
ATOM     22  C   LIG    1       -3.673   2.065   0.048  0.00  0.00    +0.010 A 
ATOM     23  C   LIG    1       -2.516   1.316   0.033  0.00  0.00    +0.100 A 
ATOM     24  C   LIG    1       -1.281   1.960   0.019  0.00  0.00    -0.190 A 
ATOM     25  C   LIG    1       -0.014   1.213   0.009  0.00  0.00    +0.550 A 
ATOM     26  O   LIG    1        0.002  -0.004   0.002  0.00  0.00    -0.500 OA
ENDBRANCH  15  16
ENDBRANCH   1  15
TORSDOF 6
