REMARK  Name = ZINC650000003WlB.0
REMARK                            x       y       z     vdW  Elec       q    Type
REMARK                         _______ _______ _______ _____ _____    ______ ____
ROOT
ATOM      1  C   LIG    1        2.422   1.183  -0.015  0.00  0.00    +0.290 C 
ATOM      2  N   LIG    1        1.143   1.898   0.001  0.00  0.00    -0.730 N 
ATOM      3  H   LIG    1        1.130   2.868   0.007  0.00  0.00    +0.400 HD
ATOM      4  C   LIG    1       -0.014   1.209   0.009  0.00  0.00    +0.500 C 
ATOM      5  O   LIG    1        0.002  -0.004   0.002  0.00  0.00    -0.510 OA
ENDROOT
BRANCH   4   6
ATOM      6  C   LIG    1       -1.330   1.944   0.019  0.00  0.00    +0.170 C 
ATOM      7 CL   LIG    1       -2.684   0.754   0.019  0.00  0.00    -0.130 Cl
ENDBRANCH   4   6
TORSDOF 1
