REMARK  Name = ZINCrH000004qxF8.0
REMARK                            x       y       z     vdW  Elec       q    Type
REMARK                         _______ _______ _______ _____ _____    ______ ____
ROOT
ATOM      1  C   LIG    1       -1.235   3.090  -0.238  0.00  0.00    -0.100 A 
ATOM      2  C   LIG    1       -1.237   1.719   0.040  0.00  0.00    +0.100 A 
ATOM      3  C   LIG    1       -0.052   1.018   0.030  0.00  0.00    +0.120 A 
ATOM      4  C   LIG    1        1.141   1.672  -0.266  0.00  0.00    -0.070 A 
ATOM      5  C   LIG    1        1.139   3.036  -0.546  0.00  0.00    +0.010 A 
ATOM      6  C   LIG    1       -0.032   3.739  -0.533  0.00  0.00    +0.170 A 
ENDROOT
BRANCH   1   9
ATOM      7  N   LIG    1       -3.658   3.221   0.061  0.00  0.00    -0.660 N 
ATOM      8  H   LIG    1       -3.653   2.287   0.321  0.00  0.00    +0.410 HD
ATOM      9  C   LIG    1       -2.499   3.848  -0.224  0.00  0.00    +0.560 C 
ATOM     10  O   LIG    1       -2.497   5.039  -0.470  0.00  0.00    -0.500 OA
BRANCH   7  16
ATOM     11  C   LIG    1       -6.184   7.396   0.657  0.00  0.00    +0.090 C 
ATOM     12  C   LIG    1       -6.121   5.943   0.264  0.00  0.00    -0.060 A 
ATOM     13  C   LIG    1       -7.262   5.297  -0.175  0.00  0.00    -0.010 A 
ATOM     14  C   LIG    1       -7.209   3.963  -0.536  0.00  0.00    -0.060 A 
ATOM     15  C   LIG    1       -6.016   3.272  -0.460  0.00  0.00    -0.020 A 
ATOM     16  C   LIG    1       -4.868   3.918  -0.019  0.00  0.00    +0.140 A 
ATOM     17  C   LIG    1       -8.455   3.263  -1.015  0.00  0.00    +0.090 C 
ATOM     18  C   LIG    1       -4.926   5.256   0.348  0.00  0.00    +0.020 A 
ENDBRANCH   7  16
ENDBRANCH   1   9
BRANCH   5  19
ATOM     19  N   LIG    1        2.410   3.727  -0.860  0.00  0.00    +0.020 N 
ATOM     20  O   LIG    1        3.456   3.102  -0.873  0.00  0.00    -0.130 OA
ATOM     21  O   LIG    1        2.411   4.920  -1.106  0.00  0.00    -0.150 OA
ENDBRANCH   5  19
BRANCH   4  22
ATOM     22  S   LIG    1        2.656   0.772  -0.284  0.00  0.00    +0.170 S 
BRANCH  22  23
ATOM     23  C   LIG    1        2.889   0.602  -2.023  0.00  0.00    +0.140 A 
ATOM     24  N   LIG    1        2.048   0.967  -2.962  0.00  0.00    -0.290 NA
ATOM     25  N   LIG    1        2.542   0.698  -4.118  0.00  0.00    -0.290 NA
ATOM     26  C   LIG    1        3.712   0.141  -3.986  0.00  0.00    +0.400 A 
ATOM     27  N   LIG    1        3.976   0.060  -2.647  0.00  0.00    -0.460 N 
ATOM     28  C   LIG    1        5.175  -0.493  -2.013  0.00  0.00    +0.360 C 
ENDBRANCH  22  23
ENDBRANCH   4  22
TORSDOF 5
