REMARK  Name = ZINCrD00000hQ4ek.0
REMARK                            x       y       z     vdW  Elec       q    Type
REMARK                         _______ _______ _______ _____ _____    ______ ____
ROOT
ATOM      1  C   LIG    1       -2.788  -2.098  -1.426  0.00  0.00    +0.520 C 
ATOM      2  N   LIG    1       -3.336  -2.498  -2.591  0.00  0.00    -0.720 N 
ATOM      3  H   LIG    1       -2.957  -2.200  -3.433  0.00  0.00    +0.410 HD
ATOM      4  O   LIG    1       -3.261  -2.470  -0.373  0.00  0.00    -0.540 OA
ENDROOT
BRANCH   1   5
ATOM      5  C   LIG    1       -1.586  -1.188  -1.432  0.00  0.00    +0.040 C 
BRANCH   5   6
ATOM      6  C   LIG    1       -1.166  -0.888   0.008  0.00  0.00    +0.330 C 
BRANCH   6  16
ATOM      7  C   LIG    1       -1.263   2.203   0.020  0.00  0.00    +0.190 C 
ATOM      8  C   LIG    1       -0.016   1.356   0.009  0.00  0.00    +0.280 A 
ATOM      9  N   LIG    1        1.199   1.820   0.000  0.00  0.00    -0.490 NA
ATOM     10  C   LIG    1        2.082   0.788  -0.014  0.00  0.00    +0.050 A 
ATOM     11  C   LIG    1        3.477   0.713  -0.027  0.00  0.00    +0.070 A 
ATOM     12  C   LIG    1        4.093  -0.506  -0.040  0.00  0.00    +0.000 A 
ATOM     13  C   LIG    1        3.347  -1.676  -0.039  0.00  0.00    +0.030 A 
ATOM     14  C   LIG    1        1.969  -1.626  -0.025  0.00  0.00    +0.010 A 
ATOM     15  C   LIG    1        1.326  -0.397  -0.013  0.00  0.00    +0.050 A 
ATOM     16  N   LIG    1        0.002  -0.004   0.002  0.00  0.00    -0.490 N 
ENDBRANCH   6  16
ENDBRANCH   5   6
ENDBRANCH   1   5
BRANCH   2  17
ATOM     17  C   LIG    1       -4.504  -3.382  -2.585  0.00  0.00    +0.290 C 
BRANCH  17  18
ATOM     18  C   LIG    1       -4.924  -3.681  -4.025  0.00  0.00    +0.130 C 
ATOM     19  C   LIG    1       -6.230  -4.514  -4.052  0.00  0.00    +0.210 C 
ATOM     20  O   LIG    1       -6.770  -4.163  -5.347  0.00  0.00    -0.360 OA
ATOM     21  C   LIG    1       -6.454  -2.763  -5.518  0.00  0.00    +0.270 C 
ATOM     22  C   LIG    1       -6.030  -2.576  -6.996  0.00  0.00    +0.030 C 
ATOM     23  C   LIG    1       -6.977  -3.337  -7.879  0.00  0.00    +0.020 C 
ATOM     24  C   LIG    1       -8.136  -2.466  -8.406  0.00  0.00    +0.000 C 
ATOM     25  C   LIG    1       -8.717  -1.532  -7.328  0.00  0.00    +0.000 C 
ATOM     26  C   LIG    1       -8.847  -2.218  -5.995  0.00  0.00    +0.040 C 
ATOM     27  C   LIG    1       -7.587  -1.912  -5.168  0.00  0.00    +0.010 C 
ATOM     28  O   LIG    1       -5.296  -2.470  -4.709  0.00  0.00    -0.380 OA
ENDBRANCH  17  18
ENDBRANCH   2  17
TORSDOF 5
