REMARK  Name = ZINC9p0000006ldh.0
REMARK                            x       y       z     vdW  Elec       q    Type
REMARK                         _______ _______ _______ _____ _____    ______ ____
ROOT
ATOM      1  C   LIG    1       -0.735   1.564   1.296  0.00  0.00    +0.060 C 
ATOM      2  C   LIG    1        0.073   1.390   2.596  0.00  0.00    +0.080 C 
ATOM      3  C   LIG    1        0.270   2.822   3.144  0.00  0.00    +0.070 C 
ATOM      4  C   LIG    1       -0.880   3.612   2.470  0.00  0.00    +0.270 C 
ATOM      5  N   LIG    1       -0.956   3.014   1.109  0.00  0.00    -0.520 N 
ATOM      6  H   LIG    1       -1.865   3.179   0.704  0.00  0.00    +0.430 HD
ATOM      7  H   LIG    1       -0.235   3.403   0.519  0.00  0.00    +0.430 HD
ENDROOT
BRANCH   1   9
ATOM      8  C   LIG    1        1.394   1.727  -0.000  0.00  0.00    +0.030 C 
ATOM      9  C   LIG    1        0.053   1.000   0.113  0.00  0.00    +0.060 C 
ENDBRANCH   1   9
BRANCH   1  10
ATOM     10  C   LIG    1       -2.079   0.844   1.418  0.00  0.00    +0.060 C 
ATOM     11  C   LIG    1       -2.890   1.058   0.138  0.00  0.00    +0.030 C 
ENDBRANCH   1  10
TORSDOF 2
