REMARK  Name = ZINCrD0000071mE0.0
REMARK                            x       y       z     vdW  Elec       q    Type
REMARK                         _______ _______ _______ _____ _____    ______ ____
ROOT
ATOM      1  C   LIG    1       -3.670  -1.102  -0.023  0.00  0.00    +0.190 C 
ENDROOT
BRANCH   1   2
ATOM      2  C   LIG    1       -3.428  -2.402  -0.747  0.00  0.00    +0.530 C 
ATOM      3  N   LIG    1       -4.452  -3.040  -1.346  0.00  0.00    -0.610 N 
ATOM      4  C   LIG    1       -4.261  -4.362  -1.962  0.00  0.00    +0.310 C 
ATOM      5  C   LIG    1       -5.104  -5.384  -1.183  0.00  0.00    +0.110 C 
ATOM      6  C   LIG    1       -6.485  -4.810  -0.949  0.00  0.00    -0.170 A 
ATOM      7  C   LIG    1       -6.806  -3.505  -1.038  0.00  0.00    -0.120 A 
ATOM      8  C   LIG    1       -8.144  -3.236  -0.765  0.00  0.00    +0.020 A 
ATOM      9  C   LIG    1       -8.893  -4.292  -0.467  0.00  0.00    -0.040 A 
ATOM     10  S   LIG    1       -7.909  -5.747  -0.514  0.00  0.00    +0.110 S 
ATOM     11  C   LIG    1       -5.788  -2.432  -1.407  0.00  0.00    +0.350 C 
ATOM     12  O   LIG    1       -2.311  -2.873  -0.791  0.00  0.00    -0.510 OA
ENDBRANCH   1   2
BRANCH   1  14
ATOM     13  C   LIG    1       -4.399  -0.080   2.137  0.00  0.00    +0.040 C 
ATOM     14  C   LIG    1       -4.050  -1.392   1.430  0.00  0.00    -0.010 C 
ATOM     15  C   LIG    1       -5.261  -2.326   1.464  0.00  0.00    +0.040 C 
ENDBRANCH   1  14
BRANCH   1  16
ATOM     16  O   LIG    1       -2.462  -0.297  -0.056  0.00  0.00    -0.320 OA
BRANCH  16  17
ATOM     17  C   LIG    1       -2.618   1.041  -0.045  0.00  0.00    +0.520 C 
ATOM     18  O   LIG    1       -3.733   1.522  -0.009  0.00  0.00    -0.510 OA
BRANCH  17  19
ATOM     19  C   LIG    1       -1.436   1.921  -0.077  0.00  0.00    -0.170 A 
ATOM     20  C   LIG    1       -1.610   3.293  -0.061  0.00  0.00    +0.190 A 
ATOM     21  C   LIG    1       -0.482   4.131  -0.096  0.00  0.00    -0.230 A 
ATOM     22  C   LIG    1       -0.287   5.503  -0.098  0.00  0.00    +0.320 A 
ATOM     23  N   LIG    1        1.030   5.730  -0.143  0.00  0.00    -0.420 N 
ATOM     24  H   LIG    1        1.444   6.607  -0.153  0.00  0.00    +0.450 HD
ATOM     25  N   LIG    1        1.725   4.515  -0.172  0.00  0.00    -0.300 NA
ATOM     26  C   LIG    1        0.858   3.522  -0.145  0.00  0.00    +0.130 A 
ATOM     27  C   LIG    1        0.968   2.112  -0.154  0.00  0.00    +0.030 A 
ATOM     28  C   LIG    1       -0.147   1.348  -0.119  0.00  0.00    +0.100 A 
ENDBRANCH  17  19
ENDBRANCH  16  17
ENDBRANCH   1  16
TORSDOF 5
