REMARK  Name = ZINCpk00000ebO8n.0
REMARK                            x       y       z     vdW  Elec       q    Type
REMARK                         _______ _______ _______ _____ _____    ______ ____
ROOT
ATOM      1  N   LIG    1       -1.864   1.654  -2.501  0.00  0.00    -0.710 N 
ATOM      2  H   LIG    1       -1.323   0.920  -2.833  0.00  0.00    +0.410 HD
ENDROOT
BRANCH   1   4
ATOM      3  C   LIG    1       -1.725   0.899  -0.173  0.00  0.00    -0.070 A 
ATOM      4  C   LIG    1       -2.144   1.753  -1.129  0.00  0.00    +0.420 A 
ATOM      5  N   LIG    1       -2.879   2.713  -0.545  0.00  0.00    -0.460 NA
ATOM      6  C   LIG    1       -2.924   2.490   0.749  0.00  0.00    +0.230 A 
ATOM      7  S   LIG    1       -3.553   3.088   2.292  0.00  0.00    +0.220 S 
ATOM      8  C   LIG    1       -2.827   1.783   3.247  0.00  0.00    +0.030 A 
ATOM      9  C   LIG    1       -2.189   1.020   2.378  0.00  0.00    +0.210 A 
ATOM     10  N   LIG    1       -2.219   1.366   1.046  0.00  0.00    -0.390 N 
BRANCH   3  12
ATOM     11  O   LIG    1       -1.415  -1.389  -0.594  0.00  0.00    -0.120 OA
ATOM     12  N   LIG    1       -0.887  -0.313  -0.379  0.00  0.00    +0.050 N 
ATOM     13  O   LIG    1        0.327  -0.227  -0.338  0.00  0.00    -0.120 OA
ENDBRANCH   3  12
ENDBRANCH   1   4
BRANCH   1  14
ATOM     14  C   LIG    1       -2.387   2.658  -3.430  0.00  0.00    +0.300 C 
BRANCH  14  15
ATOM     15  C   LIG    1       -1.814   2.408  -4.827  0.00  0.00    +0.140 C 
BRANCH  15  16
ATOM     16  N   LIG    1       -0.390   2.769  -4.844  0.00  0.00    -0.530 NA
ATOM     17  C   LIG    1        0.234   2.392  -6.120  0.00  0.00    +0.150 C 
ATOM     18  C   LIG    1        1.698   2.838  -6.118  0.00  0.00    +0.220 C 
ATOM     19  O   LIG    1        2.367   2.256  -4.996  0.00  0.00    -0.380 OA
ATOM     20  C   LIG    1        1.786   2.603  -3.736  0.00  0.00    +0.220 C 
ATOM     21  C   LIG    1        0.323   2.154  -3.714  0.00  0.00    +0.150 C 
ENDBRANCH  15  16
BRANCH  15  22
ATOM     22  C   LIG    1       -2.568   3.262  -5.848  0.00  0.00    -0.020 C 
ATOM     23  C   LIG    1       -4.071   2.903  -5.849  0.00  0.00    +0.000 C 
ATOM     24  C   LIG    1       -4.771   4.217  -5.438  0.00  0.00    +0.190 C 
ATOM     25  O   LIG    1       -3.840   5.260  -5.800  0.00  0.00    -0.380 OA
ATOM     26  C   LIG    1       -2.535   4.751  -5.438  0.00  0.00    +0.220 C 
ENDBRANCH  15  22
ENDBRANCH  14  15
ENDBRANCH   1  14
TORSDOF 6
