REMARK  Name = ZINCpe000000UnLI.0
REMARK                            x       y       z     vdW  Elec       q    Type
REMARK                         _______ _______ _______ _____ _____    ______ ____
ROOT
ATOM      1  C   LIG    1        1.153   7.130  -3.060  0.00  0.00    +0.080 C 
ATOM      2  N   LIG    1        1.111   6.365  -2.012  0.00  0.00    -0.210 NA
ATOM      3  N   LIG    1       -0.093   6.114  -1.348  0.00  0.00    -0.450 N 
ATOM      4  C   LIG    1       -1.271   6.319  -1.969  0.00  0.00    +0.500 C 
ATOM      5  C   LIG    1       -1.290   6.840  -3.384  0.00  0.00    +0.090 C 
ATOM      6  O   LIG    1       -2.312   6.090  -1.391  0.00  0.00    -0.510 OA
ATOM      7  C   LIG    1       -0.097   7.775  -3.595  0.00  0.00    +0.110 C 
ENDROOT
BRANCH   1  10
ATOM      8  N   LIG    1        3.560   6.794  -3.260  0.00  0.00    -0.710 N 
ATOM      9  H   LIG    1        3.521   6.224  -2.476  0.00  0.00    +0.410 HD
ATOM     10  C   LIG    1        2.435   7.368  -3.732  0.00  0.00    +0.580 C 
ATOM     11  O   LIG    1        2.483   8.083  -4.714  0.00  0.00    -0.510 OA
BRANCH   8  12
ATOM     12  C   LIG    1        4.840   7.032  -3.931  0.00  0.00    +0.290 C 
BRANCH  12  13
ATOM     13  C   LIG    1        5.948   6.271  -3.200  0.00  0.00    +0.050 C 
BRANCH  13  16
ATOM     14  C   LIG    1        9.670   6.179  -4.089  0.00  0.00    +0.290 C 
ATOM     15  N   LIG    1        8.390   5.941  -3.418  0.00  0.00    -0.620 N 
ATOM     16  C   LIG    1        7.265   6.515  -3.890  0.00  0.00    +0.520 C 
ATOM     17  O   LIG    1        7.313   7.228  -4.870  0.00  0.00    -0.530 OA
ATOM     18  C   LIG    1        8.332   5.080  -2.235  0.00  0.00    +0.280 C 
ENDBRANCH  13  16
ENDBRANCH  12  13
ENDBRANCH   8  12
ENDBRANCH   1  10
BRANCH   3  19
ATOM     19  C   LIG    1       -0.074   5.619   0.031  0.00  0.00    +0.390 C 
BRANCH  19  20
ATOM     20  C   LIG    1       -0.054   4.112   0.023  0.00  0.00    -0.130 A 
ATOM     21  C   LIG    1        1.153   3.438   0.009  0.00  0.00    +0.080 A 
ATOM     22  C   LIG    1        1.173   2.056   0.002  0.00  0.00    -0.020 A 
ATOM     23  C   LIG    1       -0.016   1.347   0.009  0.00  0.00    +0.110 A 
ATOM     24  C   LIG    1       -1.224   2.023   0.019  0.00  0.00    -0.020 A 
ATOM     25  F   LIG    1        0.002  -0.004   0.002  0.00  0.00    -0.140 F 
ATOM     26  C   LIG    1       -1.242   3.405   0.031  0.00  0.00    +0.070 A 
ENDBRANCH  19  20
ENDBRANCH   3  19
TORSDOF 6
