REMARK  Name = ZINCqH0000033aJR.0
REMARK                            x       y       z     vdW  Elec       q    Type
REMARK                         _______ _______ _______ _____ _____    ______ ____
ROOT
ATOM      1  N   LIG    1        2.901   4.737   0.899  0.00  0.00    -0.640 N 
ATOM      2  H   LIG    1        3.863   4.621   0.950  0.00  0.00    +0.420 HD
ATOM      3  C   LIG    1        2.384   5.946   0.605  0.00  0.00    +0.510 C 
ATOM      4  O   LIG    1        1.181   6.091   0.541  0.00  0.00    -0.440 OA
ENDROOT
BRANCH   1  13
ATOM      5  N   LIG    1        2.473   2.395   1.432  0.00  0.00    -0.500 N 
ATOM      6  C   LIG    1        1.336   1.619   1.583  0.00  0.00    +0.050 A 
ATOM      7  C   LIG    1        1.117   0.284   1.887  0.00  0.00    +0.010 A 
ATOM      8  C   LIG    1       -0.173  -0.199   1.966  0.00  0.00    +0.020 A 
ATOM      9  C   LIG    1       -1.253   0.642   1.744  0.00  0.00    +0.010 A 
ATOM     10  C   LIG    1       -1.054   1.971   1.441  0.00  0.00    +0.060 A 
ATOM     11  C   LIG    1        0.246   2.476   1.357  0.00  0.00    +0.060 A 
ATOM     12  N   LIG    1        0.754   3.706   1.084  0.00  0.00    -0.470 NA
ATOM     13  C   LIG    1        2.061   3.661   1.127  0.00  0.00    +0.500 A 
BRANCH   5  14
ATOM     14  C   LIG    1        3.859   1.943   1.572  0.00  0.00    +0.300 C 
BRANCH  14  16
ATOM     15  C   LIG    1        5.825   0.986   0.363  0.00  0.00    +0.030 C 
ATOM     16  C   LIG    1        4.377   1.459   0.216  0.00  0.00    +0.000 C 
ENDBRANCH  14  16
ENDBRANCH   5  14
ENDBRANCH   1  13
BRANCH   3  17
ATOM     17  C   LIG    1        3.298   7.118   0.357  0.00  0.00    +0.090 C 
BRANCH  17  18
ATOM     18  C   LIG    1        2.462   8.361   0.048  0.00  0.00    +0.360 C 
BRANCH  18  19
ATOM     19  C   LIG    1        3.376   9.502  -0.321  0.00  0.00    -0.200 A 
ATOM     20  C   LIG    1        3.638   9.906  -1.565  0.00  0.00    +0.020 A 
ATOM     21  C   LIG    1        4.507  10.979  -1.659  0.00  0.00    +0.010 A 
ATOM     22  C   LIG    1        4.958  11.441  -0.491  0.00  0.00    -0.050 A 
ATOM     23  S   LIG    1        4.265  10.499   0.823  0.00  0.00    +0.110 S 
ENDBRANCH  18  19
BRANCH  18  24
ATOM     24  N   LIG    1        1.676   8.727   1.228  0.00  0.00    -0.720 N 
ATOM     25  H   LIG    1        1.979   8.467   2.112  0.00  0.00    +0.400 HD
ATOM     26  C   LIG    1        0.532   9.425   1.086  0.00  0.00    +0.520 C 
ATOM     27  O   LIG    1        0.106   9.672  -0.022  0.00  0.00    -0.540 OA
ATOM     28  C   LIG    1       -0.218   9.899   2.304  0.00  0.00    +0.100 C 
ENDBRANCH  18  24
ENDBRANCH  17  18
ENDBRANCH   3  17
TORSDOF 7
