REMARK  Name = ZINCkj00000X59Rf.0
REMARK                            x       y       z     vdW  Elec       q    Type
REMARK                         _______ _______ _______ _____ _____    ______ ____
ROOT
ATOM      1  C   LIG    1       -2.530   1.010   1.499  0.00  0.00    +0.100 C 
ATOM      2  C   LIG    1       -2.545   0.731   3.017  0.00  0.00    +0.210 C 
ATOM      3  N   LIG    1       -1.169   0.950   3.512  0.00  0.00    -0.480 NA
ATOM      4  C   LIG    1       -0.278   0.722   2.346  0.00  0.00    +0.200 C 
ATOM      5  C   LIG    1       -1.061   1.361   1.171  0.00  0.00    +0.180 C 
ENDROOT
BRANCH   1  10
ATOM      6  C   LIG    1       -5.121   5.301   1.760  0.00  0.00    +0.340 C 
ATOM      7  N   LIG    1       -4.556   4.037   1.284  0.00  0.00    -0.450 N 
ATOM      8  C   LIG    1       -4.784   3.458   0.085  0.00  0.00    +0.410 A 
ATOM      9  N   LIG    1       -4.105   2.345   0.021  0.00  0.00    -0.500 NA
ATOM     10  C   LIG    1       -3.432   2.172   1.168  0.00  0.00    -0.030 A 
ATOM     11  C   LIG    1       -3.698   3.220   1.970  0.00  0.00    +0.160 A 
ENDBRANCH   1  10
BRANCH   5  12
ATOM     12  N   LIG    1       -0.657   0.763  -0.108  0.00  0.00    -0.630 N 
ATOM     13  H   LIG    1       -1.222   1.146  -0.852  0.00  0.00    +0.440 HD
ATOM     14  H   LIG    1        0.315   0.969  -0.284  0.00  0.00    +0.440 HD
ATOM     15  H   LIG    1       -0.787  -0.237  -0.069  0.00  0.00    +0.430 HD
ENDBRANCH   5  12
BRANCH   3  16
ATOM     16  C   LIG    1       -0.850   0.024   4.607  0.00  0.00    +0.300 C 
BRANCH  16  17
ATOM     17  C   LIG    1       -1.098  -1.392   4.156  0.00  0.00    -0.080 A 
ATOM     18  C   LIG    1       -2.319  -2.006   4.386  0.00  0.00    +0.000 A 
ATOM     19  C   LIG    1       -2.512  -3.305   3.953  0.00  0.00    +0.290 A 
ATOM     20  N   LIG    1       -1.548  -3.962   3.338  0.00  0.00    -0.460 NA
ATOM     21  C   LIG    1       -0.372  -3.412   3.106  0.00  0.00    +0.290 A 
ATOM     22  C   LIG    1       -0.107  -2.114   3.505  0.00  0.00    -0.100 A 
ATOM     23 CL   LIG    1        1.443  -1.398   3.195  0.00  0.00    -0.040 Cl
ENDBRANCH  16  17
ENDBRANCH   3  16
TORSDOF 4
