REMARK  Name = ZINCqH0000037P0E.0
REMARK                            x       y       z     vdW  Elec       q    Type
REMARK                         _______ _______ _______ _____ _____    ______ ____
ROOT
ATOM      1  N   LIG    1       -4.854  -3.716   2.224  0.00  0.00    -0.730 N 
ATOM      2  H   LIG    1       -5.818  -3.660   2.131  0.00  0.00    +0.400 HD
ATOM      3  C   LIG    1       -4.093  -2.622   2.018  0.00  0.00    +0.710 C 
ATOM      4  N   LIG    1       -4.672  -1.452   1.684  0.00  0.00    -0.660 N 
ATOM      5  H   LIG    1       -5.636  -1.397   1.590  0.00  0.00    +0.400 HD
ATOM      6  O   LIG    1       -2.885  -2.691   2.135  0.00  0.00    -0.560 OA
ENDROOT
BRANCH   4   7
ATOM      7  C   LIG    1       -3.885  -0.320   1.471  0.00  0.00    +0.320 A 
ATOM      8  C   LIG    1       -2.529  -0.254   1.567  0.00  0.00    -0.100 A 
ATOM      9  C   LIG    1       -2.143   1.058   1.278  0.00  0.00    +0.100 A 
ATOM     10  N   LIG    1       -3.219   1.756   1.022  0.00  0.00    -0.280 NA
ATOM     11  N   LIG    1       -4.330   0.911   1.132  0.00  0.00    -0.380 N 
BRANCH   9  12
ATOM     12  C   LIG    1       -0.729   1.579   1.267  0.00  0.00    +0.010 C 
ATOM     13  C   LIG    1       -0.750   3.109   1.275  0.00  0.00    +0.040 C 
ATOM     14  C   LIG    1        0.011   1.072   2.506  0.00  0.00    +0.040 C 
ATOM     15  C   LIG    1       -0.013   1.086   0.008  0.00  0.00    +0.030 C 
ENDBRANCH   9  12
BRANCH  11  16
ATOM     16  C   LIG    1       -5.729   1.294   0.921  0.00  0.00    +0.180 C 
ATOM     17  C   LIG    1       -6.322   0.456  -0.213  0.00  0.00    +0.050 C 
ATOM     18  C   LIG    1       -5.801   2.777   0.551  0.00  0.00    +0.070 C 
ATOM     19  C   LIG    1       -6.524   1.049   2.205  0.00  0.00    +0.040 C 
ENDBRANCH  11  16
ENDBRANCH   4   7
BRANCH   1  20
ATOM     20  C   LIG    1       -4.225  -4.988   2.588  0.00  0.00    +0.260 C 
ATOM     21  C   LIG    1       -4.008  -5.035   4.101  0.00  0.00    +0.030 C 
BRANCH  20  22
ATOM     22  C   LIG    1       -5.133  -6.145   2.167  0.00  0.00    +0.130 C 
BRANCH  22  28
ATOM     23  C   LIG    1       -6.641  -5.199  -2.605  0.00  0.00    +0.150 C 
ATOM     24  C   LIG    1       -5.895  -5.771  -1.427  0.00  0.00    +0.080 A 
ATOM     25  N   LIG    1       -4.929  -6.650  -1.484  0.00  0.00    -0.290 NA
ATOM     26  N   LIG    1       -4.504  -6.920  -0.177  0.00  0.00    -0.470 N 
ATOM     27  H   LIG    1       -3.799  -7.535   0.078  0.00  0.00    +0.440 HD
ATOM     28  C   LIG    1       -5.248  -6.172   0.664  0.00  0.00    +0.090 A 
ATOM     29  C   LIG    1       -6.120  -5.456  -0.083  0.00  0.00    -0.120 A 
ENDBRANCH  22  28
ENDBRANCH  20  22
ENDBRANCH   1  20
TORSDOF 6
