REMARK  Name = ZINCqH0000037P0E.1
REMARK                            x       y       z     vdW  Elec       q    Type
REMARK                         _______ _______ _______ _____ _____    ______ ____
ROOT
ATOM      1  N   LIG    1       -4.854  -3.716   2.224  0.00  0.00    -0.720 N 
ATOM      2  H   LIG    1       -5.818  -3.661   2.130  0.00  0.00    +0.400 HD
ATOM      3  C   LIG    1       -4.093  -2.622   2.018  0.00  0.00    +0.720 C 
ATOM      4  N   LIG    1       -4.672  -1.452   1.683  0.00  0.00    -0.660 N 
ATOM      5  H   LIG    1       -5.636  -1.397   1.589  0.00  0.00    +0.400 HD
ATOM      6  O   LIG    1       -2.885  -2.691   2.136  0.00  0.00    -0.560 OA
ENDROOT
BRANCH   4   7
ATOM      7  C   LIG    1       -3.885  -0.320   1.471  0.00  0.00    +0.330 A 
ATOM      8  C   LIG    1       -2.528  -0.255   1.562  0.00  0.00    -0.100 A 
ATOM      9  C   LIG    1       -2.143   1.058   1.278  0.00  0.00    +0.100 A 
ATOM     10  N   LIG    1       -3.219   1.755   1.016  0.00  0.00    -0.280 NA
ATOM     11  N   LIG    1       -4.330   0.911   1.131  0.00  0.00    -0.380 N 
BRANCH   9  12
ATOM     12  C   LIG    1       -0.729   1.579   1.267  0.00  0.00    +0.010 C 
ATOM     13  C   LIG    1       -0.750   3.109   1.275  0.00  0.00    +0.040 C 
ATOM     14  C   LIG    1        0.011   1.072   2.506  0.00  0.00    +0.040 C 
ATOM     15  C   LIG    1       -0.013   1.086   0.008  0.00  0.00    +0.030 C 
ENDBRANCH   9  12
BRANCH  11  16
ATOM     16  C   LIG    1       -5.729   1.294   0.921  0.00  0.00    +0.180 C 
ATOM     17  C   LIG    1       -6.523   1.049   2.206  0.00  0.00    +0.050 C 
ATOM     18  C   LIG    1       -6.322   0.456  -0.213  0.00  0.00    +0.050 C 
ATOM     19  C   LIG    1       -5.801   2.777   0.551  0.00  0.00    +0.070 C 
ENDBRANCH  11  16
ENDBRANCH   4   7
BRANCH   1  20
ATOM     20  C   LIG    1       -4.225  -4.987   2.588  0.00  0.00    +0.260 C 
ATOM     21  C   LIG    1       -4.009  -5.034   4.102  0.00  0.00    +0.030 C 
BRANCH  20  22
ATOM     22  C   LIG    1       -5.133  -6.145   2.167  0.00  0.00    +0.140 C 
BRANCH  22  26
ATOM     23  C   LIG    1       -5.009  -7.757  -2.662  0.00  0.00    +0.140 C 
ATOM     24  C   LIG    1       -5.187  -6.893  -1.440  0.00  0.00    +0.090 A 
ATOM     25  C   LIG    1       -4.957  -7.265  -0.160  0.00  0.00    -0.120 A 
ATOM     26  C   LIG    1       -5.246  -6.173   0.665  0.00  0.00    +0.080 A 
ATOM     27  N   LIG    1       -5.627  -5.178  -0.095  0.00  0.00    -0.290 NA
ATOM     28  N   LIG    1       -5.598  -5.607  -1.427  0.00  0.00    -0.480 N 
ATOM     29  H   LIG    1       -5.832  -5.075  -2.204  0.00  0.00    +0.440 HD
ENDBRANCH  22  26
ENDBRANCH  20  22
ENDBRANCH   1  20
TORSDOF 6
