REMARK  Name = ZINCkj000005jEOx.0
REMARK                            x       y       z     vdW  Elec       q    Type
REMARK                         _______ _______ _______ _____ _____    ______ ____
ROOT
ATOM      1  N   LIG    1        3.454   4.423   2.265  0.00  0.00    -0.510 N 
ATOM      2  H   LIG    1        2.831   5.210   2.162  0.00  0.00    +0.430 HD
ATOM      3  H   LIG    1        4.266   4.558   1.681  0.00  0.00    +0.420 HD
ENDROOT
BRANCH   1   5
ATOM      4  C   LIG    1        2.637   4.231   4.566  0.00  0.00    +0.100 C 
ATOM      5  C   LIG    1        3.874   4.311   3.668  0.00  0.00    +0.170 C 
BRANCH   5   6
ATOM      6  C   LIG    1        4.704   5.538   4.052  0.00  0.00    +0.130 C 
BRANCH   6   7
ATOM      7  C   LIG    1        5.982   5.549   3.254  0.00  0.00    -0.150 A 
ATOM      8  C   LIG    1        7.138   5.015   3.792  0.00  0.00    +0.060 A 
ATOM      9  C   LIG    1        8.309   5.020   3.057  0.00  0.00    +0.030 A 
ATOM     10  C   LIG    1        8.328   5.569   1.789  0.00  0.00    +0.060 A 
ATOM     11  C   LIG    1        7.175   6.109   1.251  0.00  0.00    +0.010 A 
ATOM     12  C   LIG    1        6.000   6.099   1.983  0.00  0.00    +0.070 A 
ATOM     13  F   LIG    1        4.872   6.626   1.458  0.00  0.00    -0.150 F 
ENDBRANCH   6   7
ENDBRANCH   5   6
ENDBRANCH   1   5
BRANCH   1  14
ATOM     14  C   LIG    1        2.760   3.193   1.862  0.00  0.00    +0.240 C 
BRANCH  14  15
ATOM     15  C   LIG    1        2.324   3.310   0.400  0.00  0.00    +0.340 C 
BRANCH  15  16
ATOM     16  N   LIG    1        1.631   2.083  -0.002  0.00  0.00    -0.990 NA
ATOM     17  C   LIG    1        2.265   0.855  -0.490  0.00  0.00    +0.250 C 
ATOM     18  C   LIG    1        1.267  -0.243  -0.872  0.00  0.00    +0.090 C 
ATOM     19  C   LIG    1        0.002  -0.004   0.002  0.00  0.00    -0.280 C 
ATOM     20  S   LIG    1       -0.023   1.835   0.012  0.00  0.00    +2.560 S 
ATOM     21  O   LIG    1       -0.470   2.342   1.262  0.00  0.00    -0.950 OA
ATOM     22  O   LIG    1       -0.493   2.355  -1.224  0.00  0.00    -0.930 OA
ENDBRANCH  15  16
ENDBRANCH  14  15
ENDBRANCH   1  14
TORSDOF 6
