REMARK  Name = ZINCkj000005lkx5.0
REMARK                            x       y       z     vdW  Elec       q    Type
REMARK                         _______ _______ _______ _____ _____    ______ ____
ROOT
ATOM      1  N   LIG    1        1.059   1.894   0.002  0.00  0.00    -0.380 N 
ATOM      2  C   LIG    1       -0.013   1.076   0.008  0.00  0.00    +0.310 A 
ATOM      3  C   LIG    1       -1.120   1.875   0.017  0.00  0.00    -0.090 A 
ATOM      4  N   LIG    1       -0.720   3.158   0.025  0.00  0.00    -0.190 NA
ATOM      5  N   LIG    1        0.567   3.207   0.013  0.00  0.00    -0.060 NA
ENDROOT
BRANCH   3   6
ATOM      6  C   LIG    1       -2.520   1.409   0.021  0.00  0.00    +0.600 C 
ATOM      7  N   LIG    1       -3.528   2.303   0.029  0.00  0.00    -0.710 N 
ATOM      8  H   LIG    1       -3.334   3.253   0.033  0.00  0.00    +0.410 HD
ATOM      9  O   LIG    1       -2.764   0.217   0.015  0.00  0.00    -0.530 OA
BRANCH   7  10
ATOM     10  C   LIG    1       -4.918   1.840   0.033  0.00  0.00    +0.260 C 
BRANCH  10  11
ATOM     11  C   LIG    1       -5.858   3.047   0.043  0.00  0.00    +0.010 C 
BRANCH  11  12
ATOM     12  C   LIG    1       -7.309   2.563   0.047  0.00  0.00    +0.030 C 
BRANCH  12  13
ATOM     13  C   LIG    1       -8.249   3.771   0.057  0.00  0.00    -0.020 C 
ATOM     14  C   LIG    1       -8.123   4.527   1.396  0.00  0.00    +0.010 C 
ATOM     15  C   LIG    1       -9.569   4.990   1.708  0.00  0.00    +0.010 C 
ATOM     16  C   LIG    1      -10.423   3.789   1.231  0.00  0.00    -0.010 C 
ATOM     17  C   LIG    1       -9.711   3.302  -0.048  0.00  0.00    +0.010 C 
ENDBRANCH  12  13
ENDBRANCH  11  12
ENDBRANCH  10  11
ENDBRANCH   7  10
ENDBRANCH   3   6
BRANCH   1  18
ATOM     18  C   LIG    1        2.467   1.489  -0.012  0.00  0.00    +0.360 C 
BRANCH  18  19
ATOM     19  C   LIG    1        3.175   2.148  -1.197  0.00  0.00    +0.040 C 
BRANCH  19  20
ATOM     20  C   LIG    1        4.645   1.726  -1.212  0.00  0.00    +0.280 C 
BRANCH  20  21
ATOM     21  N   LIG    1        5.325   2.359  -2.350  0.00  0.00    -0.640 N 
ATOM     22  H   LIG    1        5.265   3.362  -2.262  0.00  0.00    +0.440 HD
ATOM     23  H   LIG    1        4.883   2.070  -3.210  0.00  0.00    +0.440 HD
ATOM     24  H   LIG    1        6.295   2.080  -2.360  0.00  0.00    +0.440 HD
ENDBRANCH  20  21
ENDBRANCH  19  20
ENDBRANCH  18  19
ENDBRANCH   1  18
TORSDOF 9
