REMARK  Name = ZINCpk00000e9gCD.0
REMARK                            x       y       z     vdW  Elec       q    Type
REMARK                         _______ _______ _______ _____ _____    ______ ____
ROOT
ATOM      1  C   LIG    1       -2.587   3.166   4.532  0.00  0.00    +0.290 C 
ENDROOT
BRANCH   1   2
ATOM      2  C   LIG    1       -3.099   2.086   5.449  0.00  0.00    +0.470 C 
ATOM      3  O   LIG    1       -2.936   0.923   5.162  0.00  0.00    -0.470 OA
BRANCH   2   4
ATOM      4  O   LIG    1       -3.735   2.414   6.584  0.00  0.00    -0.350 OA
BRANCH   4   5
ATOM      5  C   LIG    1       -4.200   1.321   7.419  0.00  0.00    +0.390 C 
BRANCH   5  10
ATOM      6  N   LIG    1       -6.192   2.174   8.765  0.00  0.00    -0.290 N 
ATOM      7  N   LIG    1       -6.367   2.623   9.961  0.00  0.00    -0.080 NA
ATOM      8  N   LIG    1       -5.237   2.619  10.577  0.00  0.00    -0.070 NA
ATOM      9  N   LIG    1       -4.323   2.164   9.790  0.00  0.00    -0.270 NA
ATOM     10  C   LIG    1       -4.884   1.878   8.641  0.00  0.00    +0.170 A 
BRANCH   6  11
ATOM     11  C   LIG    1       -7.221   2.015   7.735  0.00  0.00    +0.340 C 
BRANCH  11  13
ATOM     12  C   LIG    1       -8.914   0.454   6.766  0.00  0.00    +0.040 C 
ATOM     13  C   LIG    1       -7.838   0.620   7.841  0.00  0.00    +0.010 C 
ENDBRANCH  11  13
ENDBRANCH   6  11
ENDBRANCH   5  10
ENDBRANCH   4   5
ENDBRANCH   2   4
ENDBRANCH   1   2
BRANCH   1  14
ATOM     14  O   LIG    1       -1.952   2.569   3.399  0.00  0.00    -0.280 OA
BRANCH  14  15
ATOM     15  C   LIG    1       -1.433   3.410   2.469  0.00  0.00    +0.130 A 
ATOM     16  C   LIG    1       -1.534   4.785   2.645  0.00  0.00    -0.040 A 
ATOM     17  C   LIG    1       -1.009   5.643   1.705  0.00  0.00    +0.070 A 
ATOM     18  C   LIG    1       -0.373   5.131   0.568  0.00  0.00    -0.170 A 
ATOM     19  C   LIG    1       -0.267   3.745   0.394  0.00  0.00    +0.030 A 
ATOM     20  C   LIG    1       -0.800   2.892   1.339  0.00  0.00    +0.100 A 
BRANCH  18  21
ATOM     21  C   LIG    1        0.188   6.045  -0.436  0.00  0.00    +0.400 C 
ATOM     22  O   LIG    1        0.826   5.603  -1.369  0.00  0.00    -0.460 OA
ATOM     23  C   LIG    1       -0.029   7.530  -0.308  0.00  0.00    +0.080 C 
ENDBRANCH  18  21
BRANCH  20  24
ATOM     24  O   LIG    1       -0.703   1.546   1.171  0.00  0.00    -0.300 OA
ATOM     25  C   LIG    1       -0.042   1.086  -0.009  0.00  0.00    +0.250 C 
ENDBRANCH  20  24
ENDBRANCH  14  15
ENDBRANCH   1  14
TORSDOF 10
