REMARK  Name = ZINCpk000000pNcK.0
REMARK                            x       y       z     vdW  Elec       q    Type
REMARK                         _______ _______ _______ _____ _____    ______ ____
ROOT
ATOM      1  N   LIG    1        2.625   4.735   1.037  0.00  0.00    -0.740 N 
ATOM      2  H   LIG    1        3.244   4.478   1.738  0.00  0.00    +0.400 HD
ATOM      3  C   LIG    1        1.467   4.064   0.882  0.00  0.00    +0.710 C 
ATOM      4  N   LIG    1        1.122   3.103   1.762  0.00  0.00    -0.630 N 
ATOM      5  C   LIG    1        2.043   2.689   2.831  0.00  0.00    +0.270 C 
ATOM      6  C   LIG    1        2.162   1.161   2.803  0.00  0.00    +0.150 C 
ATOM      7  O   LIG    1        0.853   0.587   2.836  0.00  0.00    -0.340 OA
ATOM      8  C   LIG    1        0.040   0.920   1.708  0.00  0.00    +0.200 C 
ATOM      9  C   LIG    1        0.746   0.485   0.422  0.00  0.00    +0.020 C 
ATOM     10  C   LIG    1       -0.187   2.436   1.680  0.00  0.00    +0.290 C 
ATOM     11  O   LIG    1        0.733   4.326  -0.051  0.00  0.00    -0.580 OA
ENDROOT
BRANCH   6  12
ATOM     12  C   LIG    1        2.946   0.695   4.003  0.00  0.00    +0.530 C 
ATOM     13  O   LIG    1        2.407   0.019   4.854  0.00  0.00    -0.510 OA
ATOM     14  N   LIG    1        4.245   1.030   4.131  0.00  0.00    -0.850 N 
ATOM     15  H   LIG    1        4.749   0.730   4.903  0.00  0.00    +0.410 HD
ATOM     16  H   LIG    1        4.676   1.571   3.450  0.00  0.00    +0.400 HD
ENDBRANCH   6  12
BRANCH   1  17
ATOM     17  C   LIG    1        2.950   5.852   0.146  0.00  0.00    +0.310 C 
BRANCH  17  18
ATOM     18  C   LIG    1        4.310   6.435   0.534  0.00  0.00    +0.160 C 
BRANCH  18  20
ATOM     19  C   LIG    1        6.061   8.105  -0.090  0.00  0.00    +0.020 C 
ATOM     20  C   LIG    1        4.649   7.602  -0.396  0.00  0.00    +0.020 C 
ENDBRANCH  18  20
BRANCH  18  21
ATOM     21  O   LIG    1        4.261   6.901   1.884  0.00  0.00    -0.300 OA
BRANCH  21  22
ATOM     22  C   LIG    1        5.395   6.772   2.622  0.00  0.00    +0.130 A 
ATOM     23  C   LIG    1        6.510   6.150   2.080  0.00  0.00    -0.090 A 
ATOM     24  C   LIG    1        7.662   6.021   2.833  0.00  0.00    +0.050 A 
ATOM     25  C   LIG    1        7.703   6.510   4.125  0.00  0.00    -0.040 A 
ATOM     26  C   LIG    1        6.593   7.131   4.668  0.00  0.00    -0.040 A 
ATOM     27  C   LIG    1        6.641   7.664   6.076  0.00  0.00    +0.090 C 
ATOM     28  C   LIG    1        5.441   7.268   3.917  0.00  0.00    -0.030 A 
ENDBRANCH  21  22
ENDBRANCH  18  21
ENDBRANCH  17  18
ENDBRANCH   1  17
TORSDOF 6
