REMARK  Name = ZINCpk00000xYBIy.0
REMARK                            x       y       z     vdW  Elec       q    Type
REMARK                         _______ _______ _______ _____ _____    ______ ____
ROOT
ATOM      1  C   LIG    1       -3.256   2.444  -3.352  0.00  0.00    +0.310 C 
ENDROOT
BRANCH   1   2
ATOM      2  C   LIG    1       -4.189   3.081  -2.320  0.00  0.00    +0.120 C 
ATOM      3  C   LIG    1       -4.483   4.550  -2.692  0.00  0.00    +0.040 C 
ATOM      4  C   LIG    1       -4.530   5.303  -1.346  0.00  0.00    +0.180 C 
ATOM      5  C   LIG    1       -4.260   4.225  -0.274  0.00  0.00    +0.160 C 
ATOM      6  F   LIG    1       -3.538   6.288  -1.305  0.00  0.00    -0.200 F 
ATOM      7  N   LIG    1       -3.520   3.157  -0.995  0.00  0.00    -0.480 NA
BRANCH   7   8
ATOM      8  C   LIG    1       -3.617   1.876  -0.282  0.00  0.00    +0.290 C 
BRANCH   8   9
ATOM      9  C   LIG    1       -5.053   1.620   0.097  0.00  0.00    +0.040 A 
ATOM     10  C   LIG    1       -5.954   0.911  -0.622  0.00  0.00    -0.100 A 
ATOM     11  C   LIG    1       -7.165   0.920   0.078  0.00  0.00    +0.230 A 
ATOM     12  N   LIG    1       -6.996   1.604   1.180  0.00  0.00    -0.290 NA
ATOM     13  N   LIG    1       -5.669   2.053   1.217  0.00  0.00    -0.370 N 
ATOM     14  C   LIG    1       -5.061   2.857   2.280  0.00  0.00    +0.350 C 
ENDBRANCH   8   9
ENDBRANCH   7   8
ENDBRANCH   1   2
BRANCH   1  16
ATOM     15  C   LIG    1       -1.470   1.070  -2.186  0.00  0.00    +0.290 C 
ATOM     16  N   LIG    1       -2.775   1.156  -2.846  0.00  0.00    -0.610 N 
ATOM     17  C   LIG    1       -3.533   0.051  -2.987  0.00  0.00    +0.510 C 
ATOM     18  O   LIG    1       -4.572   0.103  -3.611  0.00  0.00    -0.530 OA
BRANCH  17  19
ATOM     19  C   LIG    1       -3.089  -1.251  -2.370  0.00  0.00    +0.030 C 
BRANCH  19  20
ATOM     20  C   LIG    1       -4.031  -2.373  -2.814  0.00  0.00    +0.150 C 
ATOM     21  C   LIG    1       -5.462  -2.091  -2.312  0.00  0.00    +0.010 C 
ATOM     22  C   LIG    1       -6.013  -3.489  -1.935  0.00  0.00    +0.010 C 
ATOM     23  C   LIG    1       -4.778  -4.189  -1.316  0.00  0.00    +0.020 C 
ATOM     24  C   LIG    1       -3.596  -3.706  -2.181  0.00  0.00    +0.040 C 
BRANCH  20  25
ATOM     25  O   LIG    1       -4.024  -2.482  -4.239  0.00  0.00    -0.560 OA
ATOM     26  H   LIG    1       -4.300  -1.675  -4.696  0.00  0.00    +0.380 HD
ENDBRANCH  20  25
ENDBRANCH  19  20
ENDBRANCH  17  19
ENDBRANCH   1  16
TORSDOF 7
