REMARK  Name = ZINCrg000000mRIX.0
REMARK                            x       y       z     vdW  Elec       q    Type
REMARK                         _______ _______ _______ _____ _____    ______ ____
ROOT
ATOM      1  S   LIG    1       -2.173   7.755   0.040  0.00  0.00    +2.690 S 
ATOM      2  O   LIG    1       -1.146   8.620   0.505  0.00  0.00    -0.950 OA
ATOM      3  O   LIG    1       -3.442   7.646   0.670  0.00  0.00    -0.950 OA
ENDROOT
BRANCH   1  10
ATOM      4  C   LIG    1        2.356   2.683  -0.180  0.00  0.00    +0.120 C 
ATOM      5  C   LIG    1        1.190   1.734  -0.084  0.00  0.00    +0.520 C 
ATOM      6  N   LIG    1       -0.067   2.216  -0.010  0.00  0.00    -0.550 N 
ATOM      7  C   LIG    1       -0.406   3.573  -0.009  0.00  0.00    +0.210 A 
ATOM      8  C   LIG    1        0.424   4.693  -0.080  0.00  0.00    -0.040 A 
ATOM      9  C   LIG    1       -0.117   5.961  -0.065  0.00  0.00    +0.160 A 
ATOM     10  C   LIG    1       -1.486   6.133   0.022  0.00  0.00    -0.700 A 
ATOM     11  C   LIG    1       -2.315   5.028   0.093  0.00  0.00    +0.170 A 
ATOM     12  C   LIG    1       -1.777   3.756   0.078  0.00  0.00    -0.150 A 
ATOM     13  C   LIG    1       -2.441   2.398   0.142  0.00  0.00    +0.110 C 
ATOM     14  C   LIG    1       -1.278   1.395   0.075  0.00  0.00    +0.230 C 
ATOM     15  C   LIG    1       -1.248   0.536   1.341  0.00  0.00    +0.050 C 
ATOM     16  O   LIG    1        1.381   0.536  -0.079  0.00  0.00    -0.510 OA
ENDBRANCH   1  10
BRANCH   1  17
ATOM     17  N   LIG    1       -2.467   8.181  -1.533  0.00  0.00    -1.000 NA
ATOM     18  C   LIG    1       -1.444   8.873  -2.332  0.00  0.00    +0.320 C 
ATOM     19  C   LIG    1       -1.271   8.112  -3.656  0.00  0.00    +0.170 C 
ATOM     20  N   LIG    1       -2.579   7.973  -4.309  0.00  0.00    -0.520 NA
ATOM     21  C   LIG    1       -3.498   7.167  -3.495  0.00  0.00    +0.170 C 
ATOM     22  C   LIG    1       -3.761   7.883  -2.166  0.00  0.00    +0.320 C 
BRANCH  20  23
ATOM     23  C   LIG    1       -2.436   7.408  -5.658  0.00  0.00    +0.110 C 
ATOM     24  C   LIG    1       -3.784   7.459  -6.412  0.00  0.00    +0.020 C 
ATOM     25  C   LIG    1       -3.496   8.358  -7.634  0.00  0.00    +0.200 C 
ATOM     26  O   LIG    1       -2.070   8.258  -7.838  0.00  0.00    -0.370 OA
ATOM     27  C   LIG    1       -1.494   8.282  -6.514  0.00  0.00    +0.210 C 
ENDBRANCH  20  23
ENDBRANCH   1  17
TORSDOF 3
