REMARK  Name = ZINCtV00000L6kNc.0
REMARK                            x       y       z     vdW  Elec       q    Type
REMARK                         _______ _______ _______ _____ _____    ______ ____
ROOT
ATOM      1  C   LIG    1       -0.749   3.086   1.275  0.00  0.00    +0.300 A 
ATOM      2  N   LIG    1       -1.296   3.829   0.358  0.00  0.00    -0.480 NA
ATOM      3  C   LIG    1       -1.137   5.139   0.676  0.00  0.00    +0.050 A 
ATOM      4  C   LIG    1       -1.521   6.334   0.062  0.00  0.00    +0.070 A 
ATOM      5  C   LIG    1       -1.200   7.530   0.639  0.00  0.00    +0.000 A 
ATOM      6  C   LIG    1       -0.495   7.573   1.834  0.00  0.00    +0.030 A 
ATOM      7  C   LIG    1       -0.107   6.407   2.458  0.00  0.00    +0.010 A 
ATOM      8  C   LIG    1       -0.424   5.182   1.887  0.00  0.00    +0.050 A 
ATOM      9  N   LIG    1       -0.193   3.868   2.240  0.00  0.00    -0.490 N 
ENDROOT
BRANCH   1  10
ATOM     10  C   LIG    1       -0.729   1.579   1.267  0.00  0.00    +0.120 C 
ATOM     11  C   LIG    1       -0.013   1.086   0.008  0.00  0.00    +0.060 C 
BRANCH  10  15
ATOM     12  C   LIG    1       -4.737   0.101   1.298  0.00  0.00    -0.070 A 
ATOM     13  C   LIG    1       -3.871  -0.227   2.324  0.00  0.00    +0.000 A 
ATOM     14  C   LIG    1       -2.574   0.251   2.314  0.00  0.00    +0.010 A 
ATOM     15  C   LIG    1       -2.143   1.058   1.278  0.00  0.00    -0.090 A 
ATOM     16  C   LIG    1       -3.010   1.390   0.254  0.00  0.00    +0.050 A 
ATOM     17  C   LIG    1       -4.305   0.908   0.261  0.00  0.00    +0.000 A 
BRANCH  12  18
ATOM     18  C   LIG    1       -6.150  -0.420   1.308  0.00  0.00    +0.060 C 
BRANCH  18  20
ATOM     19  C   LIG    1       -7.113   1.885   1.263  0.00  0.00    +0.010 C 
ATOM     20  C   LIG    1       -7.054   0.571   2.044  0.00  0.00    -0.020 C 
ATOM     21  C   LIG    1       -8.462  -0.015   2.164  0.00  0.00    +0.020 C 
ENDBRANCH  18  20
ENDBRANCH  12  18
ENDBRANCH  10  15
ENDBRANCH   1  10
BRANCH   9  22
ATOM     22  C   LIG    1        0.519   3.401   3.432  0.00  0.00    +0.300 C 
BRANCH  22  23
ATOM     23  C   LIG    1        2.009   3.260   3.114  0.00  0.00    +0.060 C 
BRANCH  23  24
ATOM     24  C   LIG    1        2.741   2.780   4.340  0.00  0.00    -0.090 A 
ATOM     25  C   LIG    1        3.261   3.694   5.237  0.00  0.00    +0.010 A 
ATOM     26  C   LIG    1        3.929   3.253   6.364  0.00  0.00    +0.000 A 
ATOM     27  C   LIG    1        4.085   1.899   6.590  0.00  0.00    +0.000 A 
ATOM     28  C   LIG    1        3.570   0.984   5.690  0.00  0.00    +0.000 A 
ATOM     29  C   LIG    1        2.897   1.425   4.566  0.00  0.00    +0.010 A 
ENDBRANCH  23  24
ENDBRANCH  22  23
ENDBRANCH   9  22
TORSDOF 7
