REMARK  Name = ZINCqH0000005B6r.0
REMARK                            x       y       z     vdW  Elec       q    Type
REMARK                         _______ _______ _______ _____ _____    ______ ____
ROOT
ATOM      1  N   LIG    1        2.925   4.370  -1.189  0.00  0.00    -0.720 N 
ATOM      2  H   LIG    1        2.327   4.061  -1.888  0.00  0.00    +0.400 HD
ATOM      3  C   LIG    1        4.148   4.838  -1.508  0.00  0.00    +0.520 C 
ATOM      4  O   LIG    1        4.896   5.224  -0.634  0.00  0.00    -0.500 OA
ENDROOT
BRANCH   3   5
ATOM      5  C   LIG    1        4.587   4.882  -2.949  0.00  0.00    +0.160 C 
ATOM      6  C   LIG    1        4.570   3.466  -3.530  0.00  0.00    +0.060 C 
BRANCH   5   7
ATOM      7  O   LIG    1        5.911   5.413  -3.028  0.00  0.00    -0.270 OA
BRANCH   7   8
ATOM      8  C   LIG    1        6.270   6.005  -4.198  0.00  0.00    +0.150 A 
ATOM      9  C   LIG    1        5.409   5.971  -5.285  0.00  0.00    -0.040 A 
ATOM     10  C   LIG    1        5.776   6.573  -6.474  0.00  0.00    +0.080 A 
ATOM     11  C   LIG    1        7.000   7.209  -6.581  0.00  0.00    -0.060 A 
ATOM     12  C   LIG    1        7.860   7.243  -5.498  0.00  0.00    +0.090 A 
ATOM     13 CL   LIG    1        7.457   7.964  -8.076  0.00  0.00    -0.050 Cl
ATOM     14  C   LIG    1        7.496   6.647  -4.305  0.00  0.00    -0.060 A 
ATOM     15 CL   LIG    1        8.572   6.697  -2.944  0.00  0.00    -0.040 Cl
ENDBRANCH   7   8
ENDBRANCH   5   7
ENDBRANCH   3   5
BRANCH   1  16
ATOM     16  C   LIG    1        2.498   4.327   0.212  0.00  0.00    +0.320 C 
BRANCH  16  22
ATOM     17  C   LIG    1        0.901   2.401   0.228  0.00  0.00    -0.060 A 
ATOM     18  C   LIG    1       -0.380   1.886   0.305  0.00  0.00    +0.030 A 
ATOM     19  C   LIG    1       -1.460   2.738   0.443  0.00  0.00    +0.020 A 
ATOM     20  C   LIG    1       -1.258   4.104   0.514  0.00  0.00    +0.020 A 
ATOM     21  C   LIG    1        0.023   4.618   0.438  0.00  0.00    +0.030 A 
ATOM     22  C   LIG    1        1.102   3.767   0.295  0.00  0.00    -0.090 A 
BRANCH  17  23
ATOM     23  C   LIG    1        2.078   1.472   0.072  0.00  0.00    +0.150 C 
BRANCH  23  24
ATOM     24  C   LIG    1        2.665   1.173   1.427  0.00  0.00    +0.460 C 
ATOM     25  O   LIG    1        2.179   1.664   2.418  0.00  0.00    -0.490 OA
BRANCH  24  27
ATOM     26  C   LIG    1        4.243   0.119   2.869  0.00  0.00    +0.260 C 
ATOM     27  O   LIG    1        3.730   0.362   1.533  0.00  0.00    -0.360 OA
ENDBRANCH  24  27
ENDBRANCH  23  24
ENDBRANCH  17  23
ENDBRANCH  16  22
ENDBRANCH   1  16
TORSDOF 8
