REMARK  Name = ZINCpe00000zfGc7.0
REMARK                            x       y       z     vdW  Elec       q    Type
REMARK                         _______ _______ _______ _____ _____    ______ ____
ROOT
ATOM      1  C   LIG    1       -0.608   4.223  -0.016  0.00  0.00    +0.360 C 
ATOM      2  N   LIG    1        0.856   4.283  -0.005  0.00  0.00    -0.450 N 
ATOM      3  C   LIG    1        1.731   3.223  -0.002  0.00  0.00    +0.250 A 
ATOM      4  N   LIG    1        2.943   3.724   0.015  0.00  0.00    -0.250 NA
ATOM      5  N   LIG    1        2.887   5.008   0.015  0.00  0.00    -0.300 NA
ATOM      6  C   LIG    1        1.635   5.404   0.006  0.00  0.00    +0.350 A 
ENDROOT
BRANCH   6   7
ATOM      7  N   LIG    1        1.188   6.715   0.008  0.00  0.00    -0.440 N 
ATOM      8  C   LIG    1        2.083   7.581  -0.793  0.00  0.00    +0.220 C 
ATOM      9  C   LIG    1        2.112   8.962  -0.103  0.00  0.00    +0.040 C 
ATOM     10  C   LIG    1        1.237   8.792   1.141  0.00  0.00    -0.080 C 
ATOM     11  C   LIG    1        1.788   9.555   2.346  0.00  0.00    +0.290 C 
ATOM     12  N   LIG    1        1.030  10.817   2.380  0.00  0.00    -0.730 N 
ATOM     13  H   LIG    1        1.291  11.598   2.892  0.00  0.00    +0.410 HD
ATOM     14  C   LIG    1       -0.071  10.747   1.609  0.00  0.00    +0.520 C 
ATOM     15  O   LIG    1       -0.874  11.644   1.462  0.00  0.00    -0.530 OA
ATOM     16  C   LIG    1       -0.162   9.384   0.951  0.00  0.00    +0.080 C 
ATOM     17  C   LIG    1        1.194   7.279   1.385  0.00  0.00    +0.220 C 
ENDBRANCH   6   7
BRANCH   3  18
ATOM     18  C   LIG    1        1.373   1.788  -0.011  0.00  0.00    +0.150 A 
ATOM     19  N   LIG    1        0.150   1.290  -0.023  0.00  0.00    -0.280 NA
ATOM     20  N   LIG    1        0.248  -0.109  -0.029  0.00  0.00    -0.450 N 
ATOM     21  H   LIG    1       -0.496  -0.732  -0.037  0.00  0.00    +0.440 HD
ATOM     22  C   LIG    1        1.552  -0.437  -0.021  0.00  0.00    +0.090 A 
ATOM     23  C   LIG    1        2.160  -1.818  -0.026  0.00  0.00    +0.110 C 
ATOM     24  C   LIG    1        3.634  -1.696  -0.429  0.00  0.00    +0.030 C 
ATOM     25  C   LIG    1        4.309  -0.616   0.420  0.00  0.00    +0.010 C 
ATOM     26  C   LIG    1        3.781   0.763   0.008  0.00  0.00    +0.110 C 
ATOM     27  C   LIG    1        2.273   0.710  -0.008  0.00  0.00    -0.190 A 
ENDBRANCH   3  18
TORSDOF 2
