REMARK  Name = ZINCpe00000MHK4t.0
REMARK                            x       y       z     vdW  Elec       q    Type
REMARK                         _______ _______ _______ _____ _____    ______ ____
ROOT
ATOM      1  N   LIG    1        0.002  -0.004   0.002  0.00  0.00    -1.100 NA
ATOM      2  H   LIG    1       -0.354  -0.490  -0.759  0.00  0.00    +0.420 HD
ENDROOT
BRANCH   1   9
ATOM      3  C   LIG    1       -2.317  -1.113   3.325  0.00  0.00    +0.220 A 
ATOM      4  N   LIG    1       -1.811  -2.315   3.448  0.00  0.00    -0.310 NA
ATOM      5  N   LIG    1       -0.663  -2.348   2.651  0.00  0.00    -0.370 N 
ATOM      6  C   LIG    1        0.265  -3.459   2.442  0.00  0.00    +0.310 C 
ATOM      7  C   LIG    1        1.568  -2.910   1.852  0.00  0.00    +0.050 C 
ATOM      8  C   LIG    1        1.249  -2.014   0.651  0.00  0.00    +0.060 C 
ATOM      9  C   LIG    1        0.559  -0.735   1.143  0.00  0.00    +0.360 C 
ATOM     10  C   LIG    1       -0.551  -1.131   2.086  0.00  0.00    +0.250 A 
ATOM     11  N   LIG    1       -1.548  -0.400   2.499  0.00  0.00    -0.500 NA
BRANCH   3  13
ATOM     12  C   LIG    1       -3.196   0.000   5.359  0.00  0.00    +0.040 C 
ATOM     13  C   LIG    1       -3.565  -0.615   4.008  0.00  0.00    +0.150 C 
ENDBRANCH   3  13
ENDBRANCH   1   9
BRANCH   1  14
ATOM     14  S   LIG    1       -0.020   1.652   0.011  0.00  0.00    +2.720 S 
ATOM     15  O   LIG    1       -0.558   2.039   1.268  0.00  0.00    -0.930 OA
ATOM     16  O   LIG    1       -0.582   2.052  -1.231  0.00  0.00    -0.950 OA
BRANCH  14  17
ATOM     17  C   LIG    1        1.655   2.196  -0.002  0.00  0.00    -0.820 A 
ATOM     18  C   LIG    1        2.421   2.442   1.086  0.00  0.00    +0.370 A 
ATOM     19  N   LIG    1        3.637   2.835   0.653  0.00  0.00    -0.350 N 
ATOM     20  N   LIG    1        3.615   2.840  -0.748  0.00  0.00    -0.290 NA
ATOM     21  C   LIG    1        2.427   2.457  -1.139  0.00  0.00    +0.340 A 
BRANCH  19  22
ATOM     22  C   LIG    1        4.777   3.198   1.498  0.00  0.00    +0.250 C 
ATOM     23  C   LIG    1        5.521   1.929   1.981  0.00  0.00    +0.020 C 
ATOM     24  C   LIG    1        5.850   2.285   3.453  0.00  0.00    +0.230 C 
ATOM     25  O   LIG    1        4.687   3.020   3.890  0.00  0.00    -0.370 OA
ATOM     26  C   LIG    1        4.293   3.869   2.799  0.00  0.00    +0.220 C 
ENDBRANCH  19  22
ENDBRANCH  14  17
ENDBRANCH   1  14
TORSDOF 5
