REMARK  Name = ZINCnE000001TvMo.1
REMARK                            x       y       z     vdW  Elec       q    Type
REMARK                         _______ _______ _______ _____ _____    ______ ____
ROOT
ATOM      1  O   LIG    1        0.002  -0.004   0.002  0.00  0.00    -0.640 OA
ATOM      2  C   LIG    1       -0.014   1.212   0.009  0.00  0.00    +0.650 C 
ATOM      3  N   LIG    1        1.143   1.901   0.001  0.00  0.00    -0.600 N 
ATOM      4  N   LIG    1       -1.191   1.870   0.018  0.00  0.00    -0.680 NA
ENDROOT
BRANCH   4   5
ATOM      5  C   LIG    1       -2.385   1.158   0.020  0.00  0.00    +0.370 A 
ATOM      6  N   LIG    1       -3.567   1.691   0.028  0.00  0.00    -0.570 NA
ATOM      7  C   LIG    1       -4.595   0.864   0.028  0.00  0.00    +0.120 A 
ATOM      8  C   LIG    1       -4.267  -0.429   0.019  0.00  0.00    -0.240 A 
ATOM      9  S   LIG    1       -2.509  -0.547   0.004  0.00  0.00    +0.010 S 
BRANCH   7  10
ATOM     10  C   LIG    1       -6.024   1.341   0.037  0.00  0.00    +0.060 C 
ATOM     11  C   LIG    1       -7.040   0.238   0.379  0.00  0.00    +0.010 C 
ATOM     12  C   LIG    1       -7.946   0.848  -0.707  0.00  0.00    -0.000 C 
ATOM     13  C   LIG    1       -6.665   1.392  -1.361  0.00  0.00    +0.010 C 
ENDBRANCH   7  10
ENDBRANCH   4   5
BRANCH   3  14
ATOM     14  C   LIG    1        2.422   1.186  -0.015  0.00  0.00    +0.340 C 
BRANCH  14  15
ATOM     15  C   LIG    1        2.847   0.949  -1.441  0.00  0.00    -0.090 A 
ATOM     16  C   LIG    1        2.462  -0.208  -2.093  0.00  0.00    +0.040 A 
ATOM     17  C   LIG    1        2.848  -0.423  -3.403  0.00  0.00    -0.010 A 
ATOM     18  C   LIG    1        3.627   0.512  -4.057  0.00  0.00    -0.020 A 
ATOM     19  C   LIG    1        4.016   1.666  -3.403  0.00  0.00    -0.010 A 
ATOM     20  C   LIG    1        3.626   1.884  -2.095  0.00  0.00    +0.010 A 
ENDBRANCH  14  15
ENDBRANCH   3  14
BRANCH   3  21
ATOM     21  C   LIG    1        1.124   3.366   0.009  0.00  0.00    +0.300 C 
BRANCH  21  22
ATOM     22  C   LIG    1        1.131   3.868   1.455  0.00  0.00    +0.150 C 
BRANCH  22  23
ATOM     23  O   LIG    1        2.363   3.504   2.080  0.00  0.00    -0.570 OA
ATOM     24  H   LIG    1        2.437   3.790   3.000  0.00  0.00    +0.370 HD
ENDBRANCH  22  23
ENDBRANCH  21  22
ENDBRANCH   3  21
TORSDOF 7
