REMARK  Name = ZINCrD0000072By6.0
REMARK                            x       y       z     vdW  Elec       q    Type
REMARK                         _______ _______ _______ _____ _____    ______ ____
ROOT
ATOM      1  C   LIG    1        5.622   1.070   1.619  0.00  0.00    +0.400 C 
ENDROOT
BRANCH   1   2
ATOM      2  C   LIG    1        5.122   0.009   2.565  0.00  0.00    -0.080 A 
ATOM      3  C   LIG    1        3.802  -0.397   2.513  0.00  0.00    +0.040 A 
ATOM      4  C   LIG    1        3.345  -1.374   3.377  0.00  0.00    +0.030 A 
ATOM      5  C   LIG    1        4.205  -1.937   4.302  0.00  0.00    -0.030 A 
ATOM      6  C   LIG    1        5.525  -1.526   4.358  0.00  0.00    +0.040 A 
ATOM      7 CL   LIG    1        3.630  -3.160   5.392  0.00  0.00    -0.070 Cl
ATOM      8  C   LIG    1        5.983  -0.553   3.490  0.00  0.00    +0.050 A 
ENDBRANCH   1   2
BRANCH   1  14
ATOM      9  C   LIG    1        8.647   0.814   1.001  0.00  0.00    +0.330 C 
ATOM     10  N   LIG    1        8.053   1.717   1.991  0.00  0.00    -0.450 N 
ATOM     11  C   LIG    1        8.726   2.593   2.799  0.00  0.00    +0.130 A 
ATOM     12  C   LIG    1        7.801   3.216   3.553  0.00  0.00    +0.140 A 
ATOM     13  N   LIG    1        6.596   2.738   3.211  0.00  0.00    -0.460 NA
ATOM     14  C   LIG    1        6.738   1.842   2.273  0.00  0.00    +0.190 A 
ENDBRANCH   1  14
BRANCH   1  15
ATOM     15  N   LIG    1        4.526   1.984   1.287  0.00  0.00    -0.980 NA
ATOM     16  C   LIG    1        3.764   2.632   2.357  0.00  0.00    +0.320 C 
BRANCH  15  17
ATOM     17  S   LIG    1        4.149   2.283  -0.298  0.00  0.00    +2.680 S 
ATOM     18  O   LIG    1        3.650   3.613  -0.347  0.00  0.00    -0.930 OA
ATOM     19  O   LIG    1        5.260   1.841  -1.065  0.00  0.00    -0.940 OA
BRANCH  17  20
ATOM     20  C   LIG    1        2.800   1.230  -0.721  0.00  0.00    -0.640 A 
ATOM     21  C   LIG    1        1.559   1.770  -0.986  0.00  0.00    +0.140 A 
ATOM     22  C   LIG    1        0.499   0.945  -1.318  0.00  0.00    +0.040 A 
ATOM     23  C   LIG    1        0.676  -0.426  -1.386  0.00  0.00    +0.090 A 
ATOM     24  C   LIG    1        1.913  -0.979  -1.123  0.00  0.00    +0.060 A 
ATOM     25  C   LIG    1        2.986  -0.152  -0.787  0.00  0.00    +0.070 A 
BRANCH  25  26
ATOM     26  C   LIG    1        4.272  -0.719  -0.513  0.00  0.00    +0.220 C 
ATOM     27  N   LIG    1        5.293  -1.169  -0.296  0.00  0.00    -0.360 NA
ENDBRANCH  25  26
ENDBRANCH  17  20
ENDBRANCH  15  17
ENDBRANCH   1  15
TORSDOF 6
