REMARK  Name = ZINCqH0000006293.0
REMARK                            x       y       z     vdW  Elec       q    Type
REMARK                         _______ _______ _______ _____ _____    ______ ____
ROOT
ATOM      1  C   LIG    1        0.516  -4.250  -0.025  0.00  0.00    -0.100 A 
ATOM      2  C   LIG    1        1.811  -4.771  -0.047  0.00  0.00    +0.000 A 
ATOM      3  C   LIG    1        2.005  -6.138  -0.051  0.00  0.00    +0.060 A 
ATOM      4  C   LIG    1        0.919  -6.994  -0.045  0.00  0.00    -0.040 A 
ATOM      5  C   LIG    1       -0.373  -6.485  -0.029  0.00  0.00    +0.130 A 
ATOM      6  C   LIG    1       -0.578  -5.116  -0.019  0.00  0.00    +0.060 A 
ENDROOT
BRANCH   1   9
ATOM      7  N   LIG    1        1.364  -1.954  -0.021  0.00  0.00    -0.630 N 
ATOM      8  H   LIG    1        2.265  -2.314  -0.032  0.00  0.00    +0.430 HD
ATOM      9  C   LIG    1        0.305  -2.788  -0.015  0.00  0.00    +0.560 C 
ATOM     10  O   LIG    1       -0.823  -2.336  -0.002  0.00  0.00    -0.450 OA
BRANCH   7  14
ATOM     11  C   LIG    1        1.227   1.877   0.000  0.00  0.00    -0.320 A 
ATOM     12  C   LIG    1       -0.016   1.304   0.009  0.00  0.00    +0.380 A 
ATOM     13  N   LIG    1        0.002  -0.004   0.002  0.00  0.00    -0.480 NA
ATOM     14  C   LIG    1        1.167  -0.585  -0.012  0.00  0.00    +0.280 A 
ATOM     15  S   LIG    1        2.418   0.579  -0.018  0.00  0.00    +0.220 S 
BRANCH  11  16
ATOM     16  C   LIG    1        1.514   3.310   0.005  0.00  0.00    +0.550 C 
ATOM     17  O   LIG    1        0.601   4.114   0.017  0.00  0.00    -0.490 OA
BRANCH  16  19
ATOM     18  C   LIG    1        3.000   5.156  -0.000  0.00  0.00    +0.270 C 
ATOM     19  O   LIG    1        2.792   3.742  -0.005  0.00  0.00    -0.350 OA
ENDBRANCH  16  19
ENDBRANCH  11  16
ENDBRANCH   7  14
ENDBRANCH   1   9
BRANCH   5  20
ATOM     20  O   LIG    1       -1.436  -7.332  -0.023  0.00  0.00    -0.300 OA
BRANCH  20  21
ATOM     21  C   LIG    1       -1.151  -8.732  -0.034  0.00  0.00    +0.240 C 
BRANCH  21  22
ATOM     22  C   LIG    1       -2.442  -9.508  -0.025  0.00  0.00    -0.100 A 
ATOM     23  C   LIG    1       -3.020  -9.875   1.175  0.00  0.00    +0.030 A 
ATOM     24  C   LIG    1       -4.208 -10.583   1.183  0.00  0.00    +0.010 A 
ATOM     25  C   LIG    1       -4.812 -10.932  -0.010  0.00  0.00    +0.020 A 
ATOM     26  C   LIG    1       -4.231 -10.569  -1.211  0.00  0.00    +0.010 A 
ATOM     27  C   LIG    1       -3.047  -9.857  -1.219  0.00  0.00    +0.030 A 
ENDBRANCH  21  22
ENDBRANCH  20  21
ENDBRANCH   5  20
TORSDOF 7
