REMARK  Name = ZINCpk00000FmTYw.0
REMARK                            x       y       z     vdW  Elec       q    Type
REMARK                         _______ _______ _______ _____ _____    ______ ____
ROOT
ATOM      1  N   LIG    1       -1.964   2.549   3.434  0.00  0.00    -0.490 N 
ATOM      2  C   LIG    1       -3.425   2.691   3.514  0.00  0.00    +0.200 C 
ATOM      3  C   LIG    1       -3.979   1.677   4.518  0.00  0.00    +0.210 C 
ATOM      4  N   LIG    1       -3.358   1.903   5.831  0.00  0.00    -0.480 N 
ATOM      5  C   LIG    1       -1.898   1.761   5.751  0.00  0.00    +0.240 C 
ATOM      6  C   LIG    1       -1.343   2.774   4.747  0.00  0.00    +0.200 C 
ENDROOT
BRANCH   4   7
ATOM      7  C   LIG    1       -3.889   1.049   6.784  0.00  0.00    +0.440 A 
ATOM      8  C   LIG    1       -5.263   1.018   7.027  0.00  0.00    -0.130 A 
ATOM      9  N   LIG    1       -6.362   1.681   6.518  0.00  0.00    -0.570 N 
ATOM     10  H   LIG    1       -6.356   2.360   5.825  0.00  0.00    +0.430 HD
ATOM     11  C   LIG    1       -7.449   1.208   7.168  0.00  0.00    +0.540 A 
ATOM     12  N   LIG    1       -7.093   0.303   8.037  0.00  0.00    -0.500 NA
ATOM     13  C   LIG    1       -5.758   0.137   8.001  0.00  0.00    +0.350 A 
ATOM     14  N   LIG    1       -4.894  -0.641   8.662  0.00  0.00    -0.560 NA
ATOM     15  C   LIG    1       -3.600  -0.579   8.401  0.00  0.00    +0.600 A 
ATOM     16  N   LIG    1       -3.100   0.237   7.482  0.00  0.00    -0.590 NA
BRANCH  15  17
ATOM     17  N   LIG    1       -2.735  -1.401   9.107  0.00  0.00    -0.820 N 
ATOM     18  H   LIG    1       -1.782  -1.369   8.928  0.00  0.00    +0.410 HD
ATOM     19  H   LIG    1       -3.083  -2.008   9.779  0.00  0.00    +0.420 HD
ENDBRANCH  15  17
ENDBRANCH   4   7
BRANCH   1  26
ATOM     20  C   LIG    1       -0.787   2.893   1.346  0.00  0.00    +0.190 A 
ATOM     21  C   LIG    1       -0.255   3.750   0.399  0.00  0.00    -0.100 A 
ATOM     22  C   LIG    1       -0.367   5.121   0.563  0.00  0.00    +0.140 A 
ATOM     23  C   LIG    1       -1.003   5.636   1.679  0.00  0.00    -0.040 A 
ATOM     24  C   LIG    1       -1.533   4.785   2.632  0.00  0.00    +0.060 A 
ATOM     25  F   LIG    1        0.149   5.956  -0.365  0.00  0.00    -0.130 F 
ATOM     26  C   LIG    1       -1.427   3.412   2.470  0.00  0.00    +0.040 A 
BRANCH  20  28
ATOM     27  C   LIG    1       -0.013   1.086   0.008  0.00  0.00    +0.240 C 
ATOM     28  O   LIG    1       -0.682   1.547   1.184  0.00  0.00    -0.290 OA
ENDBRANCH  20  28
ENDBRANCH   1  26
TORSDOF 4
