REMARK  Name = ZINCpe000000XQyK.0
REMARK                            x       y       z     vdW  Elec       q    Type
REMARK                         _______ _______ _______ _____ _____    ______ ____
ROOT
ATOM      1  C   LIG    1        0.138   0.084   2.595  0.00  0.00    +0.440 C 
ATOM      2  O   LIG    1       -0.417  -0.711   1.863  0.00  0.00    -0.490 OA
ENDROOT
BRANCH   1   3
ATOM      3  C   LIG    1        1.083  -0.368   3.540  0.00  0.00    -0.440 A 
ATOM      4  C   LIG    1        1.456  -1.722   3.602  0.00  0.00    +0.550 A 
ATOM      5  N   LIG    1        2.375  -2.112   4.535  0.00  0.00    -0.540 N 
ATOM      6  C   LIG    1        2.923  -1.230   5.385  0.00  0.00    +0.710 A 
ATOM      7  N   LIG    1        2.605   0.074   5.374  0.00  0.00    -0.560 N 
ATOM      8  C   LIG    1        3.241   0.982   6.332  0.00  0.00    +0.340 C 
ATOM      9  O   LIG    1        3.736  -1.628   6.197  0.00  0.00    -0.530 OA
ATOM     10  C   LIG    1        2.770  -3.521   4.607  0.00  0.00    +0.340 C 
ATOM     11  C   LIG    1        1.712   0.561   4.487  0.00  0.00    +0.570 A 
ATOM     12  O   LIG    1        1.431   1.745   4.476  0.00  0.00    -0.500 OA
BRANCH   4  13
ATOM     13  N   LIG    1        0.911  -2.629   2.747  0.00  0.00    -0.800 N 
ATOM     14  H   LIG    1        0.026  -2.479   2.380  0.00  0.00    +0.440 HD
ATOM     15  H   LIG    1        1.407  -3.427   2.505  0.00  0.00    +0.410 HD
ENDBRANCH   4  13
ENDBRANCH   1   3
BRANCH   1  16
ATOM     16  C   LIG    1       -0.182   1.553   2.493  0.00  0.00    +0.220 C 
BRANCH  16  17
ATOM     17  N   LIG    1       -1.187   1.764   1.442  0.00  0.00    -0.520 NA
ATOM     18  C   LIG    1       -0.642   1.433   0.119  0.00  0.00    +0.190 C 
BRANCH  17  19
ATOM     19  C   LIG    1       -1.699   3.140   1.472  0.00  0.00    +0.170 C 
ATOM     20  C   LIG    1       -2.691   3.340   0.324  0.00  0.00    +0.050 C 
BRANCH  19  25
ATOM     21  C   LIG    1       -4.362   4.100   6.509  0.00  0.00    +0.070 C 
ATOM     22  C   LIG    1       -3.667   3.849   5.196  0.00  0.00    -0.090 A 
ATOM     23  C   LIG    1       -2.774   4.779   4.698  0.00  0.00    +0.000 A 
ATOM     24  C   LIG    1       -2.136   4.550   3.493  0.00  0.00    +0.010 A 
ATOM     25  C   LIG    1       -2.393   3.390   2.785  0.00  0.00    -0.080 A 
ATOM     26  C   LIG    1       -3.291   2.463   3.280  0.00  0.00    +0.040 A 
ATOM     27  C   LIG    1       -3.924   2.690   4.488  0.00  0.00    -0.010 A 
ENDBRANCH  19  25
ENDBRANCH  17  19
ENDBRANCH  16  17
ENDBRANCH   1  16
TORSDOF 6
