REMARK  Name = ZINCpe000000UTGE.0
REMARK                            x       y       z     vdW  Elec       q    Type
REMARK                         _______ _______ _______ _____ _____    ______ ____
ROOT
ATOM      1  N   LIG    1       -3.761   1.651   0.029  0.00  0.00    -0.540 NA
ATOM      2  C   LIG    1       -3.939   2.394   1.284  0.00  0.00    +0.160 C 
ATOM      3  C   LIG    1       -5.194   3.268   1.183  0.00  0.00    +0.280 C 
ATOM      4  N   LIG    1       -6.328   2.414   0.799  0.00  0.00    -0.620 N 
ATOM      5  C   LIG    1       -6.174   1.536  -0.371  0.00  0.00    +0.300 C 
ATOM      6  C   LIG    1       -7.478   2.434   1.502  0.00  0.00    +0.520 C 
ATOM      7  O   LIG    1       -8.403   1.723   1.172  0.00  0.00    -0.520 OA
ATOM      8  C   LIG    1       -4.881   0.731  -0.209  0.00  0.00    +0.170 C 
ENDROOT
BRANCH   1   9
ATOM      9  C   LIG    1       -2.479   0.934   0.019  0.00  0.00    +0.210 C 
BRANCH   9  10
ATOM     10  C   LIG    1       -1.330   1.944   0.019  0.00  0.00    +0.080 C 
BRANCH  10  17
ATOM     11  C   LIG    1        4.756   1.214  -0.037  0.00  0.00    +0.300 C 
ATOM     12  N   LIG    1        3.478   1.930  -0.021  0.00  0.00    -0.740 N 
ATOM     13  H   LIG    1        3.465   2.900  -0.015  0.00  0.00    +0.400 HD
ATOM     14  C   LIG    1        2.320   1.240  -0.013  0.00  0.00    +0.690 C 
ATOM     15  N   LIG    1        1.143   1.898   0.001  0.00  0.00    -0.690 N 
ATOM     16  H   LIG    1        1.130   2.868   0.007  0.00  0.00    +0.410 HD
ATOM     17  C   LIG    1       -0.014   1.208   0.009  0.00  0.00    +0.520 C 
ATOM     18  O   LIG    1        0.002  -0.004   0.002  0.00  0.00    -0.470 OA
ATOM     19  O   LIG    1        2.336   0.025  -0.020  0.00  0.00    -0.530 OA
ENDBRANCH  10  17
ENDBRANCH   9  10
ENDBRANCH   1   9
BRANCH   6  20
ATOM     20  C   LIG    1       -7.614   3.341   2.698  0.00  0.00    +0.110 C 
BRANCH  20  21
ATOM     21  C   LIG    1       -8.985   3.175   3.301  0.00  0.00    -0.060 A 
ATOM     22  C   LIG    1      -10.004   4.040   2.950  0.00  0.00    +0.030 A 
ATOM     23  C   LIG    1      -11.263   3.884   3.499  0.00  0.00    +0.020 A 
ATOM     24  C   LIG    1      -11.501   2.870   4.408  0.00  0.00    +0.020 A 
ATOM     25  C   LIG    1      -10.481   2.007   4.764  0.00  0.00    +0.020 A 
ATOM     26  C   LIG    1       -9.222   2.159   4.210  0.00  0.00    -0.020 A 
ATOM     27 CL   LIG    1       -7.941   1.076   4.656  0.00  0.00    -0.070 Cl
ENDBRANCH  20  21
ENDBRANCH   6  20
TORSDOF 5
