REMARK  Name = ZINCpk00000xUsgm.0
REMARK                            x       y       z     vdW  Elec       q    Type
REMARK                         _______ _______ _______ _____ _____    ______ ____
ROOT
ATOM      1  N   LIG    1       -0.794   0.185   0.234  0.00  0.00    -0.720 N 
ATOM      2  H   LIG    1       -0.082   0.793  -0.022  0.00  0.00    +0.400 HD
ATOM      3  C   LIG    1       -2.066   0.625   0.296  0.00  0.00    +0.570 C 
ATOM      4  O   LIG    1       -2.958  -0.138   0.611  0.00  0.00    -0.530 OA
ENDROOT
BRANCH   3   5
ATOM      5  C   LIG    1       -2.377   2.036  -0.019  0.00  0.00    -0.140 A 
ATOM      6  C   LIG    1       -1.354   2.916  -0.376  0.00  0.00    +0.050 A 
ATOM      7  C   LIG    1       -1.651   4.230  -0.674  0.00  0.00    +0.020 A 
ATOM      8  C   LIG    1       -2.958   4.678  -0.609  0.00  0.00    -0.040 A 
ATOM      9  C   LIG    1       -3.976   3.812  -0.251  0.00  0.00    +0.020 A 
ATOM     10  C   LIG    1       -3.693   2.494   0.044  0.00  0.00    +0.090 A 
BRANCH   8  11
ATOM     11  C   LIG    1       -3.275   6.116  -0.929  0.00  0.00    +0.110 C 
BRANCH  11  12
ATOM     12  C   LIG    1       -3.194   6.941   0.329  0.00  0.00    +0.510 C 
ATOM     13  N   LIG    1       -3.440   8.265   0.284  0.00  0.00    -0.740 N 
ATOM     14  H   LIG    1       -3.669   8.688  -0.559  0.00  0.00    +0.400 HD
ATOM     15  C   LIG    1       -3.361   9.067   1.507  0.00  0.00    +0.290 C 
ATOM     16  O   LIG    1       -2.907   6.413   1.383  0.00  0.00    -0.530 OA
ENDBRANCH  11  12
ENDBRANCH   8  11
ENDBRANCH   3   5
BRANCH   1  17
ATOM     17  C   LIG    1       -0.486  -1.213   0.546  0.00  0.00    +0.380 C 
ATOM     18  C   LIG    1       -0.696  -2.072  -0.702  0.00  0.00    +0.050 C 
BRANCH  17  20
ATOM     19  C   LIG    1        2.032  -1.406   1.337  0.00  0.00    -0.150 C 
ATOM     20  C   LIG    1        0.915  -1.321   0.986  0.00  0.00    -0.140 C 
BRANCH  19  21
ATOM     21  C   LIG    1        3.432  -1.514   1.777  0.00  0.00    +0.450 C 
BRANCH  21  22
ATOM     22  O   LIG    1        4.296  -1.058   0.734  0.00  0.00    -0.380 OA
BRANCH  22  24
ATOM     23  C   LIG    1        6.461  -1.032  -0.339  0.00  0.00    +0.070 C 
ATOM     24  C   LIG    1        5.575  -1.694   0.719  0.00  0.00    +0.160 C 
ENDBRANCH  22  24
ENDBRANCH  21  22
BRANCH  21  25
ATOM     25  O   LIG    1        3.628  -0.711   2.943  0.00  0.00    -0.380 OA
BRANCH  25  26
ATOM     26  C   LIG    1        4.851  -0.977   3.633  0.00  0.00    +0.160 C 
ATOM     27  C   LIG    1        4.879  -0.188   4.944  0.00  0.00    +0.050 C 
ENDBRANCH  25  26
ENDBRANCH  21  25
ENDBRANCH  19  21
ENDBRANCH  17  20
ENDBRANCH   1  17
TORSDOF 10
