REMARK  Name = ZINCvU0000000AjV.0
REMARK                            x       y       z     vdW  Elec       q    Type
REMARK                         _______ _______ _______ _____ _____    ______ ____
ROOT
ATOM      1  C   LIG    1        0.320  14.453   0.081  0.00  0.00    -0.120 A 
ATOM      2  C   LIG    1        0.497  13.765   1.283  0.00  0.00    +0.090 A 
ATOM      3  C   LIG    1        0.833  12.427   1.265  0.00  0.00    +0.040 A 
ATOM      4  C   LIG    1        0.996  11.768   0.059  0.00  0.00    -0.060 A 
ATOM      5  C   LIG    1        0.828  12.445  -1.135  0.00  0.00    +0.040 A 
ATOM      6  C   LIG    1        0.486  13.782  -1.131  0.00  0.00    +0.050 A 
ENDROOT
BRANCH   1   8
ATOM      7  O   LIG    1       -0.183  16.469   1.151  0.00  0.00    -0.510 OA
ATOM      8  C   LIG    1       -0.040  15.887   0.093  0.00  0.00    +0.560 C 
ATOM      9  N   LIG    1       -0.209  16.549  -1.069  0.00  0.00    -0.670 N 
ATOM     10  H   LIG    1       -0.030  16.103  -1.911  0.00  0.00    +0.410 HD
BRANCH   9  11
ATOM     11  C   LIG    1       -0.644  17.878  -1.059  0.00  0.00    +0.140 A 
ATOM     12  C   LIG    1       -1.479  18.344  -2.067  0.00  0.00    -0.010 A 
ATOM     13  C   LIG    1       -1.909  19.656  -2.052  0.00  0.00    +0.030 A 
ATOM     14  C   LIG    1       -1.503  20.508  -1.042  0.00  0.00    -0.010 A 
ATOM     15  C   LIG    1       -0.668  20.048  -0.040  0.00  0.00    +0.030 A 
ATOM     16  C   LIG    1       -0.238  18.736  -0.046  0.00  0.00    +0.020 A 
ENDBRANCH   9  11
ENDBRANCH   1   8
BRANCH   4  17
ATOM     17  C   LIG    1        1.363  10.306   0.047  0.00  0.00    +0.160 C 
BRANCH  17  18
ATOM     18  S   LIG    1       -0.145   9.305   0.047  0.00  0.00    +0.090 S 
BRANCH  18  19
ATOM     19  C   LIG    1        0.560   7.690   0.032  0.00  0.00    +0.130 A 
ATOM     20  N   LIG    1        1.841   7.402   0.024  0.00  0.00    -0.280 NA
ATOM     21  N   LIG    1        1.992   6.124   0.014  0.00  0.00    -0.260 NA
ATOM     22  C   LIG    1        0.816   5.546   0.016  0.00  0.00    +0.220 A 
ATOM     23  O   LIG    1       -0.116   6.525   0.022  0.00  0.00    -0.200 OA
BRANCH  22  24
ATOM     24  C   LIG    1        0.556   4.092   0.007  0.00  0.00    -0.020 A 
ATOM     25  C   LIG    1       -0.756   3.615   0.010  0.00  0.00    +0.080 A 
ATOM     26  C   LIG    1       -0.997   2.257  -0.004  0.00  0.00    +0.050 A 
ATOM     27  C   LIG    1        0.062   1.361  -0.009  0.00  0.00    +0.060 A 
ATOM     28  O   LIG    1        0.088  -0.004  -0.019  0.00  0.00    -0.300 OA
ATOM     29  C   LIG    1        1.421  -0.366   0.385  0.00  0.00    +0.440 C 
ATOM     30  O   LIG    1        2.221   0.759  -0.024  0.00  0.00    -0.300 OA
ATOM     31  C   LIG    1        1.375   1.830  -0.013  0.00  0.00    +0.030 A 
ATOM     32  C   LIG    1        1.622   3.190  -0.004  0.00  0.00    +0.100 A 
ENDBRANCH  22  24
ENDBRANCH  18  19
ENDBRANCH  17  18
ENDBRANCH   4  17
TORSDOF 6
