REMARK  Name = ZINCrg00000Bk9fh.0
REMARK                            x       y       z     vdW  Elec       q    Type
REMARK                         _______ _______ _______ _____ _____    ______ ____
ROOT
ATOM      1  O   LIG    1        1.398  -4.812   0.094  0.00  0.00    -0.500 OA
ATOM      2  C   LIG    1        0.922  -4.363   1.115  0.00  0.00    +0.510 C 
ATOM      3  N   LIG    1        0.684  -5.177   2.162  0.00  0.00    -0.720 N 
ATOM      4  H   LIG    1        0.303  -4.818   2.979  0.00  0.00    +0.390 HD
ENDROOT
BRANCH   3   5
ATOM      5  C   LIG    1        1.000  -6.604   2.067  0.00  0.00    +0.230 C 
ATOM      6  C   LIG    1        2.273  -7.005   2.831  0.00  0.00    +0.040 C 
ATOM      7  C   LIG    1        1.372  -7.232   4.056  0.00  0.00    +0.230 C 
ATOM      8  C   LIG    1        0.221  -7.476   3.067  0.00  0.00    +0.040 C 
BRANCH   7   9
ATOM      9  N   LIG    1        1.193  -6.035   4.882  0.00  0.00    -0.710 N 
ATOM     10  H   LIG    1        1.594  -5.195   4.611  0.00  0.00    +0.400 HD
ATOM     11  C   LIG    1        0.471  -6.102   6.018  0.00  0.00    +0.590 C 
ATOM     12  O   LIG    1       -0.032  -7.157   6.358  0.00  0.00    -0.500 OA
BRANCH  11  13
ATOM     13  C   LIG    1        0.291  -4.900   6.848  0.00  0.00    +0.050 A 
ATOM     14  C   LIG    1       -0.418  -4.818   8.029  0.00  0.00    -0.020 A 
ATOM     15  C   LIG    1       -0.333  -3.502   8.482  0.00  0.00    +0.260 A 
ATOM     16  N   LIG    1        0.386  -2.810   7.633  0.00  0.00    -0.270 NA
ATOM     17  F   LIG    1       -0.897  -3.020   9.611  0.00  0.00    -0.080 F 
ATOM     18  N   LIG    1        0.799  -3.656   6.596  0.00  0.00    -0.440 N 
ATOM     19  H   LIG    1        1.345  -3.405   5.835  0.00  0.00    +0.450 HD
ENDBRANCH  11  13
ENDBRANCH   7   9
ENDBRANCH   3   5
BRANCH   2  20
ATOM     20  C   LIG    1        0.597  -2.895   1.212  0.00  0.00    +0.090 C 
BRANCH  20  21
ATOM     21  C   LIG    1        0.961  -2.203  -0.103  0.00  0.00    +0.070 C 
ATOM     22  C   LIG    1        2.465  -2.139  -0.270  0.00  0.00    +0.530 C 
ATOM     23  N   LIG    1        2.801  -0.840  -0.326  0.00  0.00    -0.670 N 
ATOM     24  H   LIG    1        3.712  -0.521  -0.431  0.00  0.00    +0.410 HD
ATOM     25  C   LIG    1        1.692  -0.001  -0.215  0.00  0.00    +0.150 A 
ATOM     26  C   LIG    1        1.596   1.389  -0.224  0.00  0.00    -0.010 A 
ATOM     27  C   LIG    1        0.364   1.999  -0.097  0.00  0.00    +0.050 A 
ATOM     28  C   LIG    1       -0.782   1.238   0.041  0.00  0.00    -0.010 A 
ATOM     29  C   LIG    1       -0.694  -0.143   0.051  0.00  0.00    +0.070 A 
ATOM     30  O   LIG    1        3.223  -3.083  -0.341  0.00  0.00    -0.470 OA
ATOM     31  C   LIG    1        0.532  -0.754  -0.076  0.00  0.00    -0.150 A 
ENDBRANCH  20  21
ENDBRANCH   2  20
TORSDOF 5
