REMARK  Name = ZINCrD000000BnDy.0
REMARK                            x       y       z     vdW  Elec       q    Type
REMARK                         _______ _______ _______ _____ _____    ______ ____
ROOT
ATOM      1  O   LIG    1        3.535   3.011  -0.117  0.00  0.00    -0.570 OA
ATOM      2  C   LIG    1        3.550   1.796  -0.123  0.00  0.00    +0.710 C 
ATOM      3  N   LIG    1        2.397   1.107  -0.015  0.00  0.00    -0.680 N 
ATOM      4  H   LIG    1        2.414   0.139   0.048  0.00  0.00    +0.410 HD
ATOM      5  N   LIG    1        4.720   1.137  -0.239  0.00  0.00    -0.740 N 
ATOM      6  H   LIG    1        4.732   0.167  -0.244  0.00  0.00    +0.400 HD
ENDROOT
BRANCH   3   7
ATOM      7  C   LIG    1        1.173   1.789   0.009  0.00  0.00    +0.140 A 
ATOM      8  C   LIG    1        0.050   1.221  -0.589  0.00  0.00    +0.050 A 
ATOM      9  C   LIG    1       -1.161   1.879  -0.576  0.00  0.00    +0.040 A 
ATOM     10  C   LIG    1       -1.271   3.120   0.038  0.00  0.00    +0.130 A 
ATOM     11  O   LIG    1       -2.452   3.776   0.059  0.00  0.00    -0.270 OA
ATOM     12  C   LIG    1       -2.578   4.975   0.647  0.00  0.00    +0.510 A 
ATOM     13  C   LIG    1       -1.485   5.612   1.274  0.00  0.00    -0.070 A 
ATOM     14  C   LIG    1       -0.270   5.008   1.289  0.00  0.00    +0.160 A 
ATOM     15  O   LIG    1       -3.663   5.528   0.640  0.00  0.00    -0.460 OA
ATOM     16  C   LIG    1       -0.142   3.695   0.649  0.00  0.00    -0.140 A 
ATOM     17  C   LIG    1        1.084   3.023   0.625  0.00  0.00    +0.100 A 
ENDBRANCH   3   7
BRANCH   5  18
ATOM     18  C   LIG    1        5.974   1.885  -0.358  0.00  0.00    +0.340 C 
BRANCH  18  19
ATOM     19  C   LIG    1        7.126   0.921  -0.473  0.00  0.00    -0.130 A 
ATOM     20  C   LIG    1        7.772   0.479   0.666  0.00  0.00    +0.070 A 
ATOM     21  C   LIG    1        8.825  -0.409   0.564  0.00  0.00    -0.010 A 
ATOM     22  C   LIG    1        9.241  -0.850  -0.685  0.00  0.00    +0.170 A 
ATOM     23  C   LIG    1        8.594  -0.400  -1.828  0.00  0.00    +0.020 A 
ATOM     24  C   LIG    1        7.538   0.484  -1.719  0.00  0.00    +0.070 A 
BRANCH  22  25
ATOM     25  N   LIG    1       10.313  -1.747  -0.792  0.00  0.00    -0.330 N 
ATOM     26  C   LIG    1       11.030  -2.256   0.235  0.00  0.00    +0.230 A 
ATOM     27  C   LIG    1       11.969  -3.080  -0.287  0.00  0.00    -0.100 A 
ATOM     28  C   LIG    1       11.826  -3.068  -1.679  0.00  0.00    +0.250 A 
ATOM     29  N   LIG    1       10.835  -2.269  -1.982  0.00  0.00    -0.290 NA
ENDBRANCH  22  25
ENDBRANCH  18  19
ENDBRANCH   5  18
TORSDOF 4
