REMARK  Name = ZINCrH000004joAr.0
REMARK                            x       y       z     vdW  Elec       q    Type
REMARK                         _______ _______ _______ _____ _____    ______ ____
ROOT
ATOM      1  N   LIG    1       -0.090   1.134  -4.066  0.00  0.00    -0.470 N 
ATOM      2  C   LIG    1        0.918   0.442  -4.717  0.00  0.00    +0.100 A 
ATOM      3  C   LIG    1        1.229   0.227  -6.051  0.00  0.00    +0.010 A 
ATOM      4  C   LIG    1        2.334  -0.530  -6.385  0.00  0.00    +0.140 A 
ATOM      5  C   LIG    1        3.135  -1.079  -5.395  0.00  0.00    -0.680 A 
ATOM      6  C   LIG    1        2.840  -0.876  -4.065  0.00  0.00    +0.200 A 
ATOM      7  C   LIG    1        1.726  -0.112  -3.710  0.00  0.00    +0.030 A 
ATOM      8  N   LIG    1        1.192   0.262  -2.518  0.00  0.00    -0.480 NA
ATOM      9  C   LIG    1        0.122   0.990  -2.724  0.00  0.00    +0.260 A 
ENDROOT
BRANCH   5  10
ATOM     10  S   LIG    1        4.540  -2.044  -5.842  0.00  0.00    +2.710 S 
ATOM     11  O   LIG    1        5.430  -1.993  -4.735  0.00  0.00    -0.960 OA
ATOM     12  O   LIG    1        4.906  -1.636  -7.153  0.00  0.00    -0.960 OA
BRANCH  10  13
ATOM     13  N   LIG    1        4.036  -3.616  -5.965  0.00  0.00    -1.250 NA
ATOM     14  H   LIG    1        3.300  -3.934  -5.418  0.00  0.00    +0.420 HD
ATOM     15  H   LIG    1        4.476  -4.220  -6.584  0.00  0.00    +0.420 HD
ENDBRANCH  10  13
ENDBRANCH   5  10
BRANCH   1  17
ATOM     16  C   LIG    1       -0.744   3.330  -4.920  0.00  0.00    +0.050 C 
ATOM     17  C   LIG    1       -1.180   1.881  -4.698  0.00  0.00    +0.300 C 
ENDBRANCH   1  17
BRANCH   9  18
ATOM     18  S   LIG    1       -0.888   1.685  -1.458  0.00  0.00    +0.030 S 
BRANCH  18  19
ATOM     19  C   LIG    1       -0.013   1.086   0.008  0.00  0.00    +0.220 C 
BRANCH  19  20
ATOM     20  C   LIG    1       -0.718   1.572   1.248  0.00  0.00    +0.030 A 
ATOM     21  N   LIG    1       -1.674   0.961   1.890  0.00  0.00    -0.340 NA
ATOM     22  O   LIG    1       -2.049   1.590   2.852  0.00  0.00    +0.130 OA
ATOM     23  C   LIG    1       -1.366   2.743   2.980  0.00  0.00    +0.050 A 
ATOM     24  C   LIG    1       -0.468   2.771   1.942  0.00  0.00    -0.030 A 
BRANCH  23  25
ATOM     25  C   LIG    1       -1.542   3.763   4.024  0.00  0.00    -0.150 A 
ATOM     26  C   LIG    1       -2.445   3.701   5.042  0.00  0.00    +0.060 A 
ATOM     27  C   LIG    1       -2.415   4.780   5.897  0.00  0.00    +0.010 A 
ATOM     28  C   LIG    1       -1.515   5.722   5.594  0.00  0.00    -0.030 A 
ATOM     29  S   LIG    1       -0.624   5.258   4.151  0.00  0.00    +0.170 S 
ENDBRANCH  23  25
ENDBRANCH  19  20
ENDBRANCH  18  19
ENDBRANCH   9  18
TORSDOF 7
