REMARK  Name = ZINCvU000000050b.0
REMARK                            x       y       z     vdW  Elec       q    Type
REMARK                         _______ _______ _______ _____ _____    ______ ____
ROOT
ATOM      1  C   LIG    1        3.711  -0.954   0.177  0.00  0.00    -0.270 A 
ATOM      2  C   LIG    1        4.970  -0.389   0.176  0.00  0.00    +0.300 A 
ATOM      3  N   LIG    1        5.869  -1.383   0.284  0.00  0.00    -0.310 N 
ATOM      4  N   LIG    1        5.204  -2.612   0.347  0.00  0.00    -0.280 NA
ATOM      5  C   LIG    1        3.908  -2.403   0.286  0.00  0.00    +0.190 A 
ENDROOT
BRANCH   5   6
ATOM      6  C   LIG    1        2.846  -3.437   0.321  0.00  0.00    -0.040 A 
ATOM      7  C   LIG    1        1.635  -3.174   0.959  0.00  0.00    +0.090 A 
ATOM      8  C   LIG    1        0.648  -4.139   0.984  0.00  0.00    -0.010 A 
ATOM      9  C   LIG    1        0.864  -5.368   0.388  0.00  0.00    -0.070 A 
ATOM     10  C   LIG    1        2.066  -5.636  -0.242  0.00  0.00    -0.010 A 
ATOM     11  C   LIG    1       -0.216  -6.419   0.424  0.00  0.00    +0.090 C 
ATOM     12  C   LIG    1        3.058  -4.678  -0.278  0.00  0.00    +0.040 A 
ENDBRANCH   5   6
BRANCH   3  13
ATOM     13  C   LIG    1        7.259  -1.214   0.322  0.00  0.00    +0.150 A 
ATOM     14  C   LIG    1        7.807   0.059   0.245  0.00  0.00    -0.010 A 
ATOM     15  C   LIG    1        9.178   0.223   0.287  0.00  0.00    +0.050 A 
ATOM     16  C   LIG    1       10.004  -0.881   0.394  0.00  0.00    +0.010 A 
ATOM     17  C   LIG    1        9.461  -2.151   0.465  0.00  0.00    +0.040 A 
ATOM     18  C   LIG    1        8.091  -2.321   0.429  0.00  0.00    +0.030 A 
ENDBRANCH   3  13
BRANCH   1  21
ATOM     19  N   LIG    1        2.403   1.101  -0.014  0.00  0.00    -0.660 N 
ATOM     20  H   LIG    1        3.235   1.595  -0.085  0.00  0.00    +0.410 HD
ATOM     21  C   LIG    1        2.425  -0.243   0.081  0.00  0.00    +0.600 C 
ATOM     22  O   LIG    1        1.382  -0.870   0.088  0.00  0.00    -0.510 OA
BRANCH  19  26
ATOM     23  C   LIG    1       -1.243   3.134  -0.004  0.00  0.00    +0.160 A 
ATOM     24  C   LIG    1       -1.142   1.890  -0.609  0.00  0.00    -0.100 A 
ATOM     25  C   LIG    1        0.064   1.214  -0.608  0.00  0.00    +0.110 A 
ATOM     26  C   LIG    1        1.178   1.784  -0.011  0.00  0.00    +0.080 A 
ATOM     27  C   LIG    1        1.080   3.036   0.592  0.00  0.00    +0.140 A 
ATOM     28  C   LIG    1       -0.131   3.708   0.594  0.00  0.00    -0.090 A 
BRANCH  23  30
ATOM     29  C   LIG    1       -3.535   3.144  -0.637  0.00  0.00    +0.250 C 
ATOM     30  O   LIG    1       -2.431   3.794  -0.003  0.00  0.00    -0.320 OA
ENDBRANCH  23  30
BRANCH  27  31
ATOM     31  O   LIG    1        2.171   3.597   1.179  0.00  0.00    -0.310 OA
ATOM     32  C   LIG    1        1.997   4.883   1.778  0.00  0.00    +0.250 C 
ENDBRANCH  27  31
ENDBRANCH  19  26
ENDBRANCH   1  21
TORSDOF 6
