REMARK  Name = ZINCvU00000004Pf.0
REMARK                            x       y       z     vdW  Elec       q    Type
REMARK                         _______ _______ _______ _____ _____    ______ ____
ROOT
ATOM      1  C   LIG    1       -4.434  -2.042  -2.623  0.00  0.00    +0.550 C 
ATOM      2  N   LIG    1       -5.410  -2.354  -3.498  0.00  0.00    -0.600 N 
ATOM      3  C   LIG    1       -5.760  -1.441  -4.596  0.00  0.00    +0.290 C 
ATOM      4  C   LIG    1       -5.422  -2.133  -5.926  0.00  0.00    +0.120 C 
ATOM      5  C   LIG    1       -5.933  -3.558  -5.885  0.00  0.00    -0.170 A 
ATOM      6  C   LIG    1       -6.259  -4.231  -4.766  0.00  0.00    -0.110 A 
ATOM      7  C   LIG    1       -6.694  -5.532  -5.000  0.00  0.00    +0.020 A 
ATOM      8  C   LIG    1       -6.726  -5.907  -6.275  0.00  0.00    -0.040 A 
ATOM      9  S   LIG    1       -6.183  -4.582  -7.293  0.00  0.00    +0.120 S 
ATOM     10  C   LIG    1       -6.158  -3.614  -3.376  0.00  0.00    +0.420 C 
ATOM     11  O   LIG    1       -4.162  -2.805  -1.720  0.00  0.00    -0.510 OA
ENDROOT
BRANCH  10  12
ATOM     12  C   LIG    1       -7.538  -3.338  -2.837  0.00  0.00    -0.190 A 
ATOM     13  C   LIG    1       -8.181  -4.095  -1.946  0.00  0.00    +0.020 A 
ATOM     14  C   LIG    1       -9.441  -3.640  -1.596  0.00  0.00    +0.010 A 
ATOM     15  C   LIG    1       -9.824  -2.520  -2.209  0.00  0.00    -0.050 A 
ATOM     16  S   LIG    1       -8.550  -1.974  -3.291  0.00  0.00    +0.110 S 
ENDBRANCH  10  12
BRANCH   1  17
ATOM     17  C   LIG    1       -3.680  -0.745  -2.766  0.00  0.00    +0.110 C 
BRANCH  17  18
ATOM     18  S   LIG    1       -2.443  -0.618  -1.450  0.00  0.00    +0.080 S 
BRANCH  18  23
ATOM     19  C   LIG    1        0.522   3.792  -1.503  0.00  0.00    +0.200 C 
ATOM     20  C   LIG    1       -0.503   2.743  -1.849  0.00  0.00    +0.190 A 
ATOM     21  N   LIG    1       -1.346   2.785  -2.842  0.00  0.00    -0.280 NA
ATOM     22  N   LIG    1       -2.076   1.727  -2.846  0.00  0.00    -0.290 NA
ATOM     23  C   LIG    1       -1.732   0.944  -1.849  0.00  0.00    +0.140 A 
ATOM     24  N   LIG    1       -0.721   1.571  -1.179  0.00  0.00    -0.450 N 
BRANCH  24  25
ATOM     25  C   LIG    1       -0.013   1.086   0.008  0.00  0.00    +0.370 C 
BRANCH  25  26
ATOM     26  C   LIG    1       -0.718   1.572   1.248  0.00  0.00    -0.120 A 
ATOM     27  C   LIG    1       -0.360   2.779   1.819  0.00  0.00    +0.020 A 
ATOM     28  C   LIG    1       -1.010   3.227   2.954  0.00  0.00    +0.010 A 
ATOM     29  C   LIG    1       -2.012   2.463   3.523  0.00  0.00    +0.030 A 
ATOM     30  C   LIG    1       -2.366   1.254   2.955  0.00  0.00    +0.010 A 
ATOM     31  C   LIG    1       -1.719   0.808   1.818  0.00  0.00    +0.040 A 
ENDBRANCH  25  26
ENDBRANCH  24  25
ENDBRANCH  18  23
ENDBRANCH  17  18
ENDBRANCH   1  17
TORSDOF 6
