REMARK  Name = ZINCpe000000UUMk.0
REMARK                            x       y       z     vdW  Elec       q    Type
REMARK                         _______ _______ _______ _____ _____    ______ ____
ROOT
ATOM      1  C   LIG    1       -5.992   2.331  -0.348  0.00  0.00    +0.150 C 
ATOM      2  C   LIG    1       -6.134   2.077   1.167  0.00  0.00    +0.060 C 
ATOM      3  C   LIG    1       -7.643   2.291   1.448  0.00  0.00    +0.040 C 
ATOM      4  C   LIG    1       -8.315   1.684   0.191  0.00  0.00    +0.030 C 
ATOM      5  C   LIG    1       -7.378   2.082  -0.968  0.00  0.00    +0.050 C 
ENDROOT
BRANCH   1   6
ATOM      6  N   LIG    1       -5.577   3.716  -0.588  0.00  0.00    -0.570 N 
ATOM      7  C   LIG    1       -5.625   4.695   0.333  0.00  0.00    +0.580 C 
ATOM      8  C   LIG    1       -5.124   5.943  -0.280  0.00  0.00    -0.140 A 
ATOM      9  C   LIG    1       -4.944   7.240   0.173  0.00  0.00    +0.100 A 
ATOM     10  C   LIG    1       -4.442   8.205  -0.686  0.00  0.00    +0.050 A 
ATOM     11  C   LIG    1       -4.120   7.882  -1.990  0.00  0.00    +0.050 A 
ATOM     12  C   LIG    1       -4.293   6.588  -2.458  0.00  0.00    +0.100 A 
ATOM     13  C   LIG    1       -4.794   5.614  -1.611  0.00  0.00    -0.140 A 
ATOM     14  O   LIG    1       -6.014   4.574   1.477  0.00  0.00    -0.450 OA
ATOM     15  C   LIG    1       -5.102   4.176  -1.760  0.00  0.00    +0.570 C 
ATOM     16  O   LIG    1       -4.952   3.519  -2.770  0.00  0.00    -0.440 OA
ENDBRANCH   1   6
BRANCH   1  19
ATOM     17  N   LIG    1       -3.674   1.700  -0.938  0.00  0.00    -0.710 N 
ATOM     18  H   LIG    1       -3.388   2.570  -0.619  0.00  0.00    +0.410 HD
ATOM     19  C   LIG    1       -4.984   1.380  -0.939  0.00  0.00    +0.530 C 
ATOM     20  O   LIG    1       -5.350   0.327  -1.417  0.00  0.00    -0.520 OA
BRANCH  17  21
ATOM     21  C   LIG    1       -2.684   0.733  -1.417  0.00  0.00    +0.240 C 
ATOM     22  C   LIG    1       -2.303  -0.215  -0.279  0.00  0.00    +0.070 C 
BRANCH  21  26
ATOM     23  C   LIG    1        0.786   1.489  -2.847  0.00  0.00    +0.290 C 
ATOM     24  N   LIG    1       -0.406   0.776  -2.380  0.00  0.00    -0.730 N 
ATOM     25  H   LIG    1       -0.440  -0.192  -2.425  0.00  0.00    +0.410 HD
ATOM     26  C   LIG    1       -1.456   1.466  -1.892  0.00  0.00    +0.510 C 
ATOM     27  O   LIG    1       -1.412   2.677  -1.836  0.00  0.00    -0.530 OA
ENDBRANCH  21  26
ENDBRANCH  17  21
ENDBRANCH   1  19
TORSDOF 4
