REMARK  Name = ZINCrD00000l1MH9.0
REMARK                            x       y       z     vdW  Elec       q    Type
REMARK                         _______ _______ _______ _____ _____    ______ ____
ROOT
ATOM      1  C   LIG    1        6.080  -5.742   3.677  0.00  0.00    +0.120 C 
ATOM      2  C   LIG    1        7.260  -5.858   2.709  0.00  0.00    +0.060 C 
ATOM      3  C   LIG    1        7.828  -4.462   2.434  0.00  0.00    +0.270 C 
ATOM      4  N   LIG    1        6.741  -3.595   1.959  0.00  0.00    -0.610 N 
ATOM      5  C   LIG    1        5.523  -3.478   2.773  0.00  0.00    +0.310 C 
ATOM      6  C   LIG    1        6.862  -2.914   0.802  0.00  0.00    +0.600 C 
ATOM      7  O   LIG    1        5.983  -2.148   0.452  0.00  0.00    -0.520 OA
ATOM      8  C   LIG    1        4.979  -4.889   3.041  0.00  0.00    +0.040 C 
ENDROOT
BRANCH   1  14
ATOM      9  O   LIG    1        3.926  -9.406   5.846  0.00  0.00    -0.480 OA
ATOM     10  C   LIG    1        4.539  -8.765   5.013  0.00  0.00    +0.610 A 
ATOM     11  N   LIG    1        5.021  -9.229   3.840  0.00  0.00    -0.550 N 
ATOM     12  H   LIG    1        4.945 -10.135   3.502  0.00  0.00    +0.460 HD
ATOM     13  N   LIG    1        5.648  -8.147   3.205  0.00  0.00    -0.260 NA
ATOM     14  C   LIG    1        5.540  -7.117   3.977  0.00  0.00    +0.250 A 
ATOM     15  O   LIG    1        4.863  -7.463   5.089  0.00  0.00    -0.270 OA
ENDBRANCH   1  14
BRANCH   6  16
ATOM     16  C   LIG    1        8.050  -3.096  -0.034  0.00  0.00    -0.250 A 
ATOM     17  C   LIG    1        8.039  -3.279  -1.388  0.00  0.00    +0.090 A 
ATOM     18  C   LIG    1        9.276  -3.423  -1.956  0.00  0.00    +0.040 A 
ATOM     19  C   LIG    1       10.319  -3.368  -1.077  0.00  0.00    -0.150 A 
ATOM     20  S   LIG    1        9.708  -3.111   0.552  0.00  0.00    +0.200 S 
BRANCH  19  21
ATOM     21  C   LIG    1       11.744  -3.499  -1.439  0.00  0.00    -0.100 A 
ATOM     22  C   LIG    1       12.615  -2.418  -1.269  0.00  0.00    +0.150 A 
ATOM     23  C   LIG    1       13.947  -2.548  -1.611  0.00  0.00    -0.010 A 
ATOM     24  C   LIG    1       14.421  -3.744  -2.121  0.00  0.00    +0.100 A 
ATOM     25  C   LIG    1       13.566  -4.818  -2.293  0.00  0.00    -0.010 A 
ATOM     26  F   LIG    1       12.154  -1.250  -0.771  0.00  0.00    -0.120 F 
ATOM     27  C   LIG    1       12.230  -4.704  -1.956  0.00  0.00    +0.150 A 
ATOM     28  F   LIG    1       11.397  -5.754  -2.124  0.00  0.00    -0.120 F 
ENDBRANCH  19  21
ENDBRANCH   6  16
TORSDOF 3
