REMARK  Name = ZINCnE000001IhAI.1
REMARK                            x       y       z     vdW  Elec       q    Type
REMARK                         _______ _______ _______ _____ _____    ______ ____
ROOT
ATOM      1  C   LIG    1       -0.043   0.760  -2.771  0.00  0.00    +0.330 A 
ATOM      2  N   LIG    1        1.094   0.224  -2.380  0.00  0.00    -0.610 NA
ATOM      3  C   LIG    1        2.051  -0.093  -3.261  0.00  0.00    +0.200 A 
ATOM      4  C   LIG    1        1.853   0.155  -4.611  0.00  0.00    -0.320 A 
ATOM      5  C   LIG    1        0.641   0.731  -5.019  0.00  0.00    +0.500 A 
ATOM      6  O   LIG    1        0.430   0.964  -6.199  0.00  0.00    -0.610 OA
ATOM      7  C   LIG    1        2.919  -0.189  -5.620  0.00  0.00    +0.080 C 
ATOM      8  N   LIG    1       -0.288   1.023  -4.085  0.00  0.00    -0.630 NA
ENDROOT
BRANCH   3   9
ATOM      9  C   LIG    1        3.320  -0.701  -2.795  0.00  0.00    -0.010 A 
ATOM     10  C   LIG    1        3.812  -1.853  -3.408  0.00  0.00    +0.030 A 
ATOM     11  C   LIG    1        4.996  -2.411  -2.973  0.00  0.00    +0.000 A 
ATOM     12  C   LIG    1        5.690  -1.837  -1.922  0.00  0.00    -0.010 A 
ATOM     13  C   LIG    1        5.205  -0.697  -1.306  0.00  0.00    -0.010 A 
ATOM     14  C   LIG    1        4.024  -0.127  -1.737  0.00  0.00    +0.030 A 
ENDBRANCH   3   9
BRANCH   1  15
ATOM     15  S   LIG    1       -1.272   1.150  -1.570  0.00  0.00    -0.010 S 
BRANCH  15  16
ATOM     16  C   LIG    1       -0.426   0.602  -0.067  0.00  0.00    +0.220 C 
BRANCH  16  20
ATOM     17  C   LIG    1       -2.567   1.585   3.058  0.00  0.00    -0.020 A 
ATOM     18  N   LIG    1       -2.831   0.396   2.619  0.00  0.00    -0.260 NA
ATOM     19  N   LIG    1       -2.176   0.010   1.609  0.00  0.00    -0.250 NA
ATOM     20  C   LIG    1       -1.315   0.846   1.126  0.00  0.00    +0.000 A 
ATOM     21  S   LIG    1       -1.347   2.272   2.073  0.00  0.00    +0.190 S 
BRANCH  17  23
ATOM     22  C   LIG    1       -2.426   1.930   5.510  0.00  0.00    +0.040 C 
ATOM     23  C   LIG    1       -3.220   2.250   4.242  0.00  0.00    +0.150 C 
ENDBRANCH  17  23
ENDBRANCH  16  20
ENDBRANCH  15  16
ENDBRANCH   1  15
TORSDOF 5
