REMARK  Name = ZINCpe000000WvFk.0
REMARK                            x       y       z     vdW  Elec       q    Type
REMARK                         _______ _______ _______ _____ _____    ______ ____
ROOT
ATOM      1  C   LIG    1        0.955   4.161   1.014  0.00  0.00    +0.100 C 
ENDROOT
BRANCH   1   2
ATOM      2  C   LIG    1        1.889   3.124   0.444  0.00  0.00    +0.520 C 
ATOM      3  N   LIG    1        1.401   1.949  -0.001  0.00  0.00    -0.620 N 
ATOM      4  C   LIG    1       -0.019   1.548   0.011  0.00  0.00    +0.250 C 
ATOM      5  C   LIG    1        0.002  -0.004   0.002  0.00  0.00    +0.060 C 
ATOM      6  C   LIG    1        1.224  -0.286  -0.884  0.00  0.00    -0.090 C 
ATOM      7  C   LIG    1        0.854  -0.358  -2.365  0.00  0.00    +0.280 C 
ATOM      8  N   LIG    1        1.731  -1.395  -2.931  0.00  0.00    -0.730 N 
ATOM      9  H   LIG    1        1.888  -1.521  -3.880  0.00  0.00    +0.410 HD
ATOM     10  C   LIG    1        2.289  -2.145  -1.963  0.00  0.00    +0.520 C 
ATOM     11  O   LIG    1        3.048  -3.072  -2.152  0.00  0.00    -0.530 OA
ATOM     12  C   LIG    1        1.830  -1.663  -0.600  0.00  0.00    +0.080 C 
ATOM     13  C   LIG    1        2.197   0.852  -0.579  0.00  0.00    +0.270 C 
ATOM     14  O   LIG    1        3.080   3.348   0.385  0.00  0.00    -0.500 OA
ENDBRANCH   1   2
BRANCH   1  24
ATOM     15  C   LIG    1       -0.610   8.652   2.779  0.00  0.00    +0.170 A 
ATOM     16  C   LIG    1       -0.678   7.507   3.560  0.00  0.00    -0.090 A 
ATOM     17  C   LIG    1        0.058   6.390   3.206  0.00  0.00    +0.110 A 
ATOM     18  C   LIG    1        0.854   6.416   2.087  0.00  0.00    -0.180 A 
ATOM     19  C   LIG    1        0.931   7.557   1.291  0.00  0.00    +0.190 A 
ATOM     20  N   LIG    1        1.796   7.340   0.218  0.00  0.00    -0.660 N 
ATOM     21  H   LIG    1        1.996   8.006  -0.459  0.00  0.00    +0.410 HD
ATOM     22  C   LIG    1        2.322   6.103   0.230  0.00  0.00    +0.530 C 
ATOM     23  O   LIG    1        3.101   5.644  -0.578  0.00  0.00    -0.460 OA
ATOM     24  C   LIG    1        1.758   5.391   1.441  0.00  0.00    +0.070 C 
ATOM     25  C   LIG    1        0.190   8.680   1.649  0.00  0.00    -0.040 A 
BRANCH  15  27
ATOM     26  C   LIG    1       -2.136   9.655   4.301  0.00  0.00    +0.250 C 
ATOM     27  O   LIG    1       -1.332   9.751   3.124  0.00  0.00    -0.310 OA
ENDBRANCH  15  27
ENDBRANCH   1  24
TORSDOF 3
