REMARK  Name = ZINCpe00000c93yv.0
REMARK                            x       y       z     vdW  Elec       q    Type
REMARK                         _______ _______ _______ _____ _____    ______ ____
ROOT
ATOM      1  O   LIG    1       -3.792   3.591   4.269  0.00  0.00    -0.520 OA
ATOM      2  C   LIG    1       -3.949   2.421   4.549  0.00  0.00    +0.510 C 
ATOM      3  N   LIG    1       -4.568   2.081   5.697  0.00  0.00    -0.730 N 
ATOM      4  H   LIG    1       -4.693   1.145   5.921  0.00  0.00    +0.400 HD
ENDROOT
BRANCH   3   5
ATOM      5  C   LIG    1       -5.052   3.123   6.605  0.00  0.00    +0.330 C 
BRANCH   5   6
ATOM      6  C   LIG    1       -5.701   2.482   7.804  0.00  0.00    -0.140 A 
ATOM      7  C   LIG    1       -7.055   2.199   7.788  0.00  0.00    +0.060 A 
ATOM      8  C   LIG    1       -7.652   1.607   8.884  0.00  0.00    +0.000 A 
ATOM      9  C   LIG    1       -6.893   1.307  10.008  0.00  0.00    +0.180 A 
ATOM     10  C   LIG    1       -5.535   1.597  10.023  0.00  0.00    -0.030 A 
ATOM     11  C   LIG    1       -4.943   2.184   8.922  0.00  0.00    +0.060 A 
BRANCH   9  12
ATOM     12  N   LIG    1       -7.496   0.712  11.121  0.00  0.00    -0.560 N 
ATOM     13  C   LIG    1       -6.767   0.244  12.306  0.00  0.00    +0.260 C 
ATOM     14  C   LIG    1       -7.741  -0.702  13.043  0.00  0.00    +0.060 C 
ATOM     15  C   LIG    1       -9.114  -0.172  12.569  0.00  0.00    +0.070 C 
ATOM     16  C   LIG    1       -8.818   0.501  11.246  0.00  0.00    +0.520 C 
ATOM     17  O   LIG    1       -9.651   0.804  10.419  0.00  0.00    -0.510 OA
ENDBRANCH   9  12
ENDBRANCH   5   6
ENDBRANCH   3   5
BRANCH   2  18
ATOM     18  C   LIG    1       -3.450   1.349   3.615  0.00  0.00    +0.200 C 
BRANCH  18  19
ATOM     19  N   LIG    1       -2.818   1.974   2.445  0.00  0.00    -0.490 NA
ATOM     20  C   LIG    1       -1.755   2.927   2.860  0.00  0.00    +0.160 C 
ATOM     21  C   LIG    1       -0.850   3.068   1.615  0.00  0.00    +0.200 C 
ATOM     22  C   LIG    1       -1.082   1.779   0.814  0.00  0.00    -0.140 C 
ATOM     23  C   LIG    1        0.048   1.102   0.050  0.00  0.00    +0.040 C 
ATOM     24  C   LIG    1       -1.095   1.782  -0.711  0.00  0.00    +0.040 C 
ATOM     25  C   LIG    1       -2.105   0.962   1.621  0.00  0.00    +0.210 C 
BRANCH  21  26
ATOM     26  O   LIG    1        0.521   3.171   2.006  0.00  0.00    -0.560 OA
ATOM     27  H   LIG    1        0.726   3.967   2.516  0.00  0.00    +0.380 HD
ENDBRANCH  21  26
ENDBRANCH  18  19
ENDBRANCH   2  18
TORSDOF 6
