REMARK  Name = ZINCpe00000RiWGa.0
REMARK                            x       y       z     vdW  Elec       q    Type
REMARK                         _______ _______ _______ _____ _____    ______ ____
ROOT
ATOM      1  N   LIG    1        3.465   2.289  -0.189  0.00  0.00    -0.580 N 
ATOM      2  C   LIG    1        2.799   1.138  -0.407  0.00  0.00    +0.610 C 
ATOM      3  O   LIG    1        3.362   0.071  -0.251  0.00  0.00    -0.490 OA
ENDROOT
BRANCH   2   4
ATOM      4  C   LIG    1        1.387   1.171  -0.834  0.00  0.00    +0.000 A 
ATOM      5  N   LIG    1        0.632   2.245  -0.964  0.00  0.00    -0.280 NA
ATOM      6  N   LIG    1       -0.546   1.913  -1.354  0.00  0.00    -0.230 N 
ATOM      7  C   LIG    1       -0.624   0.566  -1.508  0.00  0.00    +0.180 A 
ATOM      8  C   LIG    1        0.587   0.056  -1.181  0.00  0.00    +0.010 A 
BRANCH   6   9
ATOM      9  C   LIG    1       -1.596   2.811  -1.591  0.00  0.00    +0.090 A 
ATOM     10  C   LIG    1       -2.831   2.339  -2.016  0.00  0.00    +0.060 A 
ATOM     11  C   LIG    1       -3.867   3.223  -2.243  0.00  0.00    -0.040 A 
ATOM     12  C   LIG    1       -3.671   4.584  -2.058  0.00  0.00    +0.130 A 
ATOM     13  C   LIG    1       -2.435   5.057  -1.639  0.00  0.00    +0.020 A 
ATOM     14  C   LIG    1       -1.401   4.173  -1.405  0.00  0.00    +0.070 A 
BRANCH  12  15
ATOM     15  O   LIG    1       -4.689   5.455  -2.288  0.00  0.00    -0.310 OA
ATOM     16  C   LIG    1       -5.933   4.899  -2.717  0.00  0.00    +0.250 C 
ENDBRANCH  12  15
ENDBRANCH   6   9
ENDBRANCH   2   4
BRANCH   1  17
ATOM     17  C   LIG    1        2.753   3.568  -0.243  0.00  0.00    +0.250 C 
ATOM     18  C   LIG    1        3.031   4.361   1.036  0.00  0.00    +0.050 C 
BRANCH  17  19
ATOM     19  C   LIG    1        3.227   4.358  -1.436  0.00  0.00    +0.510 C 
ATOM     20  O   LIG    1        4.231   4.020  -2.026  0.00  0.00    -0.530 OA
ATOM     21  N   LIG    1        2.534   5.439  -1.847  0.00  0.00    -0.850 N 
ATOM     22  H   LIG    1        2.839   5.947  -2.614  0.00  0.00    +0.400 HD
ATOM     23  H   LIG    1        1.731   5.709  -1.374  0.00  0.00    +0.400 HD
ENDBRANCH  17  19
ENDBRANCH   1  17
BRANCH   1  24
ATOM     24  C   LIG    1        4.901   2.262   0.100  0.00  0.00    +0.320 C 
BRANCH  24  25
ATOM     25  C   LIG    1        5.115   2.038   1.598  0.00  0.00    +0.150 C 
BRANCH  25  27
ATOM     26  C   LIG    1        4.563   0.544   3.390  0.00  0.00    +0.190 C 
ATOM     27  O   LIG    1        4.517   0.798   1.984  0.00  0.00    -0.370 OA
ENDBRANCH  25  27
ENDBRANCH  24  25
ENDBRANCH   1  24
TORSDOF 8
