REMARK  Name = ZINCqH0000034cfu.0
REMARK                            x       y       z     vdW  Elec       q    Type
REMARK                         _______ _______ _______ _____ _____    ______ ____
ROOT
ATOM      1  C   LIG    1        6.746   2.388  -4.487  0.00  0.00    +0.590 C 
ATOM      2  N   LIG    1        6.267   2.404  -3.228  0.00  0.00    -0.610 N 
ATOM      3  C   LIG    1        6.103   3.671  -2.498  0.00  0.00    +0.300 C 
ATOM      4  C   LIG    1        6.787   3.538  -1.133  0.00  0.00    +0.170 C 
ATOM      5  N   LIG    1        6.267   2.351  -0.442  0.00  0.00    -0.530 NA
ATOM      6  C   LIG    1        6.587   1.122  -1.179  0.00  0.00    +0.170 C 
ATOM      7  C   LIG    1        5.894   1.155  -2.546  0.00  0.00    +0.270 C 
ATOM      8  O   LIG    1        6.988   3.435  -5.060  0.00  0.00    -0.530 OA
ENDROOT
BRANCH   1  12
ATOM      9  C   LIG    1        8.035  -0.473  -6.439  0.00  0.00    -0.120 A 
ATOM     10  C   LIG    1        6.938  -1.176  -6.135  0.00  0.00    -0.200 A 
ATOM     11  S   LIG    1        5.883  -0.267  -5.149  0.00  0.00    +0.210 S 
ATOM     12  C   LIG    1        6.976   1.111  -5.168  0.00  0.00    -0.270 A 
ATOM     13  C   LIG    1        6.672  -2.586  -6.596  0.00  0.00    +0.140 C 
ATOM     14  C   LIG    1        8.078   0.797  -5.914  0.00  0.00    +0.100 A 
BRANCH   9  16
ATOM     15  C   LIG    1        8.803  -0.821  -8.771  0.00  0.00    +0.030 C 
ATOM     16  C   LIG    1        9.143  -1.032  -7.294  0.00  0.00    +0.080 C 
ENDBRANCH   9  16
ENDBRANCH   1  12
BRANCH   5  17
ATOM     17  C   LIG    1        6.768   2.283   0.938  0.00  0.00    +0.240 C 
BRANCH  17  18
ATOM     18  C   LIG    1        6.030   1.204   1.688  0.00  0.00    -0.090 A 
ATOM     19  C   LIG    1        4.868   1.510   2.370  0.00  0.00    +0.070 A 
ATOM     20  C   LIG    1        4.189   0.523   3.059  0.00  0.00    -0.040 A 
ATOM     21  C   LIG    1        4.674  -0.776   3.066  0.00  0.00    +0.100 A 
ATOM     22  C   LIG    1        5.842  -1.082   2.380  0.00  0.00    +0.070 A 
ATOM     23  F   LIG    1        6.318  -2.346   2.384  0.00  0.00    -0.130 F 
ATOM     24  C   LIG    1        6.518  -0.090   1.692  0.00  0.00    +0.030 A 
BRANCH  21  25
ATOM     25  O   LIG    1        4.007  -1.748   3.743  0.00  0.00    -0.310 OA
ATOM     26  C   LIG    1        2.813  -1.361   4.425  0.00  0.00    +0.250 C 
ENDBRANCH  21  25
ENDBRANCH  17  18
ENDBRANCH   5  17
TORSDOF 5
