REMARK  Name = ZINCrg000015q5fE.0
REMARK                            x       y       z     vdW  Elec       q    Type
REMARK                         _______ _______ _______ _____ _____    ______ ____
ROOT
ATOM      1  S   LIG    1        3.402  -0.819   1.496  0.00  0.00    +2.810 S 
ATOM      2  O   LIG    1        2.981  -2.045   2.078  0.00  0.00    -0.970 OA
ATOM      3  O   LIG    1        4.395   0.016   2.076  0.00  0.00    -0.970 OA
ENDROOT
BRANCH   1   7
ATOM      4  C   LIG    1       -0.019   1.526   0.010  0.00  0.00    +0.080 C 
ATOM      5  C   LIG    1        1.417   2.058  -0.000  0.00  0.00    +0.030 C 
ATOM      6  C   LIG    1        2.144   1.577   1.259  0.00  0.00    +0.290 C 
ATOM      7  N   LIG    1        2.043   0.113   1.334  0.00  0.00    -1.000 NA
ATOM      8  C   LIG    1        0.714  -0.508   1.262  0.00  0.00    +0.290 C 
ATOM      9  C   LIG    1        0.002  -0.004   0.002  0.00  0.00    +0.030 C 
BRANCH   4  13
ATOM     10  C   LIG    1       -3.347   3.807  -2.963  0.00  0.00    +0.350 C 
ATOM     11  N   LIG    1       -2.201   3.020  -2.500  0.00  0.00    -0.380 N 
ATOM     12  C   LIG    1       -1.867   2.787  -1.214  0.00  0.00    +0.230 A 
ATOM     13  C   LIG    1       -0.748   2.025  -1.210  0.00  0.00    -0.230 A 
ATOM     14  C   LIG    1       -0.392   1.778  -2.540  0.00  0.00    +0.240 A 
ATOM     15  N   LIG    1       -1.262   2.374  -3.314  0.00  0.00    -0.300 NA
ENDBRANCH   4  13
ENDBRANCH   1   7
BRANCH   1  16
ATOM     16  N   LIG    1        3.932  -1.184  -0.030  0.00  0.00    -1.050 NA
ATOM     17  C   LIG    1        3.698  -2.262  -1.002  0.00  0.00    +0.290 C 
ATOM     18  C   LIG    1        4.030  -1.254  -2.114  0.00  0.00    +0.270 C 
ATOM     19  C   LIG    1        4.848  -0.575  -1.006  0.00  0.00    +0.300 C 
BRANCH  18  20
ATOM     20  N   LIG    1        4.838  -1.808  -3.203  0.00  0.00    -0.700 N 
ATOM     21  H   LIG    1        5.760  -2.062  -3.042  0.00  0.00    +0.410 HD
ATOM     22  C   LIG    1        4.300  -1.966  -4.429  0.00  0.00    +0.650 C 
ATOM     23  O   LIG    1        3.144  -1.649  -4.630  0.00  0.00    -0.560 OA
BRANCH  22  24
ATOM     24  O   LIG    1        5.042  -2.477  -5.429  0.00  0.00    -0.360 OA
BRANCH  24  25
ATOM     25  C   LIG    1        4.397  -2.619  -6.723  0.00  0.00    +0.140 C 
ATOM     26  C   LIG    1        3.190  -3.549  -6.591  0.00  0.00    +0.040 C 
ATOM     27  C   LIG    1        5.390  -3.210  -7.725  0.00  0.00    +0.080 C 
ATOM     28  C   LIG    1        3.932  -1.246  -7.214  0.00  0.00    +0.040 C 
ENDBRANCH  24  25
ENDBRANCH  22  24
ENDBRANCH  18  20
ENDBRANCH   1  16
TORSDOF 6
