REMARK  Name = ZINCrg000009DEFe.0
REMARK                            x       y       z     vdW  Elec       q    Type
REMARK                         _______ _______ _______ _____ _____    ______ ____
ROOT
ATOM      1  N   LIG    1        0.428  -1.046   3.638  0.00  0.00    -0.720 N 
ATOM      2  H   LIG    1        0.597  -1.992   3.504  0.00  0.00    +0.410 HD
ATOM      3  C   LIG    1        0.207  -0.244   2.578  0.00  0.00    +0.590 C 
ATOM      4  O   LIG    1        0.085   0.955   2.738  0.00  0.00    -0.510 OA
ENDROOT
BRANCH   3   5
ATOM      5  C   LIG    1        0.111  -0.822   1.223  0.00  0.00    -0.250 A 
ATOM      6  C   LIG    1        1.250  -1.195   0.538  0.00  0.00    +0.250 A 
ATOM      7  N   LIG    1        1.125  -1.719  -0.711  0.00  0.00    -0.320 N 
ATOM      8  N   LIG    1        2.064  -2.188  -1.636  0.00  0.00    -0.310 NA
ATOM      9  C   LIG    1        1.432  -2.607  -2.708  0.00  0.00    +0.300 A 
ATOM     10  C   LIG    1        0.067  -2.433  -2.523  0.00  0.00    -0.090 A 
ATOM     11  C   LIG    1       -0.121  -1.878  -1.266  0.00  0.00    +0.270 A 
ATOM     12  N   LIG    1       -1.225  -1.514  -0.596  0.00  0.00    -0.470 NA
ATOM     13  C   LIG    1        2.611  -1.020   1.162  0.00  0.00    +0.170 C 
ATOM     14  C   LIG    1       -1.150  -1.001   0.606  0.00  0.00    +0.250 A 
ATOM     15  C   LIG    1       -2.408  -0.602   1.334  0.00  0.00    +0.160 C 
ENDBRANCH   3   5
BRANCH   1  16
ATOM     16  C   LIG    1        0.415  -0.490   4.993  0.00  0.00    +0.300 C 
BRANCH  16  23
ATOM     17  C   LIG    1        4.228  -5.326   6.337  0.00  0.00    +0.570 C 
ATOM     18  N   LIG    1        3.510  -4.334   6.901  0.00  0.00    -0.640 N 
ATOM     19  C   LIG    1        3.834  -2.986   7.411  0.00  0.00    +0.310 C 
ATOM     20  C   LIG    1        2.361  -2.660   7.159  0.00  0.00    +0.070 C 
ATOM     21  C   LIG    1        1.682  -1.792   8.226  0.00  0.00    +0.040 C 
ATOM     22  C   LIG    1        0.560  -1.064   7.447  0.00  0.00    +0.030 C 
ATOM     23  C   LIG    1        0.693  -1.604   6.005  0.00  0.00    +0.140 C 
ATOM     24  O   LIG    1        2.064  -2.051   5.897  0.00  0.00    -0.330 OA
ATOM     25  C   LIG    1        2.086  -4.161   7.255  0.00  0.00    +0.280 C 
ATOM     26  O   LIG    1        5.423  -5.188   6.160  0.00  0.00    -0.540 OA
BRANCH  17  28
ATOM     27  C   LIG    1        4.273  -7.555   5.379  0.00  0.00    +0.150 C 
ATOM     28  C   LIG    1        3.565  -6.577   5.935  0.00  0.00    -0.090 C 
ENDBRANCH  17  28
ENDBRANCH  16  23
ENDBRANCH   1  16
TORSDOF 4
