REMARK  Name = ZINCkj000005gmaN.0
REMARK                            x       y       z     vdW  Elec       q    Type
REMARK                         _______ _______ _______ _____ _____    ______ ____
ROOT
ATOM      1  C   LIG    1       -1.517  -3.395   0.229  0.00  0.00    +0.600 C 
ATOM      2  N   LIG    1       -0.945  -4.565  -0.117  0.00  0.00    -0.610 N 
ATOM      3  C   LIG    1        0.514  -4.691  -0.133  0.00  0.00    +0.290 C 
ATOM      4  O   LIG    1       -2.729  -3.295   0.258  0.00  0.00    -0.500 OA
ENDROOT
BRANCH   2   5
ATOM      5  C   LIG    1       -1.784  -5.711  -0.478  0.00  0.00    +0.250 C 
ATOM      6  C   LIG    1       -1.496  -6.876   0.474  0.00  0.00    +0.050 C 
ATOM      7  C   LIG    1       -2.316  -8.094   0.044  0.00  0.00    +0.260 C 
ATOM      8  N   LIG    1       -1.948  -8.477  -1.325  0.00  0.00    -0.390 N 
ATOM      9  C   LIG    1       -2.287  -7.392  -2.254  0.00  0.00    +0.270 C 
ATOM     10  H   LIG    1       -0.956  -8.657  -1.367  0.00  0.00    +0.420 HD
ATOM     11  C   LIG    1       -1.466  -6.147  -1.911  0.00  0.00    +0.050 C 
BRANCH   8  12
ATOM     12  C   LIG    1       -2.681  -9.692  -1.704  0.00  0.00    +0.250 C 
ATOM     13  C   LIG    1       -2.236 -10.855  -0.816  0.00  0.00    +0.080 C 
ENDBRANCH   8  12
ENDBRANCH   2   5
BRANCH   1  18
ATOM     14  C   LIG    1        0.019  -0.162   1.057  0.00  0.00    +0.270 A 
ATOM     15  N   LIG    1        1.075  -0.941   1.079  0.00  0.00    -0.310 NA
ATOM     16  N   LIG    1        0.675  -2.250   0.784  0.00  0.00    -0.460 N 
ATOM     17  H   LIG    1        1.254  -3.027   0.736  0.00  0.00    +0.440 HD
ATOM     18  C   LIG    1       -0.675  -2.237   0.572  0.00  0.00    +0.040 A 
ATOM     19  C   LIG    1       -1.100  -0.935   0.739  0.00  0.00    +0.000 A 
BRANCH  14  20
ATOM     20  O   LIG    1        0.016   1.176   1.297  0.00  0.00    -0.290 OA
BRANCH  20  22
ATOM     21  C   LIG    1        1.071   3.281   1.844  0.00  0.00    +0.060 C 
ATOM     22  C   LIG    1        1.272   1.783   1.607  0.00  0.00    +0.200 C 
ENDBRANCH  20  22
ENDBRANCH  14  20
ENDBRANCH   1  18
TORSDOF 5
