REMARK  Name = ZINCrH00000No4wh.0
REMARK                            x       y       z     vdW  Elec       q    Type
REMARK                         _______ _______ _______ _____ _____    ______ ____
ROOT
ATOM      1  O   LIG    1        0.843  -0.541   0.634  0.00  0.00    -0.510 OA
ATOM      2  C   LIG    1       -0.283  -0.091   0.599  0.00  0.00    +0.510 C 
ATOM      3  N   LIG    1       -1.268  -0.785  -0.004  0.00  0.00    -0.600 N 
ENDROOT
BRANCH   3   4
ATOM      4  C   LIG    1       -2.638  -0.267   0.001  0.00  0.00    +0.250 C 
ATOM      5  C   LIG    1       -2.833   0.648   1.212  0.00  0.00    -0.000 C 
ATOM      6  C   LIG    1       -4.264   1.191   1.216  0.00  0.00    +0.030 C 
ATOM      7  C   LIG    1       -4.511   1.986  -0.068  0.00  0.00    +0.010 C 
ATOM      8  C   LIG    1       -4.317   1.071  -1.279  0.00  0.00    +0.030 C 
ATOM      9  C   LIG    1       -2.887   0.527  -1.282  0.00  0.00    -0.070 C 
ATOM     10  C   LIG    1       -2.689  -0.385  -2.496  0.00  0.00    +0.000 C 
ATOM     11  C   LIG    1       -2.863   0.438  -3.776  0.00  0.00    +0.210 C 
ATOM     12  O   LIG    1       -1.933   1.523  -3.773  0.00  0.00    -0.380 OA
ATOM     13  C   LIG    1       -2.102   2.435  -2.686  0.00  0.00    +0.220 C 
ATOM     14  C   LIG    1       -1.897   1.693  -1.363  0.00  0.00    +0.000 C 
ENDBRANCH   3   4
BRANCH   2  15
ATOM     15  C   LIG    1       -0.579   1.246   1.229  0.00  0.00    +0.190 C 
ATOM     16 CL   LIG    1        0.959   2.000   1.791  0.00  0.00    -0.150 Cl
ENDBRANCH   2  15
BRANCH   3  17
ATOM     17  C   LIG    1       -0.969  -2.058  -0.663  0.00  0.00    +0.380 C 
BRANCH  17  18
ATOM     18  C   LIG    1       -1.341  -3.197   0.251  0.00  0.00    +0.070 A 
ATOM     19  C   LIG    1       -2.506  -3.886   0.235  0.00  0.00    -0.100 A 
ATOM     20  C   LIG    1       -2.445  -4.857   1.240  0.00  0.00    +0.240 A 
ATOM     21  N   LIG    1       -1.289  -4.751   1.842  0.00  0.00    -0.280 NA
ATOM     22  N   LIG    1       -0.574  -3.710   1.236  0.00  0.00    -0.340 N 
BRANCH  22  23
ATOM     23  C   LIG    1        0.770  -3.258   1.605  0.00  0.00    +0.260 C 
ATOM     24  C   LIG    1        1.442  -3.941   2.798  0.00  0.00    +0.120 C 
ATOM     25  C   LIG    1        1.930  -4.229   1.375  0.00  0.00    +0.200 C 
ATOM     26  F   LIG    1        3.161  -3.685   0.992  0.00  0.00    -0.150 F 
ATOM     27  F   LIG    1        1.627  -5.480   0.828  0.00  0.00    -0.150 F 
ENDBRANCH  22  23
ENDBRANCH  17  18
ENDBRANCH   3  17
TORSDOF 5
