REMARK  Name = ZINCrH000004q4l3.0
REMARK                            x       y       z     vdW  Elec       q    Type
REMARK                         _______ _______ _______ _____ _____    ______ ____
ROOT
ATOM      1  C   LIG    1        0.717  -0.555  -0.623  0.00  0.00    +0.110 C 
ATOM      2  C   LIG    1        2.107   0.022  -0.342  0.00  0.00    +0.070 C 
ENDROOT
BRANCH   1   3
ATOM      3  C   LIG    1        0.772  -2.059  -0.543  0.00  0.00    +0.450 C 
ATOM      4  O   LIG    1        0.407  -2.627   0.466  0.00  0.00    -0.420 OA
BRANCH   3   7
ATOM      5  C   LIG    1       -0.941  -2.951  -2.967  0.00  0.00    +0.150 C 
ATOM      6  C   LIG    1        0.523  -3.225  -2.741  0.00  0.00    +0.140 A 
ATOM      7  C   LIG    1        1.250  -2.810  -1.646  0.00  0.00    -0.260 A 
ATOM      8  C   LIG    1        2.627  -3.299  -1.856  0.00  0.00    -0.060 A 
ATOM      9  C   LIG    1        3.805  -3.216  -1.120  0.00  0.00    +0.040 A 
ATOM     10  C   LIG    1        4.954  -3.804  -1.603  0.00  0.00    +0.000 A 
ATOM     11  C   LIG    1        4.938  -4.479  -2.814  0.00  0.00    +0.030 A 
ATOM     12  C   LIG    1        3.777  -4.573  -3.550  0.00  0.00    +0.000 A 
ATOM     13  C   LIG    1        2.606  -3.987  -3.079  0.00  0.00    +0.090 A 
ATOM     14  N   LIG    1        1.322  -3.915  -3.579  0.00  0.00    -0.570 N 
ATOM     15  H   LIG    1        1.033  -4.307  -4.418  0.00  0.00    +0.420 HD
ENDBRANCH   3   7
ENDBRANCH   1   3
BRANCH   1  16
ATOM     16  N   LIG    1       -0.235  -0.046   0.373  0.00  0.00    -0.510 NA
ATOM     17  C   LIG    1       -1.561  -0.652   0.192  0.00  0.00    +0.200 C 
BRANCH  16  18
ATOM     18  C   LIG    1       -0.315   1.420   0.325  0.00  0.00    +0.220 C 
BRANCH  18  19
ATOM     19  C   LIG    1       -1.102   1.920   1.508  0.00  0.00    +0.510 C 
ATOM     20  N   LIG    1       -1.306   3.242   1.672  0.00  0.00    -0.680 N 
ATOM     21  H   LIG    1       -1.017   3.866   0.988  0.00  0.00    +0.410 HD
ATOM     22  O   LIG    1       -1.552   1.133   2.313  0.00  0.00    -0.490 OA
BRANCH  20  23
ATOM     23  C   LIG    1       -1.934   3.715   2.830  0.00  0.00    +0.180 A 
ATOM     24  C   LIG    1       -2.765   4.826   2.766  0.00  0.00    -0.030 A 
ATOM     25  C   LIG    1       -3.389   5.287   3.909  0.00  0.00    +0.070 A 
ATOM     26  C   LIG    1       -3.177   4.653   5.118  0.00  0.00    -0.030 A 
ATOM     27  C   LIG    1       -2.345   3.548   5.187  0.00  0.00    +0.120 A 
ATOM     28  F   LIG    1       -2.141   2.929   6.371  0.00  0.00    -0.130 F 
ATOM     29  C   LIG    1       -1.722   3.078   4.045  0.00  0.00    -0.010 A 
ENDBRANCH  20  23
ENDBRANCH  18  19
ENDBRANCH  16  18
ENDBRANCH   1  16
TORSDOF 6
