REMARK  Name = ZINCrH00000tj17a.0
REMARK                            x       y       z     vdW  Elec       q    Type
REMARK                         _______ _______ _______ _____ _____    ______ ____
ROOT
ATOM      1  N   LIG    1       -0.017   1.389   0.010  0.00  0.00    -0.850 N 
ATOM      2  N   LIG    1        0.002  -0.004   0.002  0.00  0.00    -0.200 NA
ATOM      3  C   LIG    1        1.184  -0.514  -0.012  0.00  0.00    +0.140 C 
ATOM      4  C   LIG    1        2.213   0.594  -0.016  0.00  0.00    +0.100 C 
ATOM      5  C   LIG    1        1.369   1.884  -0.001  0.00  0.00    +0.280 C 
ENDROOT
BRANCH   5   6
ATOM      6  C   LIG    1        1.631   2.703  -1.238  0.00  0.00    -0.100 A 
ATOM      7  C   LIG    1        2.374   3.838  -1.146  0.00  0.00    +0.110 A 
ATOM      8  C   LIG    1        2.625   4.603  -2.299  0.00  0.00    +0.080 A 
ATOM      9  N   LIG    1        3.356   5.721  -2.241  0.00  0.00    -0.420 NA
ATOM     10  C   LIG    1        3.568   6.418  -3.334  0.00  0.00    +0.260 A 
ATOM     11  C   LIG    1        3.038   6.004  -4.557  0.00  0.00    +0.260 A 
ATOM     12  N   LIG    1        2.316   4.910  -4.640  0.00  0.00    -0.420 NA
ATOM     13  C   LIG    1        2.086   4.183  -3.541  0.00  0.00    +0.080 A 
ATOM     14  C   LIG    1        1.318   3.006  -3.596  0.00  0.00    +0.080 A 
ATOM     15  C   LIG    1        1.102   2.289  -2.460  0.00  0.00    +0.040 A 
ENDBRANCH   5   6
BRANCH   3  16
ATOM     16  C   LIG    1        1.488  -1.958  -0.022  0.00  0.00    -0.030 A 
ATOM     17  C   LIG    1        2.815  -2.395  -0.042  0.00  0.00    +0.060 A 
ATOM     18  C   LIG    1        3.092  -3.746  -0.046  0.00  0.00    +0.030 A 
ATOM     19  C   LIG    1        2.059  -4.668  -0.040  0.00  0.00    -0.020 A 
ATOM     20  C   LIG    1        0.742  -4.241  -0.026  0.00  0.00    +0.030 A 
ATOM     21 CL   LIG    1        2.417  -6.367  -0.053  0.00  0.00    -0.060 Cl
ATOM     22  C   LIG    1        0.451  -2.893  -0.017  0.00  0.00    +0.070 A 
ENDBRANCH   3  16
BRANCH   1  23
ATOM     23  S   LIG    1       -1.377   2.334   0.021  0.00  0.00    +2.620 S 
ATOM     24  O   LIG    1       -0.929   3.587   0.521  0.00  0.00    -0.930 OA
ATOM     25  O   LIG    1       -2.334   1.562   0.733  0.00  0.00    -0.920 OA
BRANCH  23  27
ATOM     26  C   LIG    1       -3.104   3.336  -1.848  0.00  0.00    +0.090 C 
ATOM     27  C   LIG    1       -1.845   2.475  -1.725  0.00  0.00    -0.360 C 
ENDBRANCH  23  27
ENDBRANCH   1  23
TORSDOF 4
