REMARK  Name = ZINCAx0000000j95.0
REMARK                            x       y       z     vdW  Elec       q    Type
REMARK                         _______ _______ _______ _____ _____    ______ ____
ROOT
ATOM      1  C   LIG    1        2.629   3.970   0.002  0.00  0.00    +0.310 A 
ATOM      2  C   LIG    1        3.912   3.465  -0.044  0.00  0.00    -0.110 A 
ATOM      3  C   LIG    1        4.139   2.092  -0.026  0.00  0.00    +0.200 A 
ATOM      4  C   LIG    1        3.105   1.207   0.039  0.00  0.00    -0.740 A 
ATOM      5  C   LIG    1        1.786   1.680   0.087  0.00  0.00    +0.110 A 
ATOM      6  C   LIG    1        0.681   0.810   0.154  0.00  0.00    -0.060 A 
ATOM      7  C   LIG    1       -0.570   1.346   0.193  0.00  0.00    +0.280 A 
ATOM      8  N   LIG    1       -0.771   2.657   0.179  0.00  0.00    -0.490 NA
ATOM      9  C   LIG    1        0.212   3.525   0.118  0.00  0.00    +0.320 A 
ATOM     10  C   LIG    1        1.539   3.077   0.069  0.00  0.00    -0.180 A 
ENDROOT
BRANCH   4  11
ATOM     11  S   LIG    1        3.424  -0.525   0.061  0.00  0.00    +2.700 S 
ATOM     12  O   LIG    1        2.629  -1.093  -0.970  0.00  0.00    -0.950 OA
ATOM     13  O   LIG    1        3.340  -0.931   1.420  0.00  0.00    -0.940 OA
BRANCH  11  14
ATOM     14  N   LIG    1        5.002  -0.739  -0.393  0.00  0.00    -0.990 NA
ATOM     15  C   LIG    1        5.356  -0.812  -1.785  0.00  0.00    +0.270 C 
ATOM     16  C   LIG    1        5.391  -2.224  -2.394  0.00  0.00    +0.220 C 
ATOM     17  O   LIG    1        6.001  -3.164  -1.474  0.00  0.00    -0.370 OA
ATOM     18  C   LIG    1        7.100  -2.672  -0.766  0.00  0.00    +0.240 C 
ATOM     19  C   LIG    1        6.567  -2.250   0.601  0.00  0.00    +0.230 C 
ATOM     20  C   LIG    1        6.080  -0.864   0.641  0.00  0.00    +0.310 C 
BRANCH  19  21
ATOM     21  N   LIG    1        7.640  -2.398   1.588  0.00  0.00    -0.380 N 
ATOM     22  C   LIG    1        8.943  -2.119   1.410  0.00  0.00    +0.470 A 
ATOM     23  N   LIG    1        9.571  -2.382   2.526  0.00  0.00    -0.540 NA
ATOM     24  C   LIG    1        8.708  -2.837   3.434  0.00  0.00    +0.420 A 
ATOM     25  N   LIG    1        7.513  -2.865   2.906  0.00  0.00    -0.310 NA
ENDBRANCH  19  21
ENDBRANCH  11  14
ENDBRANCH   4  11
BRANCH   1  26
ATOM     26  N   LIG    1        2.412   5.344  -0.018  0.00  0.00    -0.710 N 
ATOM     27  H   LIG    1        1.508   5.694   0.015  0.00  0.00    +0.400 HD
BRANCH  26  28
ATOM     28  C   LIG    1        3.550   6.264  -0.087  0.00  0.00    +0.230 C 
ATOM     29  C   LIG    1        4.155   6.434   1.308  0.00  0.00    +0.040 C 
BRANCH  28  30
ATOM     30  C   LIG    1        3.077   7.623  -0.607  0.00  0.00    +0.140 C 
BRANCH  30  37
ATOM     31  C   LIG    1        0.039   7.182  -1.658  0.00  0.00    +0.160 C 
ATOM     32  C   LIG    1        1.286   7.288  -2.497  0.00  0.00    +0.020 A 
ATOM     33  N   LIG    1        1.360   7.223  -3.795  0.00  0.00    -0.360 NA
ATOM     34  O   LIG    1        2.500   7.336  -4.182  0.00  0.00    +0.100 OA
ATOM     35  C   LIG    1        3.353   7.501  -3.162  0.00  0.00    -0.020 A 
ATOM     36  C   LIG    1        4.847   7.675  -3.253  0.00  0.00    +0.190 C 
ATOM     37  C   LIG    1        2.607   7.480  -2.031  0.00  0.00    -0.210 A 
ENDBRANCH  30  37
ENDBRANCH  28  30
ENDBRANCH  26  28
ENDBRANCH   1  26
TORSDOF 7
