REMARK  Name = ZINCvU0000000J0b.0
REMARK                            x       y       z     vdW  Elec       q    Type
REMARK                         _______ _______ _______ _____ _____    ______ ____
ROOT
ATOM      1  C   LIG    1       -2.589   1.070  -0.381  0.00  0.00    -0.010 C 
ATOM      2  C   LIG    1       -3.766   2.020  -0.615  0.00  0.00    +0.060 C 
ATOM      3  C   LIG    1       -5.079   1.236  -0.536  0.00  0.00    +0.030 C 
ATOM      4  C   LIG    1       -5.096   0.166  -1.632  0.00  0.00    +0.270 C 
ATOM      5  N   LIG    1       -3.890  -0.663  -1.503  0.00  0.00    -0.610 N 
ATOM      6  C   LIG    1       -3.985  -2.004  -1.411  0.00  0.00    +0.570 C 
ATOM      7  O   LIG    1       -2.978  -2.684  -1.379  0.00  0.00    -0.520 OA
ATOM      8  C   LIG    1       -2.578  -0.002  -1.475  0.00  0.00    +0.300 C 
ENDROOT
BRANCH   6   9
ATOM      9  C   LIG    1       -5.311  -2.647  -1.347  0.00  0.00    -0.150 A 
ATOM     10  C   LIG    1       -6.266  -2.386  -2.333  0.00  0.00    +0.080 A 
ATOM     11  C   LIG    1       -7.503  -2.990  -2.268  0.00  0.00    -0.010 A 
ATOM     12  C   LIG    1       -7.805  -3.854  -1.229  0.00  0.00    +0.080 A 
ATOM     13  C   LIG    1       -6.871  -4.120  -0.247  0.00  0.00    -0.050 A 
ATOM     14  C   LIG    1       -5.619  -3.527  -0.300  0.00  0.00    +0.150 A 
BRANCH  14  15
ATOM     15  O   LIG    1       -4.698  -3.792   0.660  0.00  0.00    -0.310 OA
BRANCH  15  16
ATOM     16  C   LIG    1       -5.083  -4.698   1.695  0.00  0.00    +0.600 C 
ATOM     17  F   LIG    1       -5.407  -5.938   1.133  0.00  0.00    -0.190 F 
ATOM     18  F   LIG    1       -6.195  -4.188   2.373  0.00  0.00    -0.200 F 
ENDBRANCH  15  16
ENDBRANCH  14  15
ENDBRANCH   6   9
BRANCH   1  20
ATOM     19  O   LIG    1       -1.319   3.045  -0.622  0.00  0.00    -0.450 OA
ATOM     20  C   LIG    1       -1.299   1.848  -0.426  0.00  0.00    +0.520 C 
ATOM     21  N   LIG    1       -0.123   1.214  -0.248  0.00  0.00    -0.630 N 
ATOM     22  H   LIG    1       -0.107   0.257  -0.091  0.00  0.00    +0.430 HD
BRANCH  21  23
ATOM     23  C   LIG    1        1.063   1.928  -0.295  0.00  0.00    +0.340 A 
ATOM     24  N   LIG    1        1.150   3.196  -0.503  0.00  0.00    -0.470 NA
ATOM     25  C   LIG    1        2.379   3.751  -0.517  0.00  0.00    +0.110 A 
ATOM     26  C   LIG    1        2.736   5.101  -0.716  0.00  0.00    +0.100 A 
ATOM     27  C   LIG    1        4.054   5.481  -0.703  0.00  0.00    +0.060 A 
ATOM     28  C   LIG    1        5.057   4.545  -0.491  0.00  0.00    -0.030 A 
ATOM     29  C   LIG    1        4.731   3.220  -0.293  0.00  0.00    +0.080 A 
ATOM     30 CL   LIG    1        6.720   5.042  -0.477  0.00  0.00    -0.050 Cl
ATOM     31  C   LIG    1        3.398   2.817  -0.305  0.00  0.00    -0.170 A 
ATOM     32  S   LIG    1        2.664   1.231  -0.088  0.00  0.00    +0.080 S 
ENDBRANCH  21  23
ENDBRANCH   1  20
TORSDOF 5
