REMARK  Name = ZINCpk000005YwxP.0
REMARK                            x       y       z     vdW  Elec       q    Type
REMARK                         _______ _______ _______ _____ _____    ______ ____
ROOT
ATOM      1  C   LIG    1       -6.960   3.722   0.055  0.00  0.00    +0.250 C 
ATOM      2  C   LIG    1       -7.481   3.651   1.501  0.00  0.00    +0.010 C 
ATOM      3  C   LIG    1       -8.287   4.944   1.743  0.00  0.00    +0.020 C 
ATOM      4  C   LIG    1       -8.711   5.398   0.325  0.00  0.00    +0.030 C 
ATOM      5  C   LIG    1       -7.467   5.055  -0.532  0.00  0.00    -0.020 C 
ENDROOT
BRANCH   1   8
ATOM      6  O   LIG    1       -5.470   1.474   0.037  0.00  0.00    -0.530 OA
ATOM      7  C   LIG    1       -4.843   2.515   0.039  0.00  0.00    +0.590 C 
ATOM      8  N   LIG    1       -5.495   3.695   0.048  0.00  0.00    -0.720 N 
ATOM      9  H   LIG    1       -4.995   4.526   0.050  0.00  0.00    +0.400 HD
BRANCH   7  10
ATOM     10  C   LIG    1       -3.368   2.488   0.032  0.00  0.00    -0.170 A 
ATOM     11  C   LIG    1       -2.529   3.585   0.042  0.00  0.00    +0.160 A 
ATOM     12  N   LIG    1       -1.248   3.153   0.029  0.00  0.00    -0.340 N 
ATOM     13  C   LIG    1       -0.059   3.841   0.022  0.00  0.00    +0.190 A 
ATOM     14  C   LIG    1        1.115   3.185   0.008  0.00  0.00    +0.020 A 
ATOM     15  C   LIG    1        1.149   1.777   0.001  0.00  0.00    +0.010 A 
ATOM     16  C   LIG    1       -0.013   1.076   0.008  0.00  0.00    +0.080 A 
ATOM     17  C   LIG    1       -1.242   1.773   0.018  0.00  0.00    +0.030 A 
ATOM     18  C   LIG    1       -2.551   1.336   0.022  0.00  0.00    +0.030 A 
ENDBRANCH   7  10
ENDBRANCH   1   8
BRANCH   5  19
ATOM     19  C   LIG    1       -7.858   4.879  -2.001  0.00  0.00    +0.280 C 
BRANCH  19  20
ATOM     20  N   LIG    1       -8.222   6.179  -2.568  0.00  0.00    -0.730 N 
ATOM     21  H   LIG    1       -8.188   6.976  -2.016  0.00  0.00    +0.400 HD
ATOM     22  C   LIG    1       -8.604   6.268  -3.858  0.00  0.00    +0.530 C 
ATOM     23  O   LIG    1       -8.646   5.272  -4.548  0.00  0.00    -0.520 OA
BRANCH  22  24
ATOM     24  C   LIG    1       -8.978   7.606  -4.442  0.00  0.00    +0.010 C 
ATOM     25  C   LIG    1      -10.226   7.667  -5.325  0.00  0.00    +0.060 C 
ATOM     26  C   LIG    1       -8.835   7.781  -5.955  0.00  0.00    +0.100 C 
BRANCH  24  27
ATOM     27  O   LIG    1       -8.697   8.739  -3.618  0.00  0.00    -0.520 OA
ATOM     28  H   LIG    1       -8.804   8.573  -2.671  0.00  0.00    +0.380 HD
ENDBRANCH  24  27
ENDBRANCH  22  24
ENDBRANCH  19  20
ENDBRANCH   5  19
TORSDOF 6
