REMARK  Name = ZINCvU0000000ATz.0
REMARK                            x       y       z     vdW  Elec       q    Type
REMARK                         _______ _______ _______ _____ _____    ______ ____
ROOT
ATOM      1  C   LIG    1       -0.346   0.736  -0.048  0.00  0.00    +0.530 C 
ATOM      2  N   LIG    1       -1.212   1.767   0.003  0.00  0.00    -0.500 N 
ATOM      3  O   LIG    1       -0.746  -0.400   0.102  0.00  0.00    -0.490 OA
ENDROOT
BRANCH   2   4
ATOM      4  C   LIG    1       -2.543   1.542   0.334  0.00  0.00    +0.250 A 
ATOM      5  N   LIG    1       -3.451   2.458   0.416  0.00  0.00    -0.500 NA
ATOM      6  C   LIG    1       -4.682   2.079   0.739  0.00  0.00    +0.090 A 
ATOM      7  C   LIG    1       -4.791   0.755   0.948  0.00  0.00    -0.270 A 
ATOM      8  C   LIG    1       -6.062   0.037   1.334  0.00  0.00    +0.120 C 
ATOM      9  C   LIG    1       -7.076   1.071   1.835  0.00  0.00    +0.020 C 
ATOM     10  C   LIG    1       -7.157   2.219   0.825  0.00  0.00    +0.020 C 
ATOM     11  C   LIG    1       -5.861   3.031   0.872  0.00  0.00    +0.120 C 
ATOM     12  S   LIG    1       -3.216   0.013   0.697  0.00  0.00    +0.230 S 
ENDBRANCH   2   4
BRANCH   1  13
ATOM     13  C   LIG    1        1.118   0.992  -0.298  0.00  0.00    +0.140 C 
BRANCH  13  14
ATOM     14  S   LIG    1        2.010  -0.582  -0.325  0.00  0.00    +0.080 S 
BRANCH  14  24
ATOM     15  C   LIG    1        4.788  -2.256  -0.641  0.00  0.00    +0.330 C 
ATOM     16  N   LIG    1        4.752  -0.795  -0.742  0.00  0.00    -0.480 N 
ATOM     17  C   LIG    1        5.834   0.039  -0.974  0.00  0.00    +0.050 A 
ATOM     18  C   LIG    1        7.189  -0.176  -1.173  0.00  0.00    +0.010 A 
ATOM     19  C   LIG    1        8.031   0.896  -1.385  0.00  0.00    +0.030 A 
ATOM     20  C   LIG    1        7.532   2.189  -1.399  0.00  0.00    +0.010 A 
ATOM     21  C   LIG    1        6.189   2.422  -1.203  0.00  0.00    +0.060 A 
ATOM     22  C   LIG    1        5.322   1.348  -0.989  0.00  0.00    +0.060 A 
ATOM     23  N   LIG    1        3.983   1.256  -0.776  0.00  0.00    -0.500 NA
ATOM     24  C   LIG    1        3.647  -0.001  -0.625  0.00  0.00    +0.240 A 
ENDBRANCH  14  24
ENDBRANCH  13  14
ENDBRANCH   1  13
BRANCH   2  25
ATOM     25  C   LIG    1       -0.750   3.127  -0.289  0.00  0.00    +0.360 C 
BRANCH  25  26
ATOM     26  C   LIG    1       -0.400   3.826   0.999  0.00  0.00    -0.120 A 
ATOM     27  C   LIG    1       -1.386   4.464   1.729  0.00  0.00    +0.050 A 
ATOM     28  C   LIG    1       -1.067   5.101   2.913  0.00  0.00    +0.000 A 
ATOM     29  C   LIG    1        0.241   5.110   3.362  0.00  0.00    +0.010 A 
ATOM     30  C   LIG    1        1.228   4.477   2.629  0.00  0.00    +0.000 A 
ATOM     31  C   LIG    1        0.907   3.835   1.448  0.00  0.00    +0.010 A 
ENDBRANCH  25  26
ENDBRANCH   2  25
TORSDOF 6
