REMARK  Name = ZINCrD000006UQah.0
REMARK                            x       y       z     vdW  Elec       q    Type
REMARK                         _______ _______ _______ _____ _____    ______ ____
ROOT
ATOM      1  C   LIG    1       -2.486   3.305   1.915  0.00  0.00    +0.500 C 
ATOM      2  N   LIG    1       -1.344   2.602   1.778  0.00  0.00    -0.730 N 
ATOM      3  H   LIG    1       -1.056   2.002   2.484  0.00  0.00    +0.400 HD
ATOM      4  O   LIG    1       -2.845   4.056   1.033  0.00  0.00    -0.520 OA
ENDROOT
BRANCH   1   5
ATOM      5  C   LIG    1       -3.315   3.160   3.165  0.00  0.00    +0.260 C 
BRANCH   5   7
ATOM      6  C   LIG    1       -4.501   1.532   4.642  0.00  0.00    +0.040 C 
ATOM      7  C   LIG    1       -3.758   1.703   3.316  0.00  0.00    -0.010 C 
ATOM      8  C   LIG    1       -4.686   1.330   2.159  0.00  0.00    +0.040 C 
ENDBRANCH   5   7
BRANCH   5   9
ATOM      9  N   LIG    1       -4.495   4.022   3.071  0.00  0.00    -1.090 NA
ATOM     10  H   LIG    1       -5.163   3.857   2.387  0.00  0.00    +0.430 HD
BRANCH   9  11
ATOM     11  S   LIG    1       -4.690   5.279   4.132  0.00  0.00    +2.720 S 
ATOM     12  O   LIG    1       -4.493   4.740   5.432  0.00  0.00    -0.940 OA
ATOM     13  O   LIG    1       -5.878   5.953   3.742  0.00  0.00    -0.950 OA
BRANCH  11  14
ATOM     14  C   LIG    1       -3.364   6.405   3.854  0.00  0.00    -0.800 A 
ATOM     15  C   LIG    1       -3.390   7.426   2.996  0.00  0.00    +0.180 A 
ATOM     16  C   LIG    1       -2.228   8.178   2.949  0.00  0.00    -0.010 A 
ATOM     17  C   LIG    1       -1.259   7.767   3.769  0.00  0.00    +0.000 A 
ATOM     18  S   LIG    1       -1.808   6.361   4.672  0.00  0.00    +0.200 S 
ENDBRANCH  11  14
ENDBRANCH   9  11
ENDBRANCH   5   9
ENDBRANCH   1   5
BRANCH   2  19
ATOM     19  C   LIG    1       -0.538   2.744   0.563  0.00  0.00    +0.320 C 
BRANCH  19  20
ATOM     20  C   LIG    1        0.676   1.857   0.659  0.00  0.00    -0.110 A 
ATOM     21  C   LIG    1        1.847   2.345   1.209  0.00  0.00    +0.070 A 
ATOM     22  C   LIG    1        2.963   1.534   1.290  0.00  0.00    +0.020 A 
ATOM     23  C   LIG    1        2.908   0.234   0.826  0.00  0.00    +0.080 A 
ATOM     24  C   LIG    1        1.737  -0.255   0.277  0.00  0.00    -0.180 A 
ATOM     25  C   LIG    1        0.622   0.556   0.194  0.00  0.00    +0.090 A 
BRANCH  24  26
ATOM     26  C   LIG    1        1.677  -1.673  -0.230  0.00  0.00    +0.510 C 
ATOM     27  F   LIG    1        0.374  -2.163  -0.092  0.00  0.00    -0.180 F 
ATOM     28  F   LIG    1        2.556  -2.471   0.511  0.00  0.00    -0.180 F 
ATOM     29  F   LIG    1        2.046  -1.702  -1.579  0.00  0.00    -0.170 F 
ENDBRANCH  24  26
ENDBRANCH  19  20
ENDBRANCH   2  19
TORSDOF 8
