REMARK  Name = ZINCpe00000c92jW.0
REMARK                            x       y       z     vdW  Elec       q    Type
REMARK                         _______ _______ _______ _____ _____    ______ ____
ROOT
ATOM      1  N   LIG    1       -2.294   1.383   3.542  0.00  0.00    -0.520 NA
ATOM      2  C   LIG    1       -2.797   1.991   2.302  0.00  0.00    +0.190 C 
ATOM      3  C   LIG    1       -2.041   1.405   1.107  0.00  0.00    +0.190 C 
ATOM      4  N   LIG    1       -0.602   1.658   1.269  0.00  0.00    -0.530 NA
ATOM      5  C   LIG    1       -0.099   1.051   2.509  0.00  0.00    +0.200 C 
ATOM      6  C   LIG    1       -0.855   1.637   3.704  0.00  0.00    +0.190 C 
ENDROOT
BRANCH   4   7
ATOM      7  C   LIG    1        0.151   1.176   0.103  0.00  0.00    +0.130 C 
ATOM      8  C   LIG    1        1.659   1.514   0.237  0.00  0.00    +0.060 C 
ATOM      9  C   LIG    1        2.129   1.587  -1.231  0.00  0.00    +0.250 C 
ATOM     10  N   LIG    1        0.941   1.849  -2.057  0.00  0.00    -0.620 N 
ATOM     11  C   LIG    1        0.927   1.961  -3.400  0.00  0.00    +0.610 C 
ATOM     12  O   LIG    1       -0.119   2.179  -3.981  0.00  0.00    -0.530 OA
ATOM     13  C   LIG    1       -0.233   1.966  -1.173  0.00  0.00    +0.280 C 
BRANCH  11  14
ATOM     14  C   LIG    1        2.173   1.821  -4.160  0.00  0.00    -0.270 A 
ATOM     15  C   LIG    1        2.286   1.909  -5.519  0.00  0.00    +0.100 A 
ATOM     16  C   LIG    1        3.575   1.743  -5.968  0.00  0.00    +0.000 A 
ATOM     17  C   LIG    1        4.484   1.516  -5.014  0.00  0.00    -0.070 A 
ATOM     18  S   LIG    1        3.759   1.506  -3.469  0.00  0.00    +0.210 S 
ENDBRANCH  11  14
ENDBRANCH   4   7
BRANCH   1  19
ATOM     19  C   LIG    1       -3.047   1.865   4.708  0.00  0.00    +0.210 C 
BRANCH  19  21
ATOM     20  O   LIG    1       -4.791   0.595   3.753  0.00  0.00    -0.520 OA
ATOM     21  C   LIG    1       -4.469   1.372   4.626  0.00  0.00    +0.540 C 
ATOM     22  N   LIG    1       -5.381   1.794   5.524  0.00  0.00    -0.650 N 
ATOM     23  C   LIG    1       -5.384   2.692   6.689  0.00  0.00    +0.270 C 
ATOM     24  C   LIG    1       -6.551   1.873   7.251  0.00  0.00    +0.030 C 
ATOM     25  C   LIG    1       -6.811   1.556   5.772  0.00  0.00    +0.270 C 
ENDBRANCH  19  21
ENDBRANCH   1  19
TORSDOF 4
