REMARK  Name = ZINCpk00000eby1U.0
REMARK                            x       y       z     vdW  Elec       q    Type
REMARK                         _______ _______ _______ _____ _____    ______ ____
ROOT
ATOM      1  O   LIG    1        0.917   4.062  -3.299  0.00  0.00    -0.590 OA
ATOM      2  C   LIG    1        1.858   3.350  -3.003  0.00  0.00    +0.710 C 
ATOM      3  N   LIG    1        2.270   3.277  -1.722  0.00  0.00    -0.620 N 
ATOM      4  C   LIG    1        3.454   2.527  -1.416  0.00  0.00    +0.280 C 
ATOM      5  C   LIG    1        3.046   1.058  -1.212  0.00  0.00    -0.010 C 
ATOM      6  C   LIG    1        2.448   0.835   0.113  0.00  0.00    +0.290 C 
ATOM      7  N   LIG    1        1.258   1.699   0.294  0.00  0.00    -0.600 N 
ATOM      8  C   LIG    1        1.421   3.094   0.595  0.00  0.00    +0.270 C 
ATOM      9  C   LIG    1        0.021   1.178   0.170  0.00  0.00    +0.590 C 
ATOM     10  O   LIG    1       -0.119   0.029  -0.205  0.00  0.00    -0.530 OA
ATOM     11  C   LIG    1        1.482   3.977  -0.670  0.00  0.00    +0.280 C 
ATOM     12  N   LIG    1        2.488   2.635  -3.956  0.00  0.00    -0.740 N 
ATOM     13  H   LIG    1        3.281   2.124  -3.733  0.00  0.00    +0.400 HD
ENDROOT
BRANCH   9  14
ATOM     14  C   LIG    1       -1.157   1.998   0.481  0.00  0.00    -0.230 A 
ATOM     15  C   LIG    1       -1.212   3.360   0.535  0.00  0.00    +0.290 A 
ATOM     16  N   LIG    1       -2.469   3.755   0.852  0.00  0.00    -0.580 N 
ATOM     17  H   LIG    1       -2.751   4.678   0.947  0.00  0.00    +0.420 HD
ATOM     18  C   LIG    1       -3.291   2.660   1.019  0.00  0.00    +0.090 A 
ATOM     19  C   LIG    1       -4.636   2.519   1.341  0.00  0.00    -0.010 A 
ATOM     20  C   LIG    1       -5.193   1.262   1.439  0.00  0.00    +0.030 A 
ATOM     21  C   LIG    1       -4.423   0.130   1.218  0.00  0.00    -0.010 A 
ATOM     22  C   LIG    1       -3.088   0.248   0.898  0.00  0.00    +0.060 A 
ATOM     23  C   LIG    1       -2.514   1.512   0.791  0.00  0.00    -0.060 A 
ENDBRANCH   9  14
BRANCH  12  24
ATOM     24  C   LIG    1        1.974   2.631  -5.328  0.00  0.00    +0.230 C 
ATOM     25  C   LIG    1        1.282   1.314  -5.728  0.00  0.00    +0.200 C 
ATOM     26  O   LIG    1        2.002   1.449  -6.973  0.00  0.00    -0.370 OA
ATOM     27  C   LIG    1        3.033   2.269  -6.387  0.00  0.00    +0.210 C 
ENDBRANCH  12  24
TORSDOF 2
