REMARK  Name = ZINCkj000005jjKz.0
REMARK                            x       y       z     vdW  Elec       q    Type
REMARK                         _______ _______ _______ _____ _____    ______ ____
ROOT
ATOM      1  C   LIG    1       -0.753   1.593  -1.232  0.00  0.00    +0.090 C 
ENDROOT
BRANCH   1   8
ATOM      2  C   LIG    1        0.945   1.702  -7.168  0.00  0.00    +0.100 C 
ATOM      3  C   LIG    1        0.369   2.176  -5.832  0.00  0.00    +0.150 C 
ATOM      4  C   LIG    1        0.152   0.975  -4.913  0.00  0.00    +0.330 C 
ATOM      5  N   LIG    1       -0.524   1.433  -3.689  0.00  0.00    -0.640 N 
ATOM      6  C   LIG    1       -1.731   2.261  -3.832  0.00  0.00    +0.310 C 
ATOM      7  C   LIG    1       -1.421   3.407  -4.802  0.00  0.00    +0.270 C 
ATOM      8  C   LIG    1       -0.047   1.107  -2.471  0.00  0.00    +0.530 C 
ATOM      9  O   LIG    1        0.949   0.422  -2.373  0.00  0.00    -0.510 OA
ATOM     10  N   LIG    1       -0.912   2.855  -6.064  0.00  0.00    -0.500 N 
ATOM     11  H   LIG    1       -0.780   3.603  -6.728  0.00  0.00    +0.430 HD
ATOM     12  H   LIG    1       -1.579   2.194  -6.434  0.00  0.00    +0.430 HD
ENDBRANCH   1   8
BRANCH   1  13
ATOM     13  C   LIG    1       -0.013   1.086   0.008  0.00  0.00    +0.170 C 
BRANCH  13  14
ATOM     14  C   LIG    1       -0.718   1.572   1.248  0.00  0.00    +0.270 A 
ATOM     15  N   LIG    1       -0.982   2.817   1.515  0.00  0.00    -0.490 NA
ATOM     16  C   LIG    1       -1.627   2.902   2.707  0.00  0.00    +0.040 A 
ATOM     17  C   LIG    1       -2.133   3.967   3.456  0.00  0.00    +0.060 A 
ATOM     18  C   LIG    1       -2.742   3.728   4.655  0.00  0.00    +0.010 A 
ATOM     19  C   LIG    1       -2.864   2.434   5.142  0.00  0.00    +0.040 A 
ATOM     20  C   LIG    1       -2.372   1.367   4.420  0.00  0.00    +0.020 A 
ATOM     21  C   LIG    1       -1.751   1.591   3.199  0.00  0.00    +0.050 A 
ATOM     22  N   LIG    1       -1.166   0.772   2.253  0.00  0.00    -0.600 N 
ATOM     23  H   LIG    1       -1.089  -0.193   2.298  0.00  0.00    +0.420 HD
ENDBRANCH  13  14
ENDBRANCH   1  13
TORSDOF 3
