REMARK  Name = ZINCpk000000nutc.0
REMARK                            x       y       z     vdW  Elec       q    Type
REMARK                         _______ _______ _______ _____ _____    ______ ____
ROOT
ATOM      1  C   LIG    1       10.662  -0.518   0.578  0.00  0.00    +0.150 C 
ATOM      2  C   LIG    1        9.966  -1.878   0.487  0.00  0.00    +0.030 C 
ATOM      3  C   LIG    1        8.912  -1.834  -0.623  0.00  0.00    +0.290 C 
ATOM      4  N   LIG    1        8.004  -0.707  -0.368  0.00  0.00    -0.610 N 
ATOM      5  C   LIG    1        8.576   0.633  -0.180  0.00  0.00    +0.280 C 
ATOM      6  C   LIG    1        6.670  -0.898  -0.314  0.00  0.00    +0.520 C 
ATOM      7  O   LIG    1        6.210  -2.008  -0.476  0.00  0.00    -0.520 OA
ATOM      8  C   LIG    1        9.635   0.560   0.930  0.00  0.00    +0.000 C 
ENDROOT
BRANCH   1   9
ATOM      9  O   LIG    1       11.669  -0.565   1.591  0.00  0.00    -0.380 OA
BRANCH   9  10
ATOM     10  C   LIG    1       12.780   0.300   1.347  0.00  0.00    +0.170 C 
BRANCH  10  12
ATOM     11  C   LIG    1       14.372  -1.247   2.494  0.00  0.00    +0.010 C 
ATOM     12  C   LIG    1       13.789   0.168   2.489  0.00  0.00    -0.020 C 
ATOM     13  C   LIG    1       14.917   1.183   2.293  0.00  0.00    +0.030 C 
ENDBRANCH  10  12
ENDBRANCH   9  10
ENDBRANCH   1   9
BRANCH   6  14
ATOM     14  C   LIG    1        5.752   0.268  -0.052  0.00  0.00    +0.260 C 
BRANCH  14  15
ATOM     15  N   LIG    1        4.359  -0.199  -0.041  0.00  0.00    -0.460 N 
ATOM     16  C   LIG    1        4.114  -1.099   1.094  0.00  0.00    +0.240 C 
BRANCH  15  17
ATOM     17  C   LIG    1        3.478   0.870  -0.026  0.00  0.00    +0.400 A 
ATOM     18  C   LIG    1        2.098   0.657  -0.014  0.00  0.00    -0.080 A 
ATOM     19  N   LIG    1        1.278  -0.452  -0.013  0.00  0.00    -0.570 N 
ATOM     20  H   LIG    1        1.563  -1.379  -0.020  0.00  0.00    +0.430 HD
ATOM     21  C   LIG    1        0.002  -0.004   0.002  0.00  0.00    +0.540 A 
ATOM     22  N   LIG    1       -0.016   1.300   0.009  0.00  0.00    -0.490 NA
ATOM     23  C   LIG    1        1.245   1.773  -0.000  0.00  0.00    +0.310 A 
ATOM     24  N   LIG    1        1.787   2.994   0.002  0.00  0.00    -0.500 NA
ATOM     25  C   LIG    1        3.093   3.146  -0.010  0.00  0.00    +0.540 A 
ATOM     26  N   LIG    1        3.927   2.122  -0.024  0.00  0.00    -0.560 NA
ENDBRANCH  15  17
ENDBRANCH  14  15
ENDBRANCH   6  14
TORSDOF 6
