REMARK  Name = ZINCpk000000nutc.2
REMARK                            x       y       z     vdW  Elec       q    Type
REMARK                         _______ _______ _______ _____ _____    ______ ____
ROOT
ATOM      1  C   LIG    1       -2.208   1.161   1.197  0.00  0.00    +0.150 C 
ATOM      2  C   LIG    1       -0.736   1.583   1.264  0.00  0.00    +0.000 C 
ATOM      3  C   LIG    1       -0.013   1.086   0.008  0.00  0.00    +0.280 C 
ATOM      4  N   LIG    1       -0.729   1.575  -1.178  0.00  0.00    -0.610 N 
ATOM      5  C   LIG    1       -2.168   1.303  -1.297  0.00  0.00    +0.280 C 
ATOM      6  C   LIG    1       -0.078   2.261  -2.138  0.00  0.00    +0.500 C 
ATOM      7  O   LIG    1        1.110   2.480  -2.029  0.00  0.00    -0.520 OA
ATOM      8  C   LIG    1       -2.869   1.797  -0.028  0.00  0.00    +0.040 C 
ENDROOT
BRANCH   1   9
ATOM      9  O   LIG    1       -2.881   1.595   2.380  0.00  0.00    -0.380 OA
BRANCH   9  10
ATOM     10  C   LIG    1       -2.856   0.643   3.446  0.00  0.00    +0.170 C 
BRANCH  10  12
ATOM     11  C   LIG    1       -5.080   1.387   4.305  0.00  0.00    +0.020 C 
ATOM     12  C   LIG    1       -3.602   1.210   4.655  0.00  0.00    -0.020 C 
ATOM     13  C   LIG    1       -3.468   0.246   5.835  0.00  0.00    +0.030 C 
ENDBRANCH  10  12
ENDBRANCH   9  10
ENDBRANCH   1   9
BRANCH   6  14
ATOM     14  C   LIG    1       -0.827   2.757  -3.349  0.00  0.00    +0.330 C 
BRANCH  14  15
ATOM     15  N   LIG    1        0.097   3.467  -4.237  0.00  0.00    -0.540 N 
ATOM     16  C   LIG    1        0.303   4.909  -4.079  0.00  0.00    +0.330 C 
BRANCH  15  17
ATOM     17  C   LIG    1        0.769   2.781  -5.218  0.00  0.00    +0.540 A 
ATOM     18  C   LIG    1        1.653   3.455  -6.079  0.00  0.00    -0.110 A 
ATOM     19  N   LIG    1        2.073   4.724  -6.212  0.00  0.00    -0.500 NA
ATOM     20  C   LIG    1        2.930   4.770  -7.209  0.00  0.00    +0.400 A 
ATOM     21  N   LIG    1        3.090   3.560  -7.733  0.00  0.00    -0.540 NA
ATOM     22  C   LIG    1        2.325   2.706  -7.070  0.00  0.00    +0.220 A 
ATOM     23  N   LIG    1        2.075   1.355  -7.152  0.00  0.00    -0.540 N 
ATOM     24  H   LIG    1        2.520   0.818  -7.826  0.00  0.00    +0.430 HD
ATOM     25  C   LIG    1        1.212   0.784  -6.295  0.00  0.00    +0.650 A 
ATOM     26  N   LIG    1        0.588   1.466  -5.370  0.00  0.00    -0.580 NA
ENDBRANCH  15  17
ENDBRANCH  14  15
ENDBRANCH   6  14
TORSDOF 6
