REMARK  Name = ZINCpk000000nutc.1
REMARK                            x       y       z     vdW  Elec       q    Type
REMARK                         _______ _______ _______ _____ _____    ______ ____
ROOT
ATOM      1  C   LIG    1       -2.208   1.161   1.197  0.00  0.00    +0.150 C 
ATOM      2  C   LIG    1       -0.736   1.583   1.264  0.00  0.00    +0.000 C 
ATOM      3  C   LIG    1       -0.013   1.086   0.008  0.00  0.00    +0.280 C 
ATOM      4  N   LIG    1       -0.729   1.575  -1.178  0.00  0.00    -0.610 N 
ATOM      5  C   LIG    1       -2.168   1.303  -1.297  0.00  0.00    +0.280 C 
ATOM      6  C   LIG    1       -0.078   2.261  -2.138  0.00  0.00    +0.520 C 
ATOM      7  O   LIG    1        1.110   2.480  -2.029  0.00  0.00    -0.520 OA
ATOM      8  C   LIG    1       -2.869   1.797  -0.028  0.00  0.00    +0.040 C 
ENDROOT
BRANCH   1   9
ATOM      9  O   LIG    1       -2.881   1.595   2.380  0.00  0.00    -0.380 OA
BRANCH   9  10
ATOM     10  C   LIG    1       -2.856   0.643   3.446  0.00  0.00    +0.170 C 
BRANCH  10  12
ATOM     11  C   LIG    1       -3.682   0.145   5.750  0.00  0.00    +0.030 C 
ATOM     12  C   LIG    1       -3.602   1.210   4.655  0.00  0.00    -0.020 C 
ATOM     13  C   LIG    1       -2.853   2.434   5.188  0.00  0.00    +0.020 C 
ENDBRANCH  10  12
ENDBRANCH   9  10
ENDBRANCH   1   9
BRANCH   6  14
ATOM     14  C   LIG    1       -0.827   2.757  -3.349  0.00  0.00    +0.250 C 
BRANCH  14  15
ATOM     15  N   LIG    1        0.099   3.469  -4.240  0.00  0.00    -0.450 N 
ATOM     16  C   LIG    1        0.596   4.699  -3.608  0.00  0.00    +0.260 C 
BRANCH  15  17
ATOM     17  C   LIG    1       -0.496   3.743  -5.458  0.00  0.00    +0.430 A 
ATOM     18  C   LIG    1        0.207   4.425  -6.465  0.00  0.00    -0.060 A 
ATOM     19  N   LIG    1        1.457   4.934  -6.576  0.00  0.00    -0.460 NA
ATOM     20  C   LIG    1        1.604   5.470  -7.753  0.00  0.00    +0.500 A 
ATOM     21  N   LIG    1        0.455   5.332  -8.474  0.00  0.00    -0.580 N 
ATOM     22  H   LIG    1        0.305   5.645  -9.380  0.00  0.00    +0.430 HD
ATOM     23  C   LIG    1       -0.449   4.669  -7.684  0.00  0.00    +0.290 A 
ATOM     24  N   LIG    1       -1.704   4.259  -7.835  0.00  0.00    -0.540 NA
ATOM     25  C   LIG    1       -2.326   3.628  -6.861  0.00  0.00    +0.560 A 
ATOM     26  N   LIG    1       -1.749   3.371  -5.701  0.00  0.00    -0.570 NA
ENDBRANCH  15  17
ENDBRANCH  14  15
ENDBRANCH   6  14
TORSDOF 6
