REMARK  Name = ZINCvU0000000Gwr.0
REMARK                            x       y       z     vdW  Elec       q    Type
REMARK                         _______ _______ _______ _____ _____    ______ ____
ROOT
ATOM      1  O   LIG    1        1.360   0.473  -3.563  0.00  0.00    -0.510 OA
ATOM      2  C   LIG    1        0.600   1.073  -2.833  0.00  0.00    +0.530 C 
ATOM      3  N   LIG    1        0.855   1.153  -1.513  0.00  0.00    -0.620 N 
ATOM      4  C   LIG    1        0.021   1.848  -0.511  0.00  0.00    +0.250 C 
ATOM      5  C   LIG    1        0.357   1.159   0.835  0.00  0.00    +0.040 C 
ATOM      6  C   LIG    1        1.876   0.888   0.675  0.00  0.00    +0.050 C 
ATOM      7  C   LIG    1        2.013   0.561  -0.827  0.00  0.00    +0.260 C 
ENDROOT
BRANCH   7   8
ATOM      8  C   LIG    1        3.288   1.157  -1.366  0.00  0.00    -0.080 A 
ATOM      9  C   LIG    1        3.347   2.505  -1.665  0.00  0.00    +0.030 A 
ATOM     10  C   LIG    1        4.516   3.056  -2.156  0.00  0.00    +0.020 A 
ATOM     11  C   LIG    1        5.629   2.255  -2.361  0.00  0.00    +0.050 A 
ATOM     12  O   LIG    1        6.770   2.810  -2.854  0.00  0.00    -0.310 OA
ATOM     13  C   LIG    1        7.975   2.053  -2.693  0.00  0.00    +0.220 C 
ATOM     14  C   LIG    1        7.688   0.602  -3.099  0.00  0.00    +0.220 C 
ATOM     15  O   LIG    1        6.651   0.095  -2.253  0.00  0.00    -0.310 OA
ATOM     16  C   LIG    1        5.568   0.898  -2.064  0.00  0.00    +0.050 A 
ATOM     17  C   LIG    1        4.394   0.353  -1.567  0.00  0.00    +0.030 A 
ENDBRANCH   7   8
BRANCH   2  18
ATOM     18  C   LIG    1       -0.631   1.731  -3.404  0.00  0.00    +0.070 C 
BRANCH  18  19
ATOM     19  C   LIG    1       -0.683   1.491  -4.914  0.00  0.00    +0.100 C 
BRANCH  19  20
ATOM     20  C   LIG    1       -1.844   2.250  -5.503  0.00  0.00    -0.070 A 
ATOM     21  C   LIG    1       -3.111   2.098  -4.970  0.00  0.00    +0.010 A 
ATOM     22  C   LIG    1       -4.175   2.798  -5.507  0.00  0.00    +0.000 A 
ATOM     23  C   LIG    1       -3.975   3.641  -6.584  0.00  0.00    +0.000 A 
ATOM     24  C   LIG    1       -2.710   3.788  -7.121  0.00  0.00    +0.000 A 
ATOM     25  C   LIG    1       -1.644   3.093  -6.580  0.00  0.00    +0.010 A 
ENDBRANCH  19  20
BRANCH  19  26
ATOM     26  C   LIG    1       -0.856   0.019  -5.184  0.00  0.00    -0.060 A 
ATOM     27  C   LIG    1       -0.000  -0.630  -6.054  0.00  0.00    +0.030 A 
ATOM     28  C   LIG    1       -0.156  -1.982  -6.298  0.00  0.00    +0.000 A 
ATOM     29  C   LIG    1       -1.174  -2.683  -5.679  0.00  0.00    +0.000 A 
ATOM     30  C   LIG    1       -2.033  -2.033  -4.812  0.00  0.00    +0.000 A 
ATOM     31  C   LIG    1       -1.874  -0.682  -4.565  0.00  0.00    +0.000 A 
ENDBRANCH  19  26
ENDBRANCH  18  19
ENDBRANCH   2  18
TORSDOF 5
