REMARK  Name = ZINCvU0000000JfE.0
REMARK                            x       y       z     vdW  Elec       q    Type
REMARK                         _______ _______ _______ _____ _____    ______ ____
ROOT
ATOM      1  N   LIG    1       -2.353   5.571   0.360  0.00  0.00    -0.920 N 
ENDROOT
BRANCH   1   5
ATOM      2  C   LIG    1       -2.063   7.765  -3.173  0.00  0.00    +0.120 A 
ATOM      3  C   LIG    1       -2.834   6.612  -3.134  0.00  0.00    +0.010 A 
ATOM      4  C   LIG    1       -2.930   5.885  -1.964  0.00  0.00    +0.050 A 
ATOM      5  C   LIG    1       -2.256   6.308  -0.826  0.00  0.00    +0.120 A 
ATOM      6  C   LIG    1       -1.489   7.465  -0.865  0.00  0.00    +0.040 A 
ATOM      7  C   LIG    1       -1.389   8.188  -2.037  0.00  0.00    -0.040 A 
BRANCH   2   9
ATOM      8  C   LIG    1       -1.158   9.657  -4.294  0.00  0.00    +0.240 C 
ATOM      9  O   LIG    1       -1.968   8.481  -4.325  0.00  0.00    -0.320 OA
ENDBRANCH   2   9
ENDBRANCH   1   5
BRANCH   1  10
ATOM     10  S   LIG    1       -2.608   6.349   1.799  0.00  0.00    +2.690 S 
ATOM     11  O   LIG    1       -3.325   5.441   2.624  0.00  0.00    -0.940 OA
ATOM     12  O   LIG    1       -3.087   7.647   1.474  0.00  0.00    -0.930 OA
BRANCH  10  13
ATOM     13  C   LIG    1       -1.034   6.574   2.557  0.00  0.00    -0.670 A 
ATOM     14  C   LIG    1       -0.483   5.562   3.319  0.00  0.00    +0.140 A 
ATOM     15  C   LIG    1        0.755   5.736   3.910  0.00  0.00    +0.020 A 
ATOM     16  C   LIG    1        1.437   6.928   3.747  0.00  0.00    +0.020 A 
ATOM     17  C   LIG    1        0.883   7.944   2.988  0.00  0.00    +0.010 A 
ATOM     18 CL   LIG    1        2.988   7.151   4.495  0.00  0.00    -0.050 Cl
ATOM     19  C   LIG    1       -0.352   7.766   2.393  0.00  0.00    +0.140 A 
ENDBRANCH  10  13
ENDBRANCH   1  10
BRANCH   1  20
ATOM     20  C   LIG    1       -2.229   4.112   0.328  0.00  0.00    +0.360 C 
BRANCH  20  21
ATOM     21  C   LIG    1       -0.772   3.730   0.380  0.00  0.00    +0.490 C 
ATOM     22  N   LIG    1       -0.415   2.431   0.362  0.00  0.00    -0.670 N 
ATOM     23  H   LIG    1       -1.087   1.745   0.228  0.00  0.00    +0.420 HD
ATOM     24  O   LIG    1        0.079   4.592   0.438  0.00  0.00    -0.490 OA
BRANCH  22  25
ATOM     25  C   LIG    1        0.926   2.071   0.538  0.00  0.00    +0.170 A 
ATOM     26  C   LIG    1        1.935   2.873   0.020  0.00  0.00    +0.050 A 
ATOM     27  C   LIG    1        3.258   2.512   0.190  0.00  0.00    -0.010 A 
ATOM     28  C   LIG    1        3.578   1.354   0.877  0.00  0.00    +0.030 A 
ATOM     29  C   LIG    1        2.575   0.554   1.395  0.00  0.00    -0.010 A 
ATOM     30 CL   LIG    1        2.981  -0.898   2.255  0.00  0.00    -0.050 Cl
ATOM     31 CL   LIG    1        4.520   3.513  -0.458  0.00  0.00    -0.050 Cl
ATOM     32  C   LIG    1        1.250   0.910   1.227  0.00  0.00    +0.020 A 
ENDBRANCH  22  25
ENDBRANCH  20  21
ENDBRANCH   1  20
TORSDOF 7
