REMARK  Name = ZINCrH000004sTgt.0
REMARK                            x       y       z     vdW  Elec       q    Type
REMARK                         _______ _______ _______ _____ _____    ______ ____
ROOT
ATOM      1  C   LIG    1        4.593   1.217   0.824  0.00  0.00    +0.620 C 
ATOM      2  N   LIG    1        3.613   0.650   0.093  0.00  0.00    -0.700 N 
ATOM      3  H   LIG    1        3.825   0.212  -0.746  0.00  0.00    +0.400 HD
ATOM      4  O   LIG    1        4.327   1.765   1.877  0.00  0.00    -0.520 OA
ENDROOT
BRANCH   1   7
ATOM      5  C   LIG    1        6.784  -1.026   1.421  0.00  0.00    +0.220 C 
ATOM      6  C   LIG    1        6.944   0.222   0.591  0.00  0.00    +0.020 A 
ATOM      7  C   LIG    1        5.986   1.174   0.348  0.00  0.00    -0.230 A 
ATOM      8  C   LIG    1        6.696   2.141  -0.515  0.00  0.00    +0.100 A 
ATOM      9  N   LIG    1        7.905   1.659  -0.645  0.00  0.00    -0.330 NA
ATOM     10  O   LIG    1        8.045   0.618  -0.052  0.00  0.00    +0.110 OA
BRANCH   8  11
ATOM     11  C   LIG    1        6.154   3.391  -1.103  0.00  0.00    +0.190 A 
ATOM     12  C   LIG    1        7.021   4.429  -1.436  0.00  0.00    +0.000 A 
ATOM     13  C   LIG    1        6.502   5.590  -1.985  0.00  0.00    +0.070 A 
ATOM     14  C   LIG    1        5.131   5.673  -2.183  0.00  0.00    -0.020 A 
ATOM     15  C   LIG    1        4.329   4.602  -1.829  0.00  0.00    +0.270 A 
ATOM     16  N   LIG    1        4.850   3.508  -1.313  0.00  0.00    -0.460 NA
ENDBRANCH   8  11
ENDBRANCH   1   7
BRANCH   2  17
ATOM     17  C   LIG    1        2.227   0.693   0.567  0.00  0.00    +0.250 C 
ATOM     18  C   LIG    1        1.480   1.924  -0.011  0.00  0.00    +0.020 C 
ATOM     19  C   LIG    1        0.005   1.470  -0.005  0.00  0.00    +0.210 C 
ATOM     20  N   LIG    1        0.002  -0.004   0.002  0.00  0.00    -0.470 N 
ATOM     21  C   LIG    1        1.402  -0.478  -0.023  0.00  0.00    +0.200 C 
BRANCH  20  22
ATOM     22  C   LIG    1       -0.717  -0.508  -1.084  0.00  0.00    +0.130 A 
ATOM     23  C   LIG    1       -1.859   0.145  -1.526  0.00  0.00    -0.020 A 
ATOM     24  C   LIG    1       -2.566  -0.353  -2.604  0.00  0.00    +0.050 A 
ATOM     25  C   LIG    1       -2.142  -1.507  -3.236  0.00  0.00    -0.010 A 
ATOM     26  C   LIG    1       -1.007  -2.164  -2.795  0.00  0.00    -0.000 A 
ATOM     27 CL   LIG    1       -0.478  -3.613  -3.592  0.00  0.00    -0.070 Cl
ATOM     28  C   LIG    1       -0.293  -1.668  -1.721  0.00  0.00    -0.020 A 
ENDBRANCH  20  22
ENDBRANCH   2  17
TORSDOF 4
