REMARK  Name = ZINCtV00000L6knD.0
REMARK                            x       y       z     vdW  Elec       q    Type
REMARK                         _______ _______ _______ _____ _____    ______ ____
ROOT
ATOM      1  N   LIG    1        7.992  -0.421  -0.080  0.00  0.00    -0.660 N 
ATOM      2  H   LIG    1        8.458  -1.192  -0.439  0.00  0.00    +0.420 HD
ATOM      3  C   LIG    1        8.692   0.618   0.416  0.00  0.00    +0.710 C 
ATOM      4  N   LIG    1       10.036   0.638   0.311  0.00  0.00    -0.680 N 
ATOM      5  H   LIG    1       10.493  -0.061  -0.182  0.00  0.00    +0.410 HD
ATOM      6  O   LIG    1        8.111   1.539   0.959  0.00  0.00    -0.550 OA
ENDROOT
BRANCH   1  19
ATOM      7  C   LIG    1        5.869  -1.582  -0.085  0.00  0.00    +0.090 A 
ATOM      8  C   LIG    1        4.488  -1.553  -0.083  0.00  0.00    +0.010 A 
ATOM      9  C   LIG    1        3.822  -0.330  -0.074  0.00  0.00    -0.100 A 
ATOM     10  C   LIG    1        4.544   0.871  -0.067  0.00  0.00    +0.080 A 
ATOM     11  O   LIG    1        3.667   1.900  -0.059  0.00  0.00    -0.190 OA
ATOM     12  C   LIG    1        2.389   1.461  -0.060  0.00  0.00    +0.090 A 
ATOM     13  C   LIG    1        1.170   2.130  -0.054  0.00  0.00    +0.030 A 
ATOM     14  C   LIG    1       -0.010   1.417  -0.057  0.00  0.00    +0.060 A 
ATOM     15  C   LIG    1        0.003   0.031  -0.066  0.00  0.00    -0.010 A 
ATOM     16  C   LIG    1        1.202  -0.650  -0.072  0.00  0.00    +0.070 A 
ATOM     17  C   LIG    1        5.933   0.830  -0.069  0.00  0.00    +0.080 A 
ATOM     18  C   LIG    1        2.399   0.059  -0.069  0.00  0.00    -0.120 A 
ATOM     19  C   LIG    1        6.592  -0.387  -0.078  0.00  0.00    +0.180 A 
BRANCH   7  21
ATOM     20  C   LIG    1        5.722  -3.956  -0.100  0.00  0.00    +0.250 C 
ATOM     21  O   LIG    1        6.525  -2.774  -0.093  0.00  0.00    -0.320 OA
ENDBRANCH   7  21
ENDBRANCH   1  19
BRANCH   4  22
ATOM     22  C   LIG    1       10.770   1.666   0.912  0.00  0.00    +0.160 A 
ATOM     23  C   LIG    1       10.252   2.953   0.962  0.00  0.00    +0.060 A 
ATOM     24  C   LIG    1       10.978   3.965   1.560  0.00  0.00    +0.040 A 
ATOM     25  C   LIG    1       12.222   3.699   2.101  0.00  0.00    +0.060 A 
ATOM     26  C   LIG    1       12.742   2.419   2.049  0.00  0.00    -0.160 A 
ATOM     27  C   LIG    1       12.020   1.402   1.456  0.00  0.00    +0.040 A 
BRANCH  26  28
ATOM     28  C   LIG    1       14.099   2.133   2.639  0.00  0.00    +0.510 C 
ATOM     29  F   LIG    1       14.141   0.811   3.095  0.00  0.00    -0.180 F 
ATOM     30  F   LIG    1       14.334   3.002   3.710  0.00  0.00    -0.170 F 
ATOM     31  F   LIG    1       15.082   2.321   1.662  0.00  0.00    -0.180 F 
ENDBRANCH  26  28
ENDBRANCH   4  22
TORSDOF 4
