REMARK  Name = ZINCpk000000pWQ3.0
REMARK                            x       y       z     vdW  Elec       q    Type
REMARK                         _______ _______ _______ _____ _____    ______ ____
ROOT
ATOM      1  N   LIG    1        1.170  -2.052  -0.021  0.00  0.00    -0.490 N 
ATOM      2  C   LIG    1        1.952  -2.577   1.106  0.00  0.00    +0.190 C 
ATOM      3  C   LIG    1        1.827  -4.101   1.150  0.00  0.00    +0.050 C 
ATOM      4  C   LIG    1        2.339  -4.689  -0.168  0.00  0.00    +0.010 C 
ATOM      5  C   LIG    1        1.540  -4.090  -1.329  0.00  0.00    +0.250 C 
ATOM      6  C   LIG    1        1.673  -2.566  -1.301  0.00  0.00    +0.190 C 
ENDROOT
BRANCH   1   9
ATOM      7  C   LIG    1        2.282   1.435  -0.012  0.00  0.00    +0.190 A 
ATOM      8  C   LIG    1        2.350   0.056  -0.020  0.00  0.00    -0.120 A 
ATOM      9  C   LIG    1        1.155  -0.667  -0.013  0.00  0.00    +0.360 A 
ATOM     10  N   LIG    1        0.002  -0.004   0.002  0.00  0.00    -0.510 NA
ATOM     11  C   LIG    1       -0.016   1.314   0.009  0.00  0.00    +0.510 A 
ATOM     12  N   LIG    1        1.094   2.024   0.003  0.00  0.00    -0.520 NA
BRANCH   7  14
ATOM     13  C   LIG    1        3.505   3.238  -1.195  0.00  0.00    +0.040 C 
ATOM     14  C   LIG    1        3.542   2.260  -0.019  0.00  0.00    +0.090 C 
ENDBRANCH   7  14
ENDBRANCH   1   9
BRANCH   5  15
ATOM     15  N   LIG    1        2.061  -4.604  -2.598  0.00  0.00    -0.730 N 
ATOM     16  H   LIG    1        2.721  -4.094  -3.093  0.00  0.00    +0.400 HD
ATOM     17  C   LIG    1        1.624  -5.786  -3.076  0.00  0.00    +0.520 C 
ATOM     18  O   LIG    1        0.799  -6.423  -2.457  0.00  0.00    -0.530 OA
BRANCH  17  19
ATOM     19  C   LIG    1        2.160  -6.315  -4.382  0.00  0.00    +0.060 C 
BRANCH  19  20
ATOM     20  C   LIG    1        1.505  -7.662  -4.694  0.00  0.00    +0.150 C 
BRANCH  20  21
ATOM     21  C   LIG    1        2.041  -8.191  -5.999  0.00  0.00    -0.030 A 
ATOM     22  C   LIG    1        3.171  -8.903  -6.173  0.00  0.00    +0.150 A 
ATOM     23  N   LIG    1        3.289  -9.180  -7.480  0.00  0.00    -0.490 NA
ATOM     24  C   LIG    1        2.276  -8.666  -8.123  0.00  0.00    +0.390 A 
ATOM     25  N   LIG    1        1.471  -8.044  -7.235  0.00  0.00    -0.460 N 
ATOM     26  C   LIG    1        0.221  -7.342  -7.538  0.00  0.00    +0.330 C 
ENDBRANCH  20  21
ENDBRANCH  19  20
ENDBRANCH  17  19
ENDBRANCH   5  15
TORSDOF 6
