REMARK  Name = ZINCvU0000000Don.0
REMARK                            x       y       z     vdW  Elec       q    Type
REMARK                         _______ _______ _______ _____ _____    ______ ____
ROOT
ATOM      1  N   LIG    1        1.281  -0.556  -0.013  0.00  0.00    -0.540 N 
ATOM      2  N   LIG    1        0.002  -0.004   0.002  0.00  0.00    -0.200 NA
ATOM      3  C   LIG    1       -0.015   1.284   0.009  0.00  0.00    +0.090 C 
ATOM      4  C   LIG    1        1.403   1.808  -0.002  0.00  0.00    +0.090 C 
ATOM      5  C   LIG    1        2.270   0.534  -0.017  0.00  0.00    +0.250 C 
ENDROOT
BRANCH   3   6
ATOM      6  C   LIG    1       -1.232   2.118   0.020  0.00  0.00    -0.010 A 
ATOM      7  C   LIG    1       -1.126   3.511   0.032  0.00  0.00    +0.050 A 
ATOM      8  C   LIG    1       -2.268   4.286   0.036  0.00  0.00    +0.030 A 
ATOM      9  C   LIG    1       -3.515   3.687   0.039  0.00  0.00    +0.060 A 
ATOM     10  C   LIG    1       -3.627   2.307   0.033  0.00  0.00    -0.090 A 
ATOM     11 BR   LIG    1       -5.337   1.499   0.037  0.00  0.00    -0.040 Br
ATOM     12  C   LIG    1       -2.493   1.519   0.023  0.00  0.00    +0.080 A 
ENDBRANCH   3   6
BRANCH   5  13
ATOM     13  C   LIG    1        3.137   0.468   1.214  0.00  0.00    -0.110 A 
ATOM     14  C   LIG    1        2.582   0.125   2.433  0.00  0.00    +0.020 A 
ATOM     15  C   LIG    1        3.378   0.060   3.561  0.00  0.00    +0.000 A 
ATOM     16  C   LIG    1        4.727   0.347   3.472  0.00  0.00    +0.010 A 
ATOM     17  C   LIG    1        5.281   0.695   2.255  0.00  0.00    +0.010 A 
ATOM     18  C   LIG    1        4.486   0.755   1.126  0.00  0.00    +0.010 A 
ENDBRANCH   5  13
BRANCH   1  19
ATOM     19  C   LIG    1        1.591  -1.988  -0.024  0.00  0.00    +0.620 C 
BRANCH  19  23
ATOM     20  O   LIG    1       -0.534  -4.004  -3.885  0.00  0.00    -0.360 OA
ATOM     21  C   LIG    1        0.306  -3.491  -3.176  0.00  0.00    +0.390 C 
ATOM     22  C   LIG    1        0.154  -3.049  -1.751  0.00  0.00    +0.500 C 
ATOM     23  N   LIG    1        1.332  -2.533  -1.359  0.00  0.00    -0.560 N 
ATOM     24  C   LIG    1        2.277  -2.588  -2.381  0.00  0.00    +0.200 A 
ATOM     25  C   LIG    1        3.604  -2.183  -2.427  0.00  0.00    +0.010 A 
ATOM     26  C   LIG    1        4.343  -2.351  -3.585  0.00  0.00    -0.020 A 
ATOM     27  C   LIG    1        3.773  -2.923  -4.711  0.00  0.00    +0.020 A 
ATOM     28  C   LIG    1        2.455  -3.333  -4.687  0.00  0.00    +0.150 A 
ATOM     29 BR   LIG    1        6.149  -1.794  -3.631  0.00  0.00    -0.020 Br
ATOM     30  O   LIG    1       -0.849  -3.139  -1.075  0.00  0.00    -0.420 OA
ATOM     31  C   LIG    1        1.702  -3.168  -3.524  0.00  0.00    -0.220 A 
ENDBRANCH  19  23
ENDBRANCH   1  19
TORSDOF 4
