REMARK  Name = ZINCrH00000No4Sy.0
REMARK                            x       y       z     vdW  Elec       q    Type
REMARK                         _______ _______ _______ _____ _____    ______ ____
ROOT
ATOM      1  S   LIG    1       -0.515   4.152   2.517  0.00  0.00    +2.670 S 
ATOM      2  O   LIG    1       -0.240   5.369   1.837  0.00  0.00    -0.950 OA
ATOM      3  O   LIG    1        0.424   3.507   3.368  0.00  0.00    -0.920 OA
ENDROOT
BRANCH   1   4
ATOM      4  N   LIG    1       -0.927   3.048   1.354  0.00  0.00    -0.980 NA
ATOM      5  C   LIG    1       -1.586   3.479   0.113  0.00  0.00    +0.230 C 
ATOM      6  C   LIG    1       -0.784   2.949  -1.080  0.00  0.00    +0.020 C 
ATOM      7  C   LIG    1       -0.622   1.433  -0.949  0.00  0.00    +0.020 C 
ATOM      8  C   LIG    1        0.150   1.111   0.333  0.00  0.00    +0.020 C 
ATOM      9  C   LIG    1       -1.636   5.007   0.059  0.00  0.00    +0.040 C 
ATOM     10  C   LIG    1       -0.641   1.619   1.543  0.00  0.00    +0.280 C 
BRANCH  10  11
ATOM     11  C   LIG    1        0.175   1.429   2.796  0.00  0.00    -0.080 A 
ATOM     12  C   LIG    1        1.553   1.526   2.745  0.00  0.00    +0.050 A 
ATOM     13  C   LIG    1        2.301   1.356   3.895  0.00  0.00    +0.010 A 
ATOM     14  C   LIG    1        1.671   1.078   5.094  0.00  0.00    +0.010 A 
ATOM     15  C   LIG    1        0.294   0.975   5.144  0.00  0.00    +0.000 A 
ATOM     16  C   LIG    1       -0.455   1.150   3.994  0.00  0.00    +0.000 A 
ENDBRANCH  10  11
ENDBRANCH   1   4
BRANCH   1  20
ATOM     17  C   LIG    1       -4.209   4.898   5.025  0.00  0.00    -0.610 A 
ATOM     18  C   LIG    1       -3.317   3.905   5.386  0.00  0.00    +0.100 A 
ATOM     19  C   LIG    1       -2.189   3.678   4.621  0.00  0.00    +0.110 A 
ATOM     20  C   LIG    1       -1.953   4.442   3.493  0.00  0.00    -0.630 A 
ATOM     21  C   LIG    1       -2.842   5.438   3.135  0.00  0.00    +0.100 A 
ATOM     22  C   LIG    1       -3.973   5.663   3.898  0.00  0.00    +0.110 A 
BRANCH  17  23
ATOM     23  S   LIG    1       -5.647   5.188   6.001  0.00  0.00    +2.490 S 
ATOM     24  O   LIG    1       -5.902   3.939   6.629  0.00  0.00    -0.930 OA
ATOM     25  O   LIG    1       -6.579   5.756   5.091  0.00  0.00    -0.930 OA
BRANCH  23  27
ATOM     26  C   LIG    1       -6.298   6.759   8.144  0.00  0.00    +0.100 C 
ATOM     27  C   LIG    1       -5.122   6.420   7.225  0.00  0.00    -0.320 C 
ENDBRANCH  23  27
ENDBRANCH  17  23
ENDBRANCH   1  20
TORSDOF 5
