REMARK  Name = ZINCtV00000L6k2r.0
REMARK                            x       y       z     vdW  Elec       q    Type
REMARK                         _______ _______ _______ _____ _____    ______ ____
ROOT
ATOM      1  C   LIG    1       -2.762   0.861   0.495  0.00  0.00    +0.550 C 
ENDROOT
BRANCH   1   2
ATOM      2  C   LIG    1       -3.801   1.305  -0.536  0.00  0.00    +0.110 C 
ATOM      3 CL   LIG    1       -4.130   3.067  -0.339  0.00  0.00    -0.080 Cl
ATOM      4 CL   LIG    1       -5.327   0.377  -0.289  0.00  0.00    -0.060 Cl
ATOM      5 CL   LIG    1       -3.171   0.994  -2.197  0.00  0.00    -0.060 Cl
ENDBRANCH   1   2
BRANCH   1   6
ATOM      6  N   LIG    1       -1.522   1.614   0.294  0.00  0.00    -0.720 N 
ATOM      7  H   LIG    1       -1.555   2.573   0.149  0.00  0.00    +0.410 HD
ATOM      8  C   LIG    1       -0.335   0.976   0.311  0.00  0.00    +0.660 C 
ATOM      9  O   LIG    1       -0.293  -0.225   0.493  0.00  0.00    -0.560 OA
BRANCH   8  10
ATOM     10  O   LIG    1        0.804   1.668   0.121  0.00  0.00    -0.340 OA
BRANCH  10  11
ATOM     11  C   LIG    1        2.045   0.914   0.146  0.00  0.00    +0.200 C 
ATOM     12  C   LIG    1        2.585   0.868   1.576  0.00  0.00    +0.020 C 
ATOM     13  C   LIG    1        2.844   2.293   2.070  0.00  0.00    -0.020 C 
ATOM     14  C   LIG    1        3.870   2.969   1.159  0.00  0.00    +0.000 C 
ATOM     15  C   LIG    1        3.330   3.015  -0.272  0.00  0.00    +0.020 C 
ATOM     16  C   LIG    1        1.537   3.087   2.044  0.00  0.00    +0.010 C 
ATOM     17  C   LIG    1        3.071   1.591  -0.765  0.00  0.00    +0.010 C 
BRANCH  17  18
ATOM     18  C   LIG    1        2.531   1.637  -2.196  0.00  0.00    -0.020 C 
ATOM     19  C   LIG    1        2.272   0.212  -2.690  0.00  0.00    +0.030 C 
ATOM     20  C   LIG    1        3.557   2.313  -3.107  0.00  0.00    +0.010 C 
ENDBRANCH  17  18
ENDBRANCH  10  11
ENDBRANCH   8  10
ENDBRANCH   1   6
BRANCH   1  21
ATOM     21  N   LIG    1       -3.274   1.113   1.844  0.00  0.00    -0.740 N 
ATOM     22  H   LIG    1       -3.701   1.960   2.050  0.00  0.00    +0.400 HD
BRANCH  21  26
ATOM     23  C   LIG    1       -2.895  -1.803   4.797  0.00  0.00    +0.090 A 
ATOM     24  C   LIG    1       -2.300  -1.990   3.558  0.00  0.00    +0.020 A 
ATOM     25  C   LIG    1       -2.425  -1.024   2.579  0.00  0.00    +0.000 A 
ATOM     26  C   LIG    1       -3.147   0.134   2.836  0.00  0.00    +0.170 A 
ATOM     27  C   LIG    1       -3.737   0.323   4.078  0.00  0.00    -0.020 A 
ATOM     28  C   LIG    1       -3.615  -0.647   5.054  0.00  0.00    -0.040 A 
BRANCH  23  29
ATOM     29  O   LIG    1       -2.771  -2.755   5.761  0.00  0.00    -0.320 OA
BRANCH  29  31
ATOM     30  C   LIG    1       -3.162  -3.671   7.963  0.00  0.00    +0.070 C 
ATOM     31  C   LIG    1       -3.409  -2.497   7.013  0.00  0.00    +0.180 C 
ENDBRANCH  29  31
ENDBRANCH  23  29
ENDBRANCH  21  26
ENDBRANCH   1  21
TORSDOF 9
