REMARK  Name = ZINCvU0000000IlW.0
REMARK                            x       y       z     vdW  Elec       q    Type
REMARK                         _______ _______ _______ _____ _____    ______ ____
ROOT
ATOM      1  C   LIG    1       -0.294   1.222   0.127  0.00  0.00    -0.660 A 
ATOM      2  C   LIG    1       -0.574  -0.094  -0.188  0.00  0.00    +0.150 A 
ATOM      3  C   LIG    1        0.451  -1.031  -0.223  0.00  0.00    +0.120 A 
ATOM      4  C   LIG    1        1.754  -0.641   0.060  0.00  0.00    +0.060 A 
ATOM      5  C   LIG    1        2.026   0.676   0.374  0.00  0.00    +0.020 A 
ATOM      6  C   LIG    1        1.004   1.606   0.407  0.00  0.00    +0.010 A 
ATOM      7  C   LIG    1        1.305   3.042   0.751  0.00  0.00    +0.100 C 
ENDROOT
BRANCH   3   8
ATOM      8  N   LIG    1        0.172  -2.363  -0.542  0.00  0.00    -0.670 N 
ATOM      9  H   LIG    1        0.676  -3.078  -0.124  0.00  0.00    +0.410 HD
ATOM     10  C   LIG    1       -0.799  -2.654  -1.430  0.00  0.00    +0.550 C 
ATOM     11  O   LIG    1       -1.372  -1.757  -2.022  0.00  0.00    -0.510 OA
BRANCH  10  12
ATOM     12  C   LIG    1       -1.165  -4.048  -1.685  0.00  0.00    -0.090 C 
ATOM     13  C   LIG    1       -2.136  -4.339  -2.574  0.00  0.00    +0.140 C 
BRANCH  13  14
ATOM     14  C   LIG    1       -2.504  -5.740  -2.830  0.00  0.00    -0.090 A 
ATOM     15  C   LIG    1       -1.843  -6.774  -2.156  0.00  0.00    +0.070 A 
ATOM     16  C   LIG    1       -2.196  -8.084  -2.396  0.00  0.00    -0.020 A 
ATOM     17  C   LIG    1       -3.195  -8.380  -3.312  0.00  0.00    +0.110 A 
ATOM     18  C   LIG    1       -3.850  -7.360  -3.986  0.00  0.00    -0.020 A 
ATOM     19  F   LIG    1       -3.532  -9.666  -3.547  0.00  0.00    -0.130 F 
ATOM     20  C   LIG    1       -3.511  -6.045  -3.751  0.00  0.00    +0.080 A 
ENDBRANCH  13  14
ENDBRANCH  10  12
ENDBRANCH   3   8
BRANCH   1  21
ATOM     21  S   LIG    1       -1.593   2.413   0.164  0.00  0.00    +2.690 S 
ATOM     22  O   LIG    1       -1.429   3.147   1.369  0.00  0.00    -0.950 OA
ATOM     23  O   LIG    1       -2.786   1.715  -0.166  0.00  0.00    -0.950 OA
BRANCH  21  24
ATOM     24  N   LIG    1       -1.316   3.477  -1.075  0.00  0.00    -1.050 N 
ATOM     25  H   LIG    1       -1.173   4.417  -0.883  0.00  0.00    +0.420 HD
BRANCH  24  30
ATOM     26  C   LIG    1       -1.210   1.628  -6.434  0.00  0.00    +0.090 C 
ATOM     27  C   LIG    1       -1.238   2.119  -5.010  0.00  0.00    -0.100 A 
ATOM     28  C   LIG    1       -2.113   1.552  -4.102  0.00  0.00    +0.040 A 
ATOM     29  C   LIG    1       -2.142   2.000  -2.796  0.00  0.00    +0.010 A 
ATOM     30  C   LIG    1       -1.290   3.022  -2.395  0.00  0.00    +0.140 A 
ATOM     31  C   LIG    1       -0.416   3.593  -3.311  0.00  0.00    -0.100 A 
ATOM     32  C   LIG    1        0.505   4.706  -2.882  0.00  0.00    +0.090 C 
ATOM     33  C   LIG    1       -0.389   3.137  -4.614  0.00  0.00    +0.030 A 
ENDBRANCH  24  30
ENDBRANCH  21  24
ENDBRANCH   1  21
TORSDOF 6
