REMARK  Name = ZINCrH000004umQc.0
REMARK                            x       y       z     vdW  Elec       q    Type
REMARK                         _______ _______ _______ _____ _____    ______ ____
ROOT
ATOM      1  O   LIG    1        3.700   3.272  -0.011  0.00  0.00    -0.530 OA
ATOM      2  C   LIG    1        3.672   2.057  -0.017  0.00  0.00    +0.570 C 
ATOM      3  N   LIG    1        4.823   1.356  -0.030  0.00  0.00    -0.710 N 
ATOM      4  H   LIG    1        4.801   0.387  -0.035  0.00  0.00    +0.410 HD
ENDROOT
BRANCH   2   5
ATOM      5  C   LIG    1        2.372   1.346  -0.011  0.00  0.00    +0.080 A 
ATOM      6  C   LIG    1        1.185   2.074   0.002  0.00  0.00    +0.040 A 
ATOM      7  C   LIG    1       -0.017   1.387   0.010  0.00  0.00    +0.060 A 
ATOM      8  C   LIG    1        0.002  -0.004   0.002  0.00  0.00    -0.100 A 
ATOM      9  C   LIG    1       -1.318  -0.727   0.017  0.00  0.00    +0.080 C 
ATOM     10  C   LIG    1       -1.140  -2.180  -0.419  0.00  0.00    +0.020 C 
ATOM     11  C   LIG    1       -0.007  -2.797   0.409  0.00  0.00    +0.030 C 
ATOM     12  C   LIG    1        1.313  -2.168  -0.032  0.00  0.00    +0.110 C 
ATOM     13  C   LIG    1        1.215  -0.664  -0.014  0.00  0.00    +0.130 A 
ATOM     14  N   LIG    1        2.346   0.022  -0.018  0.00  0.00    -0.460 NA
ENDBRANCH   2   5
BRANCH   3  15
ATOM     15  C   LIG    1        6.109   2.059  -0.036  0.00  0.00    +0.270 C 
BRANCH  15  16
ATOM     16  C   LIG    1        7.248   1.039  -0.051  0.00  0.00    +0.130 C 
BRANCH  16  17
ATOM     17  C   LIG    1        8.570   1.762  -0.057  0.00  0.00    -0.010 A 
ATOM     18  C   LIG    1        9.571   1.591   0.825  0.00  0.00    +0.160 A 
ATOM     19  O   LIG    1       10.569   2.424   0.466  0.00  0.00    -0.190 OA
ATOM     20  C   LIG    1       10.167   3.093  -0.628  0.00  0.00    +0.240 A 
ATOM     21  N   LIG    1        8.960   2.688  -0.947  0.00  0.00    -0.460 NA
BRANCH  20  22
ATOM     22  C   LIG    1       10.955   4.111  -1.355  0.00  0.00    -0.030 A 
ATOM     23  C   LIG    1       10.424   4.732  -2.486  0.00  0.00    +0.110 A 
ATOM     24  C   LIG    1       11.162   5.685  -3.157  0.00  0.00    +0.000 A 
ATOM     25  C   LIG    1       12.433   6.017  -2.717  0.00  0.00    +0.120 A 
ATOM     26  C   LIG    1       12.968   5.399  -1.597  0.00  0.00    +0.000 A 
ATOM     27  F   LIG    1       13.154   6.947  -3.382  0.00  0.00    -0.130 F 
ATOM     28  C   LIG    1       12.236   4.450  -0.916  0.00  0.00    +0.080 A 
ENDBRANCH  20  22
ENDBRANCH  16  17
ENDBRANCH  15  16
ENDBRANCH   3  15
TORSDOF 5
