REMARK  Name = ZINCvU0000000Csy.0
REMARK                            x       y       z     vdW  Elec       q    Type
REMARK                         _______ _______ _______ _____ _____    ______ ____
ROOT
ATOM      1  C   LIG    1        5.126  -3.315   0.256  0.00  0.00    +0.110 A 
ATOM      2  N   LIG    1        6.147  -2.615   0.699  0.00  0.00    -0.280 NA
ATOM      3  N   LIG    1        7.182  -3.367   0.812  0.00  0.00    -0.260 NA
ATOM      4  C   LIG    1        6.887  -4.593   0.449  0.00  0.00    +0.230 A 
ATOM      5  N   LIG    1        5.560  -4.599   0.087  0.00  0.00    -0.440 N 
ENDROOT
BRANCH   5   6
ATOM      6  C   LIG    1        4.775  -5.743  -0.385  0.00  0.00    +0.230 C 
ATOM      7  C   LIG    1        3.598  -5.979   0.563  0.00  0.00    +0.040 C 
ATOM      8  C   LIG    1        2.712  -4.732   0.597  0.00  0.00    +0.010 C 
ATOM      9  C   LIG    1        2.184  -4.444  -0.810  0.00  0.00    +0.050 C 
ATOM     10  C   LIG    1        3.361  -4.207  -1.758  0.00  0.00    +0.020 C 
ATOM     11  C   LIG    1        4.248  -5.454  -1.792  0.00  0.00    +0.000 C 
ATOM     12  C   LIG    1        5.425  -5.217  -2.739  0.00  0.00    +0.030 C 
ENDBRANCH   5   6
BRANCH   4  13
ATOM     13  C   LIG    1        7.806  -5.752   0.436  0.00  0.00    -0.070 A 
ATOM     14  C   LIG    1        9.168  -5.577   0.168  0.00  0.00    +0.120 A 
ATOM     15  C   LIG    1        9.986  -6.693   0.173  0.00  0.00    -0.010 A 
ATOM     16  C   LIG    1        9.435  -7.935   0.432  0.00  0.00    +0.270 A 
ATOM     17  N   LIG    1        8.146  -8.071   0.677  0.00  0.00    -0.480 NA
ATOM     18  C   LIG    1        7.328  -7.039   0.688  0.00  0.00    +0.270 A 
ENDBRANCH   4  13
BRANCH   1  19
ATOM     19  S   LIG    1        3.501  -2.711  -0.054  0.00  0.00    +0.250 S 
BRANCH  19  20
ATOM     20  C   LIG    1        3.718  -0.973   0.405  0.00  0.00    -0.040 C 
BRANCH  20  23
ATOM     21  N   LIG    1        2.340   1.079   0.495  0.00  0.00    -0.660 N 
ATOM     22  H   LIG    1        3.139   1.570   0.742  0.00  0.00    +0.420 HD
ATOM     23  C   LIG    1        2.417  -0.237   0.214  0.00  0.00    +0.540 C 
ATOM     24  O   LIG    1        1.439  -0.829  -0.192  0.00  0.00    -0.510 OA
BRANCH  21  29
ATOM     25  C   LIG    1       -2.662   3.747   0.235  0.00  0.00    +0.100 C 
ATOM     26  C   LIG    1       -1.333   3.039   0.304  0.00  0.00    -0.090 A 
ATOM     27  C   LIG    1       -1.289   1.675   0.522  0.00  0.00    +0.040 A 
ATOM     28  C   LIG    1       -0.073   1.023   0.590  0.00  0.00    +0.040 A 
ATOM     29  C   LIG    1        1.106   1.737   0.431  0.00  0.00    +0.150 A 
ATOM     30  C   LIG    1        1.059   3.108   0.207  0.00  0.00    -0.060 A 
ATOM     31 CL   LIG    1        2.531   4.007   0.006  0.00  0.00    -0.060 Cl
ATOM     32  C   LIG    1       -0.160   3.755   0.145  0.00  0.00    +0.050 A 
ENDBRANCH  21  29
ENDBRANCH  20  23
ENDBRANCH  19  20
ENDBRANCH   1  19
TORSDOF 6
