REMARK  Name = ZINCbu0000000GLb.0
REMARK                            x       y       z     vdW  Elec       q    Type
REMARK                         _______ _______ _______ _____ _____    ______ ____
ROOT
ATOM      1  C   LIG    1        2.132   1.568  -1.262  0.00  0.00    +0.160 C 
ATOM      2  C   LIG    1        1.417   2.055  -0.000  0.00  0.00    +0.040 C 
ATOM      3  C   LIG    1       -0.019   1.526   0.010  0.00  0.00    +0.050 C 
ATOM      4  C   LIG    1        0.002  -0.004   0.002  0.00  0.00    +0.030 C 
ATOM      5  C   LIG    1        0.729  -0.497  -1.247  0.00  0.00    -0.050 C 
ATOM      6  C   LIG    1       -0.025  -0.032  -2.506  0.00  0.00    +0.020 C 
ATOM      7  C   LIG    1        0.112  -1.221  -3.490  0.00  0.00    +0.010 C 
ATOM      8  C   LIG    1       -0.009  -2.452  -2.558  0.00  0.00    +0.010 C 
ATOM      9  C   LIG    1        0.742  -2.032  -1.276  0.00  0.00    +0.020 C 
ATOM     10  C   LIG    1        2.159   0.038  -1.274  0.00  0.00    +0.050 C 
ENDROOT
BRANCH   1  11
ATOM     11  N   LIG    1        3.508   2.083  -1.275  0.00  0.00    -0.640 N 
ATOM     12  H   LIG    1        3.999   1.749  -0.460  0.00  0.00    +0.430 HD
ATOM     13  H   LIG    1        3.490   3.091  -1.267  0.00  0.00    +0.440 HD
ATOM     14  H   LIG    1        3.980   1.761  -2.107  0.00  0.00    +0.440 HD
ENDBRANCH   1  11
TORSDOF 1
