REMARK  Name = ZINCqH0000035T0f.0
REMARK                            x       y       z     vdW  Elec       q    Type
REMARK                         _______ _______ _______ _____ _____    ______ ____
ROOT
ATOM      1  C   LIG    1       -0.752   1.970   1.229  0.00  0.00    -0.020 C 
ATOM      2  C   LIG    1       -2.145   1.337   1.300  0.00  0.00    +0.020 C 
ATOM      3  C   LIG    1       -2.964   1.791   0.086  0.00  0.00    +0.210 C 
ATOM      4  O   LIG    1       -3.033   3.218   0.066  0.00  0.00    -0.380 OA
ATOM      5  C   LIG    1       -1.763   3.862  -0.046  0.00  0.00    +0.210 C 
ATOM      6  C   LIG    1       -0.896   3.493   1.161  0.00  0.00    +0.000 C 
ENDROOT
BRANCH   1  10
ATOM      7  C   LIG    1        1.484   0.900   4.710  0.00  0.00    +0.130 A 
ATOM      8  C   LIG    1        1.103  -0.077   3.802  0.00  0.00    -0.020 A 
ATOM      9  C   LIG    1        0.380   0.272   2.677  0.00  0.00    +0.060 A 
ATOM     10  C   LIG    1        0.037   1.593   2.457  0.00  0.00    -0.120 A 
ATOM     11  C   LIG    1        0.420   2.569   3.357  0.00  0.00    +0.050 A 
ATOM     12  C   LIG    1        1.138   2.225   4.486  0.00  0.00    -0.080 A 
BRANCH   7  14
ATOM     13  C   LIG    1        2.553   1.618   6.709  0.00  0.00    +0.250 C 
ATOM     14  O   LIG    1        2.195   0.560   5.817  0.00  0.00    -0.320 OA
ENDBRANCH   7  14
ENDBRANCH   1  10
BRANCH   1  15
ATOM     15  C   LIG    1       -0.025   1.468  -0.021  0.00  0.00    +0.290 C 
BRANCH  15  16
ATOM     16  N   LIG    1        1.346   1.984  -0.028  0.00  0.00    -0.730 N 
ATOM     17  H   LIG    1        1.633   2.609   0.657  0.00  0.00    +0.400 HD
ATOM     18  C   LIG    1        2.209   1.590  -0.985  0.00  0.00    +0.710 C 
ATOM     19  N   LIG    1        3.471   2.064  -0.991  0.00  0.00    -0.680 N 
ATOM     20  H   LIG    1        3.783   2.624  -0.263  0.00  0.00    +0.410 HD
ATOM     21  O   LIG    1        1.850   0.806  -1.842  0.00  0.00    -0.570 OA
BRANCH  19  22
ATOM     22  C   LIG    1        4.332   1.749  -2.050  0.00  0.00    +0.140 A 
ATOM     23  C   LIG    1        3.813   1.417  -3.293  0.00  0.00    +0.050 A 
ATOM     24  C   LIG    1        4.665   1.106  -4.336  0.00  0.00    +0.020 A 
ATOM     25  C   LIG    1        6.034   1.125  -4.143  0.00  0.00    +0.020 A 
ATOM     26  C   LIG    1        6.556   1.455  -2.905  0.00  0.00    +0.010 A 
ATOM     27  C   LIG    1        5.710   1.773  -1.859  0.00  0.00    +0.060 A 
ATOM     28  F   LIG    1        6.220   2.101  -0.651  0.00  0.00    -0.140 F 
ENDBRANCH  19  22
ENDBRANCH  15  16
ENDBRANCH   1  15
TORSDOF 5
