REMARK  Name = ZINCrg000000rhXX.0
REMARK                            x       y       z     vdW  Elec       q    Type
REMARK                         _______ _______ _______ _____ _____    ______ ____
ROOT
ATOM      1  C   LIG    1        4.560   0.555   1.313  0.00  0.00    +0.160 A 
ATOM      2  C   LIG    1        4.234  -0.725   1.741  0.00  0.00    +0.030 A 
ATOM      3  C   LIG    1        5.187  -1.508   2.362  0.00  0.00    +0.050 A 
ATOM      4  C   LIG    1        6.463  -1.014   2.567  0.00  0.00    -0.110 A 
ATOM      5  C   LIG    1        6.789   0.262   2.147  0.00  0.00    +0.060 A 
ATOM      6  C   LIG    1        5.841   1.048   1.521  0.00  0.00    -0.010 A 
ENDROOT
BRANCH   4   7
ATOM      7  C   LIG    1        7.499  -1.869   3.251  0.00  0.00    +0.170 C 
ATOM      8  N   LIG    1        8.372  -1.042   4.102  0.00  0.00    -0.720 N 
ATOM      9  H   LIG    1        8.951  -0.321   3.810  0.00  0.00    +0.440 HD
ATOM     10  C   LIG    1        8.211  -1.484   5.362  0.00  0.00    +0.710 C 
ATOM     11  N   LIG    1        7.341  -2.497   5.442  0.00  0.00    -0.680 N 
ATOM     12  H   LIG    1        7.098  -2.943   6.268  0.00  0.00    +0.440 HD
ATOM     13  O   LIG    1        8.792  -1.015   6.322  0.00  0.00    -0.540 OA
ATOM     14  C   LIG    1        8.322  -2.642   2.220  0.00  0.00    +0.100 C 
ATOM     15  C   LIG    1        6.843  -2.820   4.232  0.00  0.00    +0.540 C 
ATOM     16  O   LIG    1        6.037  -3.690   3.981  0.00  0.00    -0.460 OA
ENDBRANCH   4   7
BRANCH   1  18
ATOM     17  C   LIG    1        2.663   0.777  -0.105  0.00  0.00    +0.510 C 
ATOM     18  N   LIG    1        3.597   1.349   0.679  0.00  0.00    -0.670 N 
ATOM     19  H   LIG    1        3.603   2.311   0.805  0.00  0.00    +0.420 HD
ATOM     20  O   LIG    1        2.712  -0.412  -0.339  0.00  0.00    -0.510 OA
BRANCH  17  22
ATOM     21  C   LIG    1        2.159   2.711  -1.573  0.00  0.00    +0.060 C 
ATOM     22  C   LIG    1        1.556   1.615  -0.692  0.00  0.00    +0.250 C 
BRANCH  22  23
ATOM     23  N   LIG    1        0.677   0.766  -1.500  0.00  0.00    -0.710 N 
ATOM     24  H   LIG    1        1.018  -0.055  -1.887  0.00  0.00    +0.410 HD
ATOM     25  C   LIG    1       -0.604   1.130  -1.710  0.00  0.00    +0.600 C 
ATOM     26  O   LIG    1       -1.031   2.159  -1.224  0.00  0.00    -0.530 OA
BRANCH  25  27
ATOM     27  C   LIG    1       -1.487   0.279  -2.528  0.00  0.00    -0.240 A 
ATOM     28  C   LIG    1       -1.163  -0.894  -3.143  0.00  0.00    +0.240 A 
ATOM     29  O   LIG    1       -2.246  -1.350  -3.780  0.00  0.00    -0.170 OA
ATOM     30  C   LIG    1       -3.283  -0.514  -3.619  0.00  0.00    +0.170 A 
ATOM     31  C   LIG    1       -2.899   0.521  -2.856  0.00  0.00    +0.000 A 
ENDBRANCH  25  27
ENDBRANCH  22  23
ENDBRANCH  17  22
ENDBRANCH   1  18
TORSDOF 5
