REMARK  Name = ZINCqH0000036hvf.0
REMARK                            x       y       z     vdW  Elec       q    Type
REMARK                         _______ _______ _______ _____ _____    ______ ____
ROOT
ATOM      1  N   LIG    1       -2.375   0.089   0.498  0.00  0.00    -0.650 NA
ATOM      2  H   LIG    1       -2.717   0.690  -0.237  0.00  0.00    +0.350 HD
ENDROOT
BRANCH   1   3
ATOM      3  C   LIG    1       -3.465  -0.708   1.076  0.00  0.00    +0.200 C 
ATOM      4  C   LIG    1       -3.146  -1.023   2.539  0.00  0.00    +0.040 C 
BRANCH   3  10
ATOM      5  C   LIG    1       -5.915  -0.547   0.566  0.00  0.00    +0.150 A 
ATOM      6  C   LIG    1       -7.100   0.171   0.502  0.00  0.00    -0.090 A 
ATOM      7  C   LIG    1       -7.120   1.506   0.859  0.00  0.00    +0.070 A 
ATOM      8  C   LIG    1       -5.962   2.127   1.286  0.00  0.00    -0.050 A 
ATOM      9  C   LIG    1       -4.776   1.411   1.358  0.00  0.00    +0.170 A 
ATOM     10  C   LIG    1       -4.753   0.072   1.000  0.00  0.00    -0.150 A 
BRANCH   5  12
ATOM     11  C   LIG    1       -7.128  -2.431  -0.228  0.00  0.00    +0.250 C 
ATOM     12  O   LIG    1       -5.894  -1.859   0.209  0.00  0.00    -0.310 OA
ENDBRANCH   5  12
BRANCH   9  13
ATOM     13  O   LIG    1       -3.637   2.022   1.777  0.00  0.00    -0.480 OA
ATOM     14  H   LIG    1       -3.121   2.425   1.065  0.00  0.00    +0.390 HD
ENDBRANCH   9  13
ENDBRANCH   3  10
ENDBRANCH   1   3
BRANCH   1  15
ATOM     15  C   LIG    1       -1.292  -0.775   0.010  0.00  0.00    +0.320 C 
BRANCH  15  16
ATOM     16  C   LIG    1        0.002  -0.004   0.002  0.00  0.00    -0.100 A 
ATOM     17  C   LIG    1       -0.017   1.377   0.010  0.00  0.00    +0.090 A 
ATOM     18  C   LIG    1        1.171   2.086   0.002  0.00  0.00    +0.000 A 
ATOM     19  C   LIG    1        2.378   1.413  -0.013  0.00  0.00    +0.040 A 
ATOM     20  C   LIG    1        2.399   0.030  -0.021  0.00  0.00    -0.020 A 
ATOM     21  C   LIG    1        1.211  -0.679  -0.013  0.00  0.00    +0.100 A 
ATOM     22  F   LIG    1        1.230  -2.030  -0.021  0.00  0.00    -0.140 F 
ENDBRANCH  15  16
BRANCH  15  23
ATOM     23  C   LIG    1       -1.611  -1.237  -1.389  0.00  0.00    +0.170 A 
ATOM     24  N   LIG    1       -2.065  -0.484  -2.354  0.00  0.00    -0.480 NA
ATOM     25  C   LIG    1       -2.229  -1.230  -3.457  0.00  0.00    +0.140 A 
ATOM     26  C   LIG    1       -1.871  -2.494  -3.162  0.00  0.00    +0.120 A 
ATOM     27  N   LIG    1       -1.478  -2.499  -1.851  0.00  0.00    -0.450 N 
ATOM     28  C   LIG    1       -1.003  -3.658  -1.090  0.00  0.00    +0.330 C 
ENDBRANCH  15  23
ENDBRANCH   1  15
TORSDOF 7
