REMARK  Name = ZINCpk00000KfLLY.0
REMARK                            x       y       z     vdW  Elec       q    Type
REMARK                         _______ _______ _______ _____ _____    ______ ____
ROOT
ATOM      1  C   LIG    1        5.218  -2.664  -3.273  0.00  0.00    +0.100 C 
ATOM      2  C   LIG    1        5.511  -3.727  -2.212  0.00  0.00    +0.040 C 
ATOM      3  C   LIG    1        5.398  -3.105  -0.819  0.00  0.00    +0.020 C 
ATOM      4  C   LIG    1        3.975  -2.590  -0.607  0.00  0.00    +0.270 C 
ATOM      5  N   LIG    1        3.628  -1.679  -1.706  0.00  0.00    -0.610 N 
ATOM      6  C   LIG    1        3.177  -0.435  -1.450  0.00  0.00    +0.500 C 
ATOM      7  O   LIG    1        2.899   0.310  -2.365  0.00  0.00    -0.520 OA
ATOM      8  C   LIG    1        3.788  -2.147  -3.090  0.00  0.00    +0.300 C 
ENDROOT
BRANCH   1  12
ATOM      9  C   LIG    1        6.705  -3.638  -7.955  0.00  0.00    +0.260 C 
ATOM     10  C   LIG    1        5.999  -3.670  -6.623  0.00  0.00    +0.180 A 
ATOM     11  N   LIG    1        6.211  -2.867  -5.608  0.00  0.00    -0.480 NA
ATOM     12  C   LIG    1        5.362  -3.269  -4.646  0.00  0.00    +0.180 A 
ATOM     13  N   LIG    1        4.684  -4.272  -5.119  0.00  0.00    -0.380 NA
ATOM     14  O   LIG    1        5.035  -4.518  -6.254  0.00  0.00    +0.080 OA
ENDBRANCH   1  12
BRANCH   6  15
ATOM     15  C   LIG    1        3.019   0.031  -0.025  0.00  0.00    +0.370 C 
BRANCH  15  16
ATOM     16  N   LIG    1        2.518   1.407  -0.014  0.00  0.00    -0.520 N 
ATOM     17  C   LIG    1        3.274   2.521  -0.015  0.00  0.00    +0.690 A 
ATOM     18  N   LIG    1        2.480   3.608  -0.003  0.00  0.00    -0.640 N 
ATOM     19  H   LIG    1        2.780   4.531  -0.000  0.00  0.00    +0.440 HD
ATOM     20  C   LIG    1        1.153   3.183   0.008  0.00  0.00    +0.090 A 
ATOM     21  C   LIG    1       -0.060   3.853   0.022  0.00  0.00    +0.030 A 
ATOM     22  C   LIG    1       -1.241   3.135   0.029  0.00  0.00    +0.020 A 
ATOM     23  C   LIG    1       -1.217   1.752   0.017  0.00  0.00    +0.020 A 
ATOM     24  C   LIG    1       -0.013   1.076   0.008  0.00  0.00    +0.030 A 
ATOM     25  O   LIG    1        4.490   2.542  -0.026  0.00  0.00    -0.550 OA
ATOM     26  C   LIG    1        1.177   1.787   0.000  0.00  0.00    +0.100 A 
ENDBRANCH  15  16
ENDBRANCH   6  15
TORSDOF 3
