REMARK  Name = ZINCrg00001JduSp.0
REMARK                            x       y       z     vdW  Elec       q    Type
REMARK                         _______ _______ _______ _____ _____    ______ ____
ROOT
ATOM      1  C   LIG    1        6.349  -5.201  -1.210  0.00  0.00    +0.170 C 
ATOM      2  C   LIG    1        5.474  -3.938  -1.400  0.00  0.00    +0.040 C 
ATOM      3  C   LIG    1        4.868  -3.709  -0.012  0.00  0.00    -0.110 C 
ATOM      4  C   LIG    1        5.414  -4.840   0.864  0.00  0.00    +0.230 C 
ATOM      5  C   LIG    1        5.247  -2.328   0.547  0.00  0.00    +0.070 C 
ATOM      6  C   LIG    1        4.123  -1.437  -0.051  0.00  0.00    +0.290 C 
ATOM      7  N   LIG    1        2.918  -2.288  -0.038  0.00  0.00    -0.580 N 
ATOM      8  C   LIG    1        3.339  -3.701  -0.050  0.00  0.00    +0.300 C 
ATOM      9  O   LIG    1        5.773  -5.883  -0.073  0.00  0.00    -0.360 OA
ENDROOT
BRANCH   7  10
ATOM     10  C   LIG    1        1.609  -1.836  -0.024  0.00  0.00    +0.510 A 
ATOM     11  N   LIG    1        0.605  -2.690  -0.019  0.00  0.00    -0.560 NA
ATOM     12  C   LIG    1       -0.663  -2.267  -0.005  0.00  0.00    +0.300 A 
ATOM     13  C   LIG    1       -0.981  -0.961   0.006  0.00  0.00    +0.080 A 
ATOM     14  N   LIG    1        0.002  -0.004   0.002  0.00  0.00    -0.330 N 
ATOM     15  C   LIG    1       -0.016   1.345   0.009  0.00  0.00    +0.240 A 
ATOM     16  C   LIG    1        1.298   1.766  -0.001  0.00  0.00    -0.010 A 
ATOM     17  N   LIG    1        2.081   0.672  -0.014  0.00  0.00    -0.410 NA
ATOM     18  C   LIG    1        1.318  -0.400  -0.013  0.00  0.00    +0.140 A 
BRANCH  16  19
ATOM     19  C   LIG    1        1.761   3.166   0.002  0.00  0.00    +0.560 C 
ATOM     20  O   LIG    1        0.953   4.073   0.015  0.00  0.00    -0.500 OA
BRANCH  19  21
ATOM     21  O   LIG    1        3.081   3.439  -0.009  0.00  0.00    -0.340 OA
ATOM     22  C   LIG    1        3.464   4.839  -0.005  0.00  0.00    +0.290 C 
ENDBRANCH  19  21
ENDBRANCH  16  19
ENDBRANCH   7  10
BRANCH   1  23
ATOM     23  C   LIG    1        6.282  -6.087  -2.455  0.00  0.00    +0.130 C 
BRANCH  23  24
ATOM     24  C   LIG    1        7.233  -7.246  -2.299  0.00  0.00    +0.460 C 
ATOM     25  O   LIG    1        7.896  -7.352  -1.294  0.00  0.00    -0.500 OA
BRANCH  24  27
ATOM     26  C   LIG    1        8.279  -9.249  -3.056  0.00  0.00    +0.260 C 
ATOM     27  O   LIG    1        7.344  -8.160  -3.275  0.00  0.00    -0.360 OA
ENDBRANCH  24  27
ENDBRANCH  23  24
ENDBRANCH   1  23
TORSDOF 6
