REMARK  Name = ZINCpe000000Yqb4.0
REMARK                            x       y       z     vdW  Elec       q    Type
REMARK                         _______ _______ _______ _____ _____    ______ ____
ROOT
ATOM      1  N   LIG    1        4.166  -0.965  -4.405  0.00  0.00    -0.470 N 
ATOM      2  C   LIG    1        4.437   0.273  -3.663  0.00  0.00    +0.220 C 
ATOM      3  C   LIG    1        5.151  -0.068  -2.350  0.00  0.00    +0.310 C 
ATOM      4  N   LIG    1        4.347  -1.064  -1.626  0.00  0.00    -1.000 NA
ATOM      5  C   LIG    1        3.924  -2.274  -2.347  0.00  0.00    +0.310 C 
ATOM      6  C   LIG    1        3.253  -1.843  -3.661  0.00  0.00    +0.200 C 
ENDROOT
BRANCH   1  12
ATOM      7  C   LIG    1        2.069  -2.692  -9.836  0.00  0.00    +0.370 C 
ATOM      8  N   LIG    1        2.599  -2.559  -8.477  0.00  0.00    -0.380 N 
ATOM      9  N   LIG    1        2.948  -3.614  -7.625  0.00  0.00    -0.240 NA
ATOM     10  C   LIG    1        3.383  -3.139  -6.493  0.00  0.00    +0.300 A 
ATOM     11  C   LIG    1        3.338  -1.729  -6.553  0.00  0.00    -0.290 A 
ATOM     12  C   LIG    1        3.670  -0.689  -5.664  0.00  0.00    +0.450 A 
ATOM     13  N   LIG    1        3.489   0.565  -6.064  0.00  0.00    -0.590 NA
ATOM     14  C   LIG    1        3.020   0.839  -7.269  0.00  0.00    +0.580 A 
ATOM     15  N   LIG    1        2.696  -0.098  -8.133  0.00  0.00    -0.550 NA
ATOM     16  C   LIG    1        2.836  -1.386  -7.824  0.00  0.00    +0.360 A 
ENDBRANCH   1  12
BRANCH   4  17
ATOM     17  S   LIG    1        3.934  -0.832  -0.039  0.00  0.00    +2.690 S 
ATOM     18  O   LIG    1        3.679  -2.121   0.502  0.00  0.00    -0.950 OA
ATOM     19  O   LIG    1        4.899   0.061   0.500  0.00  0.00    -0.950 OA
BRANCH  17  20
ATOM     20  C   LIG    1        2.396   0.029  -0.021  0.00  0.00    -0.680 A 
ATOM     21  C   LIG    1        1.208  -0.679  -0.013  0.00  0.00    +0.120 A 
ATOM     22  C   LIG    1        0.002  -0.004   0.002  0.00  0.00    -0.010 A 
ATOM     23  C   LIG    1       -0.017   1.378   0.010  0.00  0.00    +0.070 A 
ATOM     24  C   LIG    1        1.171   2.086   0.002  0.00  0.00    -0.010 A 
ATOM     25  C   LIG    1        2.377   1.411  -0.015  0.00  0.00    +0.120 A 
ENDBRANCH  17  20
ENDBRANCH   4  17
TORSDOF 3
