REMARK  Name = ZINCrD00000hYXqZ.0
REMARK                            x       y       z     vdW  Elec       q    Type
REMARK                         _______ _______ _______ _____ _____    ______ ____
ROOT
ATOM      1  C   LIG    1        5.354   1.665   5.071  0.00  0.00    +0.010 A 
ATOM      2  C   LIG    1        4.252   0.983   4.680  0.00  0.00    +0.150 A 
ATOM      3  N   LIG    1        3.603   1.791   3.798  0.00  0.00    -0.240 N 
ATOM      4  N   LIG    1        4.284   2.876   3.673  0.00  0.00    -0.080 NA
ATOM      5  N   LIG    1        5.329   2.834   4.422  0.00  0.00    -0.240 NA
ENDROOT
BRANCH   3   6
ATOM      6  C   LIG    1        2.404   1.491   3.135  0.00  0.00    +0.110 A 
ATOM      7  C   LIG    1        1.778   0.276   3.360  0.00  0.00    +0.010 A 
ATOM      8  C   LIG    1        0.598  -0.018   2.706  0.00  0.00    +0.040 A 
ATOM      9  C   LIG    1        0.051   0.898   1.832  0.00  0.00    +0.020 A 
ATOM     10  C   LIG    1        0.675   2.118   1.601  0.00  0.00    -0.060 A 
ATOM     11  C   LIG    1        0.022   3.067   0.629  0.00  0.00    +0.080 C 
ATOM     12  C   LIG    1        0.565   4.482   0.814  0.00  0.00    +0.020 C 
ATOM     13  C   LIG    1        2.096   4.421   0.789  0.00  0.00    +0.020 C 
ATOM     14  C   LIG    1        2.571   3.726   2.063  0.00  0.00    +0.100 C 
ATOM     15  C   LIG    1        1.848   2.418   2.253  0.00  0.00    -0.050 A 
ENDBRANCH   3   6
BRANCH   1  16
ATOM     16  C   LIG    1        6.405   1.198   6.045  0.00  0.00    +0.300 C 
BRANCH  16  17
ATOM     17  N   LIG    1        7.548   0.646   5.306  0.00  0.00    -0.510 NA
BRANCH  17  18
ATOM     18  C   LIG    1        7.227  -0.674   4.747  0.00  0.00    +0.110 C 
ATOM     19  C   LIG    1        6.309  -1.427   5.713  0.00  0.00    +0.010 C 
ATOM     20  C   LIG    1        8.518  -1.470   4.545  0.00  0.00    +0.030 C 
ATOM     21  C   LIG    1        6.519  -0.500   3.402  0.00  0.00    +0.030 C 
ENDBRANCH  17  18
BRANCH  17  22
ATOM     22  C   LIG    1        8.743   0.581   6.157  0.00  0.00    +0.270 C 
BRANCH  22  23
ATOM     23  C   LIG    1        9.978   0.673   5.298  0.00  0.00    +0.460 C 
ATOM     24  O   LIG    1        9.876   0.916   4.119  0.00  0.00    -0.480 OA
BRANCH  23  25
ATOM     25  O   LIG    1       11.190   0.486   5.843  0.00  0.00    -0.360 OA
BRANCH  25  27
ATOM     26  C   LIG    1       13.620   0.348   5.750  0.00  0.00    +0.070 C 
ATOM     27  C   LIG    1       12.335   0.590   4.955  0.00  0.00    +0.200 C 
ENDBRANCH  25  27
ENDBRANCH  23  25
ENDBRANCH  22  23
ENDBRANCH  17  22
ENDBRANCH  16  17
ENDBRANCH   1  16
TORSDOF 8
