REMARK  Name = ZINCpe000000WSfB.0
REMARK                            x       y       z     vdW  Elec       q    Type
REMARK                         _______ _______ _______ _____ _____    ______ ____
ROOT
ATOM      1  N   LIG    1       -0.952   3.747   1.397  0.00  0.00    -0.710 N 
ATOM      2  H   LIG    1       -1.325   2.945   1.000  0.00  0.00    +0.410 HD
ATOM      3  C   LIG    1        0.322   4.100   1.131  0.00  0.00    +0.550 C 
ATOM      4  O   LIG    1        0.819   5.049   1.699  0.00  0.00    -0.530 OA
ENDROOT
BRANCH   3   5
ATOM      5  C   LIG    1        1.128   3.314   0.130  0.00  0.00    -0.070 C 
ATOM      6  C   LIG    1        2.643   3.563   0.227  0.00  0.00    +0.070 C 
ATOM      7  C   LIG    1        2.686   2.408   1.244  0.00  0.00    +0.020 C 
ATOM      8  C   LIG    1        1.415   1.868   0.568  0.00  0.00    +0.040 C 
BRANCH   5   9
ATOM      9  C   LIG    1        0.587   3.424  -1.272  0.00  0.00    -0.070 A 
ATOM     10  C   LIG    1        0.544   4.653  -1.902  0.00  0.00    +0.010 A 
ATOM     11  C   LIG    1        0.048   4.754  -3.189  0.00  0.00    +0.000 A 
ATOM     12  C   LIG    1       -0.405   3.625  -3.845  0.00  0.00    +0.000 A 
ATOM     13  C   LIG    1       -0.362   2.395  -3.215  0.00  0.00    +0.000 A 
ATOM     14  C   LIG    1        0.134   2.294  -1.929  0.00  0.00    +0.020 A 
ENDBRANCH   5   9
ENDBRANCH   3   5
BRANCH   1  16
ATOM     15  C   LIG    1       -1.512   4.176   3.738  0.00  0.00    +0.070 C 
ATOM     16  C   LIG    1       -1.771   4.576   2.284  0.00  0.00    +0.230 C 
BRANCH  16  17
ATOM     17  C   LIG    1       -3.228   4.372   1.959  0.00  0.00    +0.520 C 
ATOM     18  N   LIG    1       -4.140   5.284   2.349  0.00  0.00    -0.620 N 
ATOM     19  C   LIG    1       -3.697   6.524   2.989  0.00  0.00    +0.330 C 
ATOM     20  C   LIG    1       -4.066   7.717   2.092  0.00  0.00    -0.340 C 
ATOM     21  S   LIG    1       -5.864   7.721   1.828  0.00  0.00    +2.420 S 
ATOM     22  C   LIG    1       -6.130   6.055   1.153  0.00  0.00    -0.330 C 
ATOM     23  O   LIG    1       -6.510   7.808   3.090  0.00  0.00    -0.930 OA
ATOM     24  O   LIG    1       -6.173   8.674   0.821  0.00  0.00    -0.930 OA
ATOM     25  C   LIG    1       -5.564   5.024   2.134  0.00  0.00    +0.340 C 
ATOM     26  O   LIG    1       -3.580   3.386   1.347  0.00  0.00    -0.520 OA
ENDBRANCH  16  17
ENDBRANCH   1  16
TORSDOF 4
