REMARK  Name = ZINCkj00000a7M2T.1
REMARK                            x       y       z     vdW  Elec       q    Type
REMARK                         _______ _______ _______ _____ _____    ______ ____
ROOT
ATOM      1  C   LIG    1       -4.926   2.781   1.003  0.00  0.00    +0.180 C 
ATOM      2  C   LIG    1       -3.726   2.579   0.043  0.00  0.00    +0.300 C 
ATOM      3  N   LIG    1       -3.023   3.884   0.049  0.00  0.00    -0.610 N 
ATOM      4  C   LIG    1       -4.112   4.892   0.063  0.00  0.00    +0.320 C 
ATOM      5  C   LIG    1       -1.694   4.106   0.038  0.00  0.00    +0.630 C 
ATOM      6  O   LIG    1       -1.267   5.244   0.039  0.00  0.00    -0.480 OA
ATOM      7  C   LIG    1       -5.171   4.295   1.000  0.00  0.00    -0.120 C 
ATOM      8  C   LIG    1       -6.610   4.732   0.733  0.00  0.00    +0.030 C 
ATOM      9  C   LIG    1       -6.370   5.850   1.764  0.00  0.00    +0.060 C 
ATOM     10  C   LIG    1       -5.280   4.950   2.376  0.00  0.00    +0.050 C 
ENDROOT
BRANCH   5  11
ATOM     11  C   LIG    1       -0.755   2.965   0.024  0.00  0.00    +0.040 A 
ATOM     12  N   LIG    1       -1.075   1.686   0.016  0.00  0.00    -0.260 NA
ATOM     13  N   LIG    1       -0.011   0.966   0.007  0.00  0.00    -0.370 N 
ATOM     14  H   LIG    1        0.002  -0.004   0.002  0.00  0.00    +0.460 HD
ATOM     15  C   LIG    1        1.086   1.753   0.001  0.00  0.00    +0.290 A 
ATOM     16  C   LIG    1        0.658   3.037   0.011  0.00  0.00    -0.250 A 
BRANCH  16  17
ATOM     17  C   LIG    1        1.508   4.282   0.009  0.00  0.00    +0.550 C 
ATOM     18  F   LIG    1        1.236   5.034   1.157  0.00  0.00    -0.170 F 
ATOM     19  F   LIG    1        1.215   5.044  -1.127  0.00  0.00    -0.160 F 
ATOM     20  F   LIG    1        2.860   3.924  -0.005  0.00  0.00    -0.180 F 
ENDBRANCH  16  17
ENDBRANCH   5  11
BRANCH   1  21
ATOM     21  N   LIG    1       -6.109   2.070   0.500  0.00  0.00    -0.630 N 
ATOM     22  H   LIG    1       -6.901   2.276   1.090  0.00  0.00    +0.440 HD
ATOM     23  H   LIG    1       -5.933   1.076   0.509  0.00  0.00    +0.440 HD
ATOM     24  H   LIG    1       -6.305   2.369  -0.443  0.00  0.00    +0.440 HD
ENDBRANCH   1  21
TORSDOF 3
