REMARK  Name = ZINCkj00000a7M2T.0
REMARK                            x       y       z     vdW  Elec       q    Type
REMARK                         _______ _______ _______ _____ _____    ______ ____
ROOT
ATOM      1  C   LIG    1       -0.335   2.296   2.369  0.00  0.00    +0.180 C 
ATOM      2  C   LIG    1       -1.073   1.612   3.543  0.00  0.00    +0.300 C 
ATOM      3  N   LIG    1       -1.636   0.371   2.960  0.00  0.00    -0.610 N 
ATOM      4  C   LIG    1       -2.095   0.771   1.607  0.00  0.00    +0.330 C 
ATOM      5  C   LIG    1       -1.714  -0.848   3.531  0.00  0.00    +0.610 C 
ATOM      6  O   LIG    1       -2.282  -1.755   2.953  0.00  0.00    -0.470 OA
ATOM      7  C   LIG    1       -1.015   1.742   1.111  0.00  0.00    -0.120 C 
ATOM      8  C   LIG    1       -0.076   1.192   0.038  0.00  0.00    +0.060 C 
ATOM      9  C   LIG    1       -1.045   1.790  -0.998  0.00  0.00    +0.060 C 
ATOM     10  C   LIG    1       -1.481   2.785   0.093  0.00  0.00    +0.040 C 
ENDROOT
BRANCH   5  11
ATOM     11  C   LIG    1       -1.112  -1.080   4.853  0.00  0.00    +0.030 A 
ATOM     12  C   LIG    1       -1.633  -0.708   6.081  0.00  0.00    -0.260 A 
ATOM     13  C   LIG    1       -0.702  -1.147   7.026  0.00  0.00    +0.280 A 
ATOM     14  N   LIG    1        0.279  -1.728   6.383  0.00  0.00    -0.250 NA
ATOM     15  N   LIG    1        0.070  -1.712   5.116  0.00  0.00    -0.350 N 
ATOM     16  H   LIG    1        0.663  -2.089   4.447  0.00  0.00    +0.460 HD
BRANCH  12  17
ATOM     17  C   LIG    1       -2.928   0.016   6.342  0.00  0.00    +0.550 C 
ATOM     18  F   LIG    1       -3.994  -0.742   5.846  0.00  0.00    -0.170 F 
ATOM     19  F   LIG    1       -2.903   1.260   5.702  0.00  0.00    -0.190 F 
ATOM     20  F   LIG    1       -3.088   0.203   7.719  0.00  0.00    -0.160 F 
ENDBRANCH  12  17
ENDBRANCH   5  11
BRANCH   1  21
ATOM     21  N   LIG    1       -0.499   3.754   2.440  0.00  0.00    -0.630 N 
ATOM     22  H   LIG    1       -0.081   4.180   1.626  0.00  0.00    +0.440 HD
ATOM     23  H   LIG    1       -0.047   4.103   3.272  0.00  0.00    +0.440 HD
ATOM     24  H   LIG    1       -1.482   3.981   2.471  0.00  0.00    +0.440 HD
ENDBRANCH   1  21
TORSDOF 3
