REMARK  Name = ZINCvU0000000GOm.0
REMARK                            x       y       z     vdW  Elec       q    Type
REMARK                         _______ _______ _______ _____ _____    ______ ____
ROOT
ATOM      1  C   LIG    1        3.373   1.478   3.408  0.00  0.00    +0.120 A 
ATOM      2  C   LIG    1        2.024   1.747   3.282  0.00  0.00    +0.040 A 
ATOM      3  C   LIG    1        1.397   1.598   2.042  0.00  0.00    -0.120 A 
ATOM      4  C   LIG    1        2.136   1.172   0.935  0.00  0.00    +0.050 A 
ATOM      5  C   LIG    1        3.483   0.910   1.066  0.00  0.00    -0.040 A 
ATOM      6  C   LIG    1        4.106   1.058   2.298  0.00  0.00    +0.130 A 
ENDROOT
BRANCH   3   7
ATOM      7  C   LIG    1       -0.044   1.884   1.902  0.00  0.00    +0.570 C 
ATOM      8  N   LIG    1       -0.526   2.368   0.741  0.00  0.00    -0.550 N 
ATOM      9  C   LIG    1        0.354   2.485  -0.425  0.00  0.00    +0.310 C 
ATOM     10  O   LIG    1       -0.797   1.683   2.836  0.00  0.00    -0.500 OA
BRANCH   8  11
ATOM     11  C   LIG    1       -1.865   2.759   0.647  0.00  0.00    +0.150 A 
ATOM     12  C   LIG    1       -2.659   2.798   1.788  0.00  0.00    +0.050 A 
ATOM     13  C   LIG    1       -3.982   3.189   1.703  0.00  0.00    +0.050 A 
ATOM     14  C   LIG    1       -4.527   3.532   0.483  0.00  0.00    +0.040 A 
ATOM     15  C   LIG    1       -3.741   3.490  -0.671  0.00  0.00    -0.000 A 
ATOM     16  C   LIG    1       -2.404   3.101  -0.583  0.00  0.00    +0.030 A 
BRANCH  15  17
ATOM     17  C   LIG    1       -4.304   3.845  -1.938  0.00  0.00    +0.250 C 
ATOM     18  N   LIG    1       -4.752   4.127  -2.944  0.00  0.00    -0.410 NA
ENDBRANCH  15  17
ENDBRANCH   8  11
ENDBRANCH   3   7
BRANCH   1  20
ATOM     19  C   LIG    1        3.174   2.054   5.706  0.00  0.00    +0.250 C 
ATOM     20  O   LIG    1        3.986   1.621   4.613  0.00  0.00    -0.300 OA
ENDBRANCH   1  20
BRANCH   6  21
ATOM     21  O   LIG    1        5.432   0.793   2.423  0.00  0.00    -0.230 OA
BRANCH  21  22
ATOM     22  C   LIG    1        6.131   0.491   1.297  0.00  0.00    +0.150 A 
ATOM     23  C   LIG    1        6.290  -0.833   0.913  0.00  0.00    +0.060 A 
ATOM     24  C   LIG    1        6.996  -1.138  -0.234  0.00  0.00    +0.120 A 
ATOM     25  C   LIG    1        7.554  -0.126  -0.995  0.00  0.00    -0.040 A 
ATOM     26  C   LIG    1        7.401   1.195  -0.610  0.00  0.00    +0.130 A 
ATOM     27 CL   LIG    1        8.446  -0.512  -2.433  0.00  0.00    -0.020 Cl
ATOM     28  C   LIG    1        6.691   1.505   0.533  0.00  0.00    -0.050 A 
BRANCH  28  29
ATOM     29  N   LIG    1        6.527   2.917   0.944  0.00  0.00    +0.030 N 
ATOM     30  O   LIG    1        5.902   3.190   1.953  0.00  0.00    -0.120 OA
ATOM     31  O   LIG    1        7.019   3.807   0.273  0.00  0.00    -0.150 OA
ENDBRANCH  28  29
ENDBRANCH  21  22
ENDBRANCH   6  21
TORSDOF 7
