REMARK  Name = ZINCvU00000006Zu.0
REMARK                            x       y       z     vdW  Elec       q    Type
REMARK                         _______ _______ _______ _____ _____    ______ ____
ROOT
ATOM      1  C   LIG    1        3.111   1.364   1.088  0.00  0.00    +0.210 A 
ATOM      2  N   LIG    1        4.196   0.759   0.669  0.00  0.00    -0.300 NA
ATOM      3  N   LIG    1        4.182   0.766  -0.732  0.00  0.00    -0.330 NA
ATOM      4  C   LIG    1        3.088   1.370  -1.125  0.00  0.00    +0.420 A 
ATOM      5  N   LIG    1        2.397   1.761  -0.010  0.00  0.00    -0.440 N 
ENDROOT
BRANCH   5   6
ATOM      6  C   LIG    1        1.172   2.444   0.004  0.00  0.00    +0.110 A 
ATOM      7  C   LIG    1        1.149   3.831   0.011  0.00  0.00    +0.050 A 
ATOM      8  C   LIG    1       -0.060   4.501   0.026  0.00  0.00    +0.030 A 
ATOM      9  C   LIG    1       -1.246   3.790   0.034  0.00  0.00    +0.060 A 
ATOM     10  C   LIG    1       -1.227   2.407   0.021  0.00  0.00    +0.050 A 
ATOM     11  C   LIG    1       -0.021   1.732   0.012  0.00  0.00    -0.010 A 
ATOM     12 CL   LIG    1        0.002  -0.004   0.002  0.00  0.00    -0.040 Cl
ENDBRANCH   5   6
BRANCH   4  13
ATOM     13  N   LIG    1        2.699   1.579  -2.442  0.00  0.00    -0.440 N 
ATOM     14  C   LIG    1        2.621   3.030  -2.750  0.00  0.00    +0.190 C 
ATOM     15  C   LIG    1        2.708   3.070  -4.296  0.00  0.00    +0.040 C 
ATOM     16  C   LIG    1        3.719   1.945  -4.615  0.00  0.00    +0.030 C 
ATOM     17  C   LIG    1        3.693   1.020  -3.384  0.00  0.00    +0.210 C 
ENDBRANCH   4  13
BRANCH   1  18
ATOM     18  S   LIG    1        2.652   1.621   2.770  0.00  0.00    +0.070 S 
BRANCH  18  20
ATOM     19  C   LIG    1        4.036  -0.648   3.419  0.00  0.00    +0.110 C 
ATOM     20  C   LIG    1        4.020   0.858   3.687  0.00  0.00    +0.140 C 
BRANCH  20  21
ATOM     21  C   LIG    1        3.834   1.104   5.162  0.00  0.00    +0.170 A 
ATOM     22  N   LIG    1        2.721   0.979   5.829  0.00  0.00    -0.250 NA
ATOM     23  N   LIG    1        2.928   1.264   7.067  0.00  0.00    -0.270 NA
ATOM     24  C   LIG    1        4.187   1.594   7.231  0.00  0.00    +0.220 A 
ATOM     25  O   LIG    1        4.785   1.499   6.026  0.00  0.00    -0.210 OA
BRANCH  24  26
ATOM     26  C   LIG    1        4.831   1.996   8.500  0.00  0.00    -0.030 A 
ATOM     27  C   LIG    1        6.189   2.317   8.526  0.00  0.00    +0.050 A 
ATOM     28  C   LIG    1        6.782   2.697   9.713  0.00  0.00    +0.010 A 
ATOM     29  C   LIG    1        6.036   2.749  10.877  0.00  0.00    +0.040 A 
ATOM     30  C   LIG    1        4.690   2.427  10.858  0.00  0.00    +0.020 A 
ATOM     31  C   LIG    1        4.084   2.051   9.677  0.00  0.00    +0.080 A 
ENDBRANCH  24  26
ENDBRANCH  20  21
ENDBRANCH  18  20
ENDBRANCH   1  18
TORSDOF 6
