REMARK  Name = ZINCvU0000000Ciq.0
REMARK                            x       y       z     vdW  Elec       q    Type
REMARK                         _______ _______ _______ _____ _____    ______ ____
ROOT
ATOM      1  C   LIG    1       -1.119   2.295   0.019  0.00  0.00    +0.140 A 
ATOM      2  C   LIG    1       -0.018   1.503   0.010  0.00  0.00    -0.160 A 
ATOM      3  C   LIG    1        1.145   2.389   0.004  0.00  0.00    -0.100 A 
ATOM      4  C   LIG    1        2.525   2.173  -0.011  0.00  0.00    +0.050 A 
ATOM      5  C   LIG    1        3.378   3.241  -0.014  0.00  0.00    -0.020 A 
ATOM      6  C   LIG    1        2.885   4.538  -0.002  0.00  0.00    +0.030 A 
ATOM      7  C   LIG    1        1.527   4.774   0.013  0.00  0.00    -0.010 A 
ATOM      8  C   LIG    1        0.639   3.703   0.016  0.00  0.00    +0.100 A 
ATOM      9  N   LIG    1       -0.736   3.616   0.029  0.00  0.00    -0.590 N 
ATOM     10  H   LIG    1       -1.342   4.373   0.038  0.00  0.00    +0.420 HD
ENDROOT
BRANCH   1  14
ATOM     11  C   LIG    1       -5.136   0.910   0.026  0.00  0.00    +0.140 A 
ATOM     12  C   LIG    1       -4.756   1.935   0.882  0.00  0.00    -0.010 A 
ATOM     13  C   LIG    1       -3.454   2.387   0.883  0.00  0.00    +0.060 A 
ATOM     14  C   LIG    1       -2.517   1.813   0.022  0.00  0.00    -0.080 A 
ATOM     15  C   LIG    1       -2.905   0.786  -0.841  0.00  0.00    +0.080 A 
ATOM     16  C   LIG    1       -4.207   0.336  -0.832  0.00  0.00    -0.080 A 
BRANCH  11  18
ATOM     17  C   LIG    1       -6.744  -0.589  -0.878  0.00  0.00    +0.240 C 
ATOM     18  O   LIG    1       -6.421   0.467   0.028  0.00  0.00    -0.310 OA
ENDBRANCH  11  18
ENDBRANCH   1  14
BRANCH   2  19
ATOM     19  C   LIG    1        0.002  -0.004   0.002  0.00  0.00    +0.130 C 
BRANCH  19  20
ATOM     20  C   LIG    1        0.022  -0.522   1.442  0.00  0.00    +0.090 C 
BRANCH  20  21
ATOM     21  C   LIG    1        0.043  -2.029   1.433  0.00  0.00    +0.530 C 
ATOM     22  N   LIG    1        0.062  -2.709   2.597  0.00  0.00    -0.630 N 
ATOM     23  H   LIG    1        0.063  -2.228   3.439  0.00  0.00    +0.440 HD
ATOM     24  O   LIG    1        0.041  -2.629   0.380  0.00  0.00    -0.520 OA
BRANCH  22  25
ATOM     25  C   LIG    1        0.081  -4.093   2.589  0.00  0.00    +0.510 A 
ATOM     26  N   LIG    1        0.101  -4.850   3.656  0.00  0.00    -0.520 NA
ATOM     27  C   LIG    1        0.115  -6.158   3.288  0.00  0.00    +0.070 A 
ATOM     28  C   LIG    1        0.137  -7.357   4.004  0.00  0.00    +0.060 A 
ATOM     29  C   LIG    1        0.146  -8.557   3.328  0.00  0.00    +0.010 A 
ATOM     30  C   LIG    1        0.134  -8.584   1.942  0.00  0.00    +0.020 A 
ATOM     31  C   LIG    1        0.112  -7.409   1.220  0.00  0.00    +0.010 A 
ATOM     32  C   LIG    1        0.103  -6.191   1.883  0.00  0.00    +0.050 A 
ATOM     33  N   LIG    1        0.076  -4.871   1.467  0.00  0.00    -0.590 N 
ATOM     34  H   LIG    1        0.059  -4.557   0.550  0.00  0.00    +0.430 HD
ENDBRANCH  22  25
ENDBRANCH  20  21
ENDBRANCH  19  20
ENDBRANCH   2  19
TORSDOF 6
