REMARK  Name = ZINCrg000000rxmJ.0
REMARK                            x       y       z     vdW  Elec       q    Type
REMARK                         _______ _______ _______ _____ _____    ______ ____
ROOT
ATOM      1  C   LIG    1       -0.014   1.208   0.009  0.00  0.00    +0.520 C 
ATOM      2  N   LIG    1        1.143   1.898   0.001  0.00  0.00    -0.690 N 
ATOM      3  H   LIG    1        1.130   2.868   0.007  0.00  0.00    +0.410 HD
ATOM      4  C   LIG    1        2.320   1.240  -0.013  0.00  0.00    +0.690 C 
ATOM      5  N   LIG    1        3.478   1.930  -0.021  0.00  0.00    -0.730 N 
ATOM      6  H   LIG    1        3.465   2.900  -0.015  0.00  0.00    +0.400 HD
ATOM      7  O   LIG    1        2.336   0.025  -0.020  0.00  0.00    -0.530 OA
ATOM      8  O   LIG    1        0.002  -0.004   0.002  0.00  0.00    -0.440 OA
ENDROOT
BRANCH   1  10
ATOM      9  C   LIG    1       -1.428   2.829  -1.225  0.00  0.00    +0.030 C 
ATOM     10  C   LIG    1       -1.330   1.944   0.019  0.00  0.00    +0.190 C 
BRANCH  10  11
ATOM     11  N   LIG    1       -2.433   0.974   0.019  0.00  0.00    -0.520 NA
ATOM     12  C   LIG    1       -2.398   0.137  -1.188  0.00  0.00    +0.200 C 
ATOM     13  C   LIG    1       -3.513  -0.910  -1.112  0.00  0.00    +0.230 C 
ATOM     14  N   LIG    1       -4.810  -0.231  -0.983  0.00  0.00    -0.460 N 
ATOM     15  C   LIG    1       -4.845   0.606   0.224  0.00  0.00    +0.220 C 
ATOM     16  C   LIG    1       -3.730   1.653   0.148  0.00  0.00    +0.190 C 
BRANCH  14  17
ATOM     17  C   LIG    1       -5.849  -1.145  -0.983  0.00  0.00    +0.490 A 
ATOM     18  N   LIG    1       -6.695  -1.162   0.037  0.00  0.00    -0.550 NA
ATOM     19  C   LIG    1       -7.702  -2.019   0.065  0.00  0.00    +0.340 A 
ATOM     20  C   LIG    1       -7.860  -2.912  -0.983  0.00  0.00    -0.110 A 
ATOM     21  C   LIG    1       -6.955  -2.870  -2.031  0.00  0.00    +0.350 A 
ATOM     22  N   LIG    1       -5.972  -1.985  -2.000  0.00  0.00    -0.530 NA
ENDBRANCH  14  17
ENDBRANCH  10  11
ENDBRANCH   1  10
BRANCH   5  23
ATOM     23  C   LIG    1        4.756   1.214  -0.037  0.00  0.00    +0.340 C 
BRANCH  23  24
ATOM     24  C   LIG    1        5.888   2.209  -0.042  0.00  0.00    -0.110 A 
ATOM     25  C   LIG    1        6.400   2.668  -1.242  0.00  0.00    +0.020 A 
ATOM     26  C   LIG    1        7.435   3.584  -1.247  0.00  0.00    +0.010 A 
ATOM     27  C   LIG    1        7.965   4.034  -0.052  0.00  0.00    +0.010 A 
ATOM     28  C   LIG    1        7.457   3.571   1.147  0.00  0.00    +0.010 A 
ATOM     29  C   LIG    1        6.419   2.659   1.152  0.00  0.00    +0.020 A 
ENDBRANCH  23  24
ENDBRANCH   5  23
TORSDOF 5
