REMARK  Name = ZINCqH0000003ImA.0
REMARK                            x       y       z     vdW  Elec       q    Type
REMARK                         _______ _______ _______ _____ _____    ______ ____
ROOT
ATOM      1  C   LIG    1        8.680   3.373  -0.056  0.00  0.00    +0.510 C 
ATOM      2  N   LIG    1        9.873   4.001  -0.067  0.00  0.00    -0.660 N 
ATOM      3  H   LIG    1        9.911   4.967  -0.138  0.00  0.00    +0.420 HD
ATOM      4  O   LIG    1        8.633   2.161  -0.070  0.00  0.00    -0.530 OA
ENDROOT
BRANCH   2   5
ATOM      5  C   LIG    1       11.058   3.256   0.023  0.00  0.00    +0.080 A 
ATOM      6  C   LIG    1       11.048   2.005   0.621  0.00  0.00    +0.110 A 
ATOM      7  C   LIG    1       12.215   1.269   0.706  0.00  0.00    -0.090 A 
ATOM      8  C   LIG    1       13.401   1.784   0.203  0.00  0.00    +0.150 A 
ATOM      9  C   LIG    1       13.417   3.038  -0.391  0.00  0.00    -0.080 A 
ATOM     10  C   LIG    1       12.248   3.775  -0.482  0.00  0.00    +0.140 A 
BRANCH   8  11
ATOM     11  O   LIG    1       14.548   1.060   0.292  0.00  0.00    -0.320 OA
ATOM     12  C   LIG    1       14.459  -0.222   0.915  0.00  0.00    +0.250 C 
ENDBRANCH   8  11
BRANCH  10  13
ATOM     13  O   LIG    1       12.262   5.004  -1.064  0.00  0.00    -0.320 OA
ATOM     14  C   LIG    1       13.518   5.473  -1.560  0.00  0.00    +0.250 C 
ENDBRANCH  10  13
ENDBRANCH   2   5
BRANCH   1  15
ATOM     15  C   LIG    1        7.406   4.176  -0.028  0.00  0.00    +0.080 C 
BRANCH  15  16
ATOM     16  C   LIG    1        6.205   3.228  -0.020  0.00  0.00    +0.070 C 
BRANCH  16  17
ATOM     17  C   LIG    1        4.930   4.032   0.008  0.00  0.00    +0.400 C 
ATOM     18  O   LIG    1        4.978   5.244   0.021  0.00  0.00    -0.460 OA
BRANCH  17  22
ATOM     19  C   LIG    1        1.183   2.059   0.044  0.00  0.00    +0.170 A 
ATOM     20  C   LIG    1        2.358   1.315   0.024  0.00  0.00    -0.080 A 
ATOM     21  C   LIG    1        3.574   1.949   0.006  0.00  0.00    +0.110 A 
ATOM     22  C   LIG    1        3.631   3.348   0.020  0.00  0.00    -0.220 A 
ATOM     23  C   LIG    1        2.445   4.092   0.047  0.00  0.00    +0.120 A 
ATOM     24  C   LIG    1        1.235   3.449   0.058  0.00  0.00    -0.030 A 
BRANCH  19  25
ATOM     25  O   LIG    1       -0.017   1.427   0.056  0.00  0.00    -0.310 OA
BRANCH  25  27
ATOM     26  C   LIG    1       -1.434  -0.531   0.057  0.00  0.00    +0.070 C 
ATOM     27  C   LIG    1        0.002  -0.002   0.040  0.00  0.00    +0.190 C 
ENDBRANCH  25  27
ENDBRANCH  19  25
ENDBRANCH  17  22
ENDBRANCH  16  17
ENDBRANCH  15  16
ENDBRANCH   1  15
TORSDOF 9
