REMARK  Name = ZINCvU0000000ELb.0
REMARK                            x       y       z     vdW  Elec       q    Type
REMARK                         _______ _______ _______ _____ _____    ______ ____
ROOT
ATOM      1  N   LIG    1        4.785   0.037   0.428  0.00  0.00    -0.410 N 
ATOM      2  N   LIG    1        4.980   1.413   0.306  0.00  0.00    -0.220 NA
ATOM      3  C   LIG    1        4.067   2.213  -0.182  0.00  0.00    +0.180 A 
ATOM      4  C   LIG    1        2.777   1.665  -0.627  0.00  0.00    -0.060 A 
ATOM      5  C   LIG    1        1.776   2.478  -1.153  0.00  0.00    +0.050 A 
ATOM      6  C   LIG    1        0.584   1.916  -1.556  0.00  0.00    +0.050 A 
ATOM      7  C   LIG    1        0.370   0.549  -1.443  0.00  0.00    +0.030 A 
ATOM      8  C   LIG    1        1.347  -0.274  -0.926  0.00  0.00    +0.090 A 
ATOM      9  C   LIG    1        2.560   0.274  -0.512  0.00  0.00    -0.120 A 
ATOM     10  C   LIG    1        3.636  -0.555   0.046  0.00  0.00    +0.540 A 
ATOM     11  O   LIG    1        3.491  -1.759   0.164  0.00  0.00    -0.510 OA
ENDROOT
BRANCH   3  12
ATOM     12  C   LIG    1        4.331   3.667  -0.286  0.00  0.00    -0.020 A 
ATOM     13  C   LIG    1        3.919   4.374  -1.415  0.00  0.00    +0.050 A 
ATOM     14  C   LIG    1        4.163   5.729  -1.505  0.00  0.00    +0.050 A 
ATOM     15  C   LIG    1        4.825   6.385  -0.481  0.00  0.00    -0.080 A 
ATOM     16  C   LIG    1        5.241   5.686   0.640  0.00  0.00    +0.050 A 
ATOM     17 BR   LIG    1        5.163   8.240  -0.614  0.00  0.00    -0.040 Br
ATOM     18  C   LIG    1        4.998   4.332   0.742  0.00  0.00    +0.070 A 
ENDBRANCH   3  12
BRANCH   1  19
ATOM     19  C   LIG    1        5.860  -0.787   0.986  0.00  0.00    +0.370 C 
BRANCH  19  22
ATOM     20  N   LIG    1        7.824  -2.039   0.153  0.00  0.00    -0.670 N 
ATOM     21  H   LIG    1        7.968  -2.358   1.057  0.00  0.00    +0.410 HD
ATOM     22  C   LIG    1        6.760  -1.260  -0.126  0.00  0.00    +0.500 C 
ATOM     23  O   LIG    1        6.527  -0.940  -1.273  0.00  0.00    -0.500 OA
BRANCH  20  27
ATOM     24  C   LIG    1       10.500  -3.074  -2.874  0.00  0.00    +0.130 A 
ATOM     25  C   LIG    1        9.868  -1.840  -2.899  0.00  0.00    -0.040 A 
ATOM     26  C   LIG    1        8.981  -1.497  -1.897  0.00  0.00    +0.070 A 
ATOM     27  C   LIG    1        8.723  -2.387  -0.864  0.00  0.00    +0.120 A 
ATOM     28  C   LIG    1        9.360  -3.621  -0.835  0.00  0.00    +0.050 A 
ATOM     29  C   LIG    1       10.242  -3.966  -1.841  0.00  0.00    -0.050 A 
ATOM     30 CL   LIG    1       11.034  -5.510  -1.809  0.00  0.00    -0.050 Cl
BRANCH  24  32
ATOM     31  C   LIG    1       11.590  -2.447  -4.892  0.00  0.00    +0.240 C 
ATOM     32  O   LIG    1       11.373  -3.412  -3.861  0.00  0.00    -0.300 OA
ENDBRANCH  24  32
ENDBRANCH  20  27
ENDBRANCH  19  22
ENDBRANCH   1  19
TORSDOF 5
