REMARK  Name = ZINCfA000000JmlM.0
REMARK                            x       y       z     vdW  Elec       q    Type
REMARK                         _______ _______ _______ _____ _____    ______ ____
ROOT
ATOM      1  C   LIG    1        1.363   2.069   0.000  0.00  0.00    -0.110 A 
ATOM      2  C   LIG    1        1.543   3.374  -0.416  0.00  0.00    +0.090 A 
ATOM      3  C   LIG    1        2.809   3.930  -0.420  0.00  0.00    +0.050 A 
ATOM      4  C   LIG    1        3.896   3.177  -0.019  0.00  0.00    +0.100 A 
ATOM      5  C   LIG    1        3.716   1.869   0.392  0.00  0.00    -0.160 A 
ATOM      6  C   LIG    1        2.450   1.315   0.402  0.00  0.00    +0.050 A 
ENDROOT
BRANCH   1   7
ATOM      7  C   LIG    1       -0.018   1.465   0.010  0.00  0.00    +0.060 C 
ATOM      8  C   LIG    1       -0.944   2.062   1.083  0.00  0.00    +0.100 C 
ATOM      9  C   LIG    1       -2.068   2.000   0.031  0.00  0.00    +0.040 C 
ATOM     10  C   LIG    1       -0.964   2.074  -1.038  0.00  0.00    +0.100 C 
BRANCH   7  11
ATOM     11  N   LIG    1        0.002  -0.004   0.002  0.00  0.00    -0.620 N 
ATOM     12  H   LIG    1        0.329  -0.331  -0.895  0.00  0.00    +0.440 HD
ATOM     13  H   LIG    1       -0.929  -0.354   0.169  0.00  0.00    +0.440 HD
ATOM     14  H   LIG    1        0.621  -0.336   0.727  0.00  0.00    +0.440 HD
ENDBRANCH   7  11
ENDBRANCH   1   7
BRANCH   5  15
ATOM     15  C   LIG    1        4.901   1.047   0.830  0.00  0.00    +0.510 C 
ATOM     16  F   LIG    1        4.493   0.111   1.786  0.00  0.00    -0.180 F 
ATOM     17  F   LIG    1        5.872   1.888   1.385  0.00  0.00    -0.170 F 
ATOM     18  F   LIG    1        5.439   0.380  -0.276  0.00  0.00    -0.170 F 
ENDBRANCH   5  15
TORSDOF 3
