REMARK  Name = ZINCnE000004TpMg.0
REMARK                            x       y       z     vdW  Elec       q    Type
REMARK                         _______ _______ _______ _____ _____    ______ ____
ROOT
ATOM      1  C   LIG    1       -4.172   4.446  -3.143  0.00  0.00    +0.000 A 
ATOM      2  C   LIG    1       -4.187   4.026  -1.856  0.00  0.00    +0.140 A 
ATOM      3  N   LIG    1       -2.995   4.388  -1.327  0.00  0.00    -0.300 N 
ATOM      4  N   LIG    1       -2.316   4.991  -2.239  0.00  0.00    -0.090 NA
ATOM      5  N   LIG    1       -2.987   5.037  -3.335  0.00  0.00    -0.260 NA
ENDROOT
BRANCH   1   9
ATOM      6  C   LIG    1       -7.630   2.855  -5.155  0.00  0.00    -0.090 C 
ATOM      7  C   LIG    1       -6.273   2.740  -5.851  0.00  0.00    +0.030 C 
ATOM      8  C   LIG    1       -5.155   2.908  -4.821  0.00  0.00    +0.020 C 
ATOM      9  C   LIG    1       -5.274   4.282  -4.158  0.00  0.00    +0.090 C 
ATOM     10  C   LIG    1       -6.631   4.396  -3.461  0.00  0.00    +0.020 C 
ATOM     11  C   LIG    1       -7.749   4.229  -4.492  0.00  0.00    +0.020 C 
BRANCH   6  13
ATOM     12  O   LIG    1       -9.730   2.050  -5.888  0.00  0.00    -0.710 OA
ATOM     13  C   LIG    1       -8.732   2.691  -6.170  0.00  0.00    +0.500 C 
ATOM     14  O   LIG    1       -8.625   3.198  -7.273  0.00  0.00    -0.700 OA
ENDBRANCH   6  13
ENDBRANCH   1   9
BRANCH   3  15
ATOM     15  C   LIG    1       -2.556   4.141   0.048  0.00  0.00    +0.390 C 
BRANCH  15  16
ATOM     16  C   LIG    1       -1.241   3.405   0.032  0.00  0.00    -0.080 A 
ATOM     17  C   LIG    1       -0.054   4.113   0.025  0.00  0.00    +0.070 A 
ATOM     18  C   LIG    1        1.153   3.439   0.010  0.00  0.00    +0.070 A 
ATOM     19  C   LIG    1        1.174   2.057   0.002  0.00  0.00    -0.060 A 
ATOM     20  C   LIG    1       -0.016   1.347   0.009  0.00  0.00    +0.110 A 
ATOM     21  F   LIG    1        0.002  -0.004   0.002  0.00  0.00    -0.120 F 
ATOM     22 CL   LIG    1        2.690   1.211  -0.018  0.00  0.00    -0.040 Cl
ATOM     23  C   LIG    1       -1.224   2.023   0.019  0.00  0.00    +0.030 A 
ENDBRANCH  15  16
ENDBRANCH   3  15
TORSDOF 4
