REMARK  Name = ZINCpk000000omn6.0
REMARK                            x       y       z     vdW  Elec       q    Type
REMARK                         _______ _______ _______ _____ _____    ______ ____
ROOT
ATOM      1  N   LIG    1        2.319   1.083   0.095  0.00  0.00    -0.720 N 
ATOM      2  H   LIG    1        2.365   0.116   0.160  0.00  0.00    +0.410 HD
ATOM      3  C   LIG    1        1.122   1.696   0.006  0.00  0.00    +0.710 C 
ATOM      4  N   LIG    1       -0.011   0.966   0.007  0.00  0.00    -0.680 N 
ATOM      5  H   LIG    1        0.036  -0.003   0.004  0.00  0.00    +0.410 HD
ATOM      6  O   LIG    1        1.064   2.908  -0.075  0.00  0.00    -0.560 OA
ENDROOT
BRANCH   4   7
ATOM      7  C   LIG    1       -1.256   1.606   0.007  0.00  0.00    +0.180 A 
ATOM      8  C   LIG    1       -2.325   1.046   0.695  0.00  0.00    +0.010 A 
ATOM      9  C   LIG    1       -3.553   1.681   0.699  0.00  0.00    +0.080 A 
ATOM     10  C   LIG    1       -3.724   2.866   0.011  0.00  0.00    +0.010 A 
ATOM     11  C   LIG    1       -2.659   3.428  -0.683  0.00  0.00    +0.140 A 
ATOM     12  C   LIG    1       -1.424   2.797  -0.685  0.00  0.00    +0.060 A 
BRANCH  11  13
ATOM     13  N   LIG    1       -2.834   4.631  -1.381  0.00  0.00    -0.320 N 
ATOM     14  N   LIG    1       -1.897   5.666  -1.547  0.00  0.00    -0.060 NA
ATOM     15  N   LIG    1       -2.470   6.580  -2.253  0.00  0.00    -0.030 NA
ATOM     16  N   LIG    1       -3.669   6.233  -2.550  0.00  0.00    -0.330 NA
ATOM     17  C   LIG    1       -3.945   5.048  -2.049  0.00  0.00    +0.210 A 
BRANCH  17  18
ATOM     18  S   LIG    1       -5.465   4.170  -2.208  0.00  0.00    +0.050 S 
ATOM     19  C   LIG    1       -6.407   5.350  -3.205  0.00  0.00    +0.160 C 
ENDBRANCH  17  18
ENDBRANCH  11  13
ENDBRANCH   4   7
BRANCH   1  20
ATOM     20  C   LIG    1        3.550   1.876   0.093  0.00  0.00    +0.260 C 
ATOM     21  C   LIG    1        3.970   2.164  -1.350  0.00  0.00    +0.060 C 
BRANCH  20  24
ATOM     22  N   LIG    1        5.874   1.645   0.909  0.00  0.00    -0.720 N 
ATOM     23  H   LIG    1        6.056   2.526   0.547  0.00  0.00    +0.400 HD
ATOM     24  C   LIG    1        4.644   1.108   0.790  0.00  0.00    +0.510 C 
ATOM     25  O   LIG    1        4.417   0.006   1.243  0.00  0.00    -0.530 OA
BRANCH  22  26
ATOM     26  C   LIG    1        6.937   0.898   1.587  0.00  0.00    +0.260 C 
BRANCH  26  28
ATOM     27  C   LIG    1        9.333   0.947   2.293  0.00  0.00    +0.030 C 
ATOM     28  C   LIG    1        8.223   1.727   1.585  0.00  0.00    +0.000 C 
ENDBRANCH  26  28
ENDBRANCH  22  26
ENDBRANCH  20  24
ENDBRANCH   1  20
TORSDOF 7
