REMARK  Name = ZINCpk00000xIcEA.0
REMARK                            x       y       z     vdW  Elec       q    Type
REMARK                         _______ _______ _______ _____ _____    ______ ____
ROOT
ATOM      1  S   LIG    1       -2.003  -0.973   5.264  0.00  0.00    +2.680 S 
ATOM      2  O   LIG    1       -0.728  -1.068   4.644  0.00  0.00    -0.920 OA
ATOM      3  O   LIG    1       -3.091  -1.826   4.937  0.00  0.00    -0.950 OA
ENDROOT
BRANCH   1   7
ATOM      4  C   LIG    1       -1.299  -1.449   9.715  0.00  0.00    -0.080 A 
ATOM      5  C   LIG    1       -2.550  -1.742   9.168  0.00  0.00    +0.070 A 
ATOM      6  C   LIG    1       -2.757  -1.595   7.812  0.00  0.00    +0.120 A 
ATOM      7  C   LIG    1       -1.729  -1.159   6.995  0.00  0.00    -0.660 A 
ATOM      8  C   LIG    1       -0.486  -0.872   7.530  0.00  0.00    +0.120 A 
ATOM      9  C   LIG    1       -0.267  -1.010   8.886  0.00  0.00    +0.030 A 
BRANCH   4  13
ATOM     10  C   LIG    1        0.366  -1.476  13.132  0.00  0.00    +0.290 C 
ATOM     11  N   LIG    1        0.139  -1.322  11.693  0.00  0.00    -0.730 N 
ATOM     12  H   LIG    1        0.858  -1.016  11.118  0.00  0.00    +0.400 HD
ATOM     13  C   LIG    1       -1.070  -1.605  11.168  0.00  0.00    +0.550 C 
ATOM     14  O   LIG    1       -1.971  -1.988  11.888  0.00  0.00    -0.530 OA
ENDBRANCH   4  13
ENDBRANCH   1   7
BRANCH   1  15
ATOM     15  N   LIG    1       -2.531   0.576   5.014  0.00  0.00    -0.990 NA
ATOM     16  C   LIG    1       -3.964   0.877   5.052  0.00  0.00    +0.300 C 
BRANCH  15  17
ATOM     17  C   LIG    1       -1.564   1.646   4.755  0.00  0.00    +0.390 C 
BRANCH  17  18
ATOM     18  C   LIG    1       -1.416   1.840   3.268  0.00  0.00    -0.030 A 
ATOM     19  C   LIG    1       -2.080   2.742   2.517  0.00  0.00    +0.140 A 
ATOM     20  N   LIG    1       -1.647   2.578   1.235  0.00  0.00    -0.460 N 
ATOM     21  C   LIG    1       -2.066   3.321   0.044  0.00  0.00    +0.270 C 
ATOM     22  C   LIG    1       -1.032   3.100  -1.065  0.00  0.00    +0.030 C 
ATOM     23  C   LIG    1       -0.767   1.600  -1.225  0.00  0.00    +0.020 C 
ATOM     24  C   LIG    1       -0.013   1.086   0.008  0.00  0.00    +0.150 C 
ATOM     25  C   LIG    1       -0.732   1.579   1.242  0.00  0.00    +0.210 A 
ATOM     26  N   LIG    1       -0.600   1.145   2.460  0.00  0.00    -0.460 NA
ENDBRANCH  17  18
ENDBRANCH  15  17
ENDBRANCH   1  15
TORSDOF 5
