REMARK  Name = ZINCkj000005jTx8.0
REMARK                            x       y       z     vdW  Elec       q    Type
REMARK                         _______ _______ _______ _____ _____    ______ ____
ROOT
ATOM      1  C   LIG    1        4.561  11.177  -0.922  0.00  0.00    +0.040 C 
ATOM      2  C   LIG    1        4.908   9.989  -0.022  0.00  0.00    +0.010 C 
ATOM      3  C   LIG    1        3.748   8.972   0.011  0.00  0.00    +0.280 C 
ATOM      4  N   LIG    1        4.344   7.629  -0.002  0.00  0.00    -0.610 N 
ATOM      5  C   LIG    1        5.812   7.764  -0.009  0.00  0.00    +0.270 C 
ATOM      6  C   LIG    1        3.662   6.466  -0.001  0.00  0.00    +0.690 C 
ATOM      7  O   LIG    1        4.264   5.406  -0.011  0.00  0.00    -0.660 OA
ATOM      8  C   LIG    1        6.077   9.164  -0.622  0.00  0.00    -0.030 C 
ENDROOT
BRANCH   6   9
ATOM      9  N   LIG    1        2.329   6.476   0.012  0.00  0.00    -0.660 NA
ATOM     10  C   LIG    1        1.652   5.321   0.013  0.00  0.00    +0.500 A 
ATOM     11  C   LIG    1        0.269   5.184   0.025  0.00  0.00    -0.120 A 
ATOM     12  C   LIG    1       -0.027   3.818   0.022  0.00  0.00    +0.200 A 
ATOM     13  C   LIG    1       -1.248   3.121   0.030  0.00  0.00    +0.040 A 
ATOM     14  C   LIG    1       -1.238   1.757   0.018  0.00  0.00    +0.100 A 
ATOM     15  C   LIG    1       -0.013   1.076   0.008  0.00  0.00    +0.010 A 
ATOM     16  C   LIG    1        1.151   1.765   0.001  0.00  0.00    +0.270 A 
ATOM     17  N   LIG    1        1.155   3.125   0.007  0.00  0.00    -0.260 N 
ATOM     18  N   LIG    1        2.203   4.056   0.002  0.00  0.00    -0.490 N 
ATOM     19  H   LIG    1        3.150   3.847  -0.008  0.00  0.00    +0.460 HD
ENDBRANCH   6   9
BRANCH   8  20
ATOM     20  C   LIG    1        7.429   9.715  -0.164  0.00  0.00    +0.280 C 
BRANCH  20  21
ATOM     21  N   LIG    1        8.509   8.988  -0.844  0.00  0.00    -0.640 N 
ATOM     22  H   LIG    1        8.450   8.007  -0.614  0.00  0.00    +0.440 HD
ATOM     23  H   LIG    1        9.401   9.351  -0.542  0.00  0.00    +0.440 HD
ATOM     24  H   LIG    1        8.418   9.105  -1.842  0.00  0.00    +0.440 HD
ENDBRANCH  20  21
ENDBRANCH   8  20
TORSDOF 3
