REMARK  Name = ZINCnE000008J9Sz.0
REMARK                            x       y       z     vdW  Elec       q    Type
REMARK                         _______ _______ _______ _____ _____    ______ ____
ROOT
ATOM      1  C   LIG    1       -2.538   1.508   0.021  0.00  0.00    +0.280 C 
ATOM      2  C   LIG    1       -1.260   1.982   0.022  0.00  0.00    -0.260 C 
ATOM      3  S   LIG    1       -0.722   3.674   0.029  0.00  0.00    +0.120 S 
ATOM      4  C   LIG    1        1.004   3.273   0.019  0.00  0.00    +0.260 C 
ATOM      5  N   LIG    1        1.092   1.938   0.015  0.00  0.00    -0.500 N 
ATOM      6  S   LIG    1        2.309   4.381   0.014  0.00  0.00    -0.360 S 
ATOM      7  C   LIG    1       -0.015   1.213   0.019  0.00  0.00    +0.550 C 
ATOM      8  O   LIG    1        0.002  -0.005   0.015  0.00  0.00    -0.450 OA
ENDROOT
BRANCH   1  12
ATOM      9  C   LIG    1       -4.777   4.270   0.276  0.00  0.00    +0.070 A 
ATOM     10  C   LIG    1       -5.674   3.263   0.344  0.00  0.00    -0.060 A 
ATOM     11  C   LIG    1       -4.956   2.060   0.252  0.00  0.00    +0.040 A 
ATOM     12  C   LIG    1       -3.625   2.406   0.138  0.00  0.00    -0.040 A 
ATOM     13  O   LIG    1       -3.546   3.753   0.152  0.00  0.00    -0.150 OA
BRANCH   9  17
ATOM     14  C   LIG    1       -3.590   5.826   2.460  0.00  0.00    +0.060 C 
ATOM     15  C   LIG    1       -4.492   6.561   1.466  0.00  0.00    -0.010 C 
ATOM     16  C   LIG    1       -3.976   6.728   0.035  0.00  0.00    +0.060 C 
ATOM     17  C   LIG    1       -5.106   5.740   0.330  0.00  0.00    +0.040 C 
ENDBRANCH   9  17
ENDBRANCH   1  12
BRANCH   5  18
ATOM     18  C   LIG    1        2.403   1.284   0.005  0.00  0.00    +0.290 C 
BRANCH  18  19
ATOM     19  C   LIG    1        2.851   1.061  -1.441  0.00  0.00    +0.030 C 
BRANCH  19  20
ATOM     20  C   LIG    1        4.220   0.378  -1.450  0.00  0.00    -0.060 C 
BRANCH  20  21
ATOM     21  C   LIG    1        4.661   0.158  -2.874  0.00  0.00    +0.490 C 
ATOM     22  O   LIG    1        5.733  -0.376  -3.105  0.00  0.00    -0.700 OA
ATOM     23  O   LIG    1        3.947   0.514  -3.796  0.00  0.00    -0.700 OA
ENDBRANCH  20  21
ENDBRANCH  19  20
ENDBRANCH  18  19
ENDBRANCH   5  18
TORSDOF 6
