REMARK  Name = ZINCnE00000hdcom.0
REMARK                            x       y       z     vdW  Elec       q    Type
REMARK                         _______ _______ _______ _____ _____    ______ ____
ROOT
ATOM      1  N   LIG    1        2.856  -3.761  -0.047  0.00  0.00    -0.630 N 
ATOM      2  H   LIG    1        2.103  -4.372  -0.043  0.00  0.00    +0.410 HD
ATOM      3  C   LIG    1        2.643  -2.430  -0.037  0.00  0.00    +0.640 C 
ATOM      4  N   LIG    1        1.385  -1.949  -0.022  0.00  0.00    -0.670 NA
ATOM      5  O   LIG    1        3.587  -1.663  -0.041  0.00  0.00    -0.600 OA
ENDROOT
BRANCH   1   8
ATOM      6  C   LIG    1        5.881  -5.683  -0.087  0.00  0.00    +0.090 A 
ATOM      7  C   LIG    1        4.530  -5.617  -0.073  0.00  0.00    -0.260 A 
ATOM      8  C   LIG    1        4.166  -4.261  -0.062  0.00  0.00    +0.330 A 
ATOM      9  N   LIG    1        5.265  -3.544  -0.073  0.00  0.00    -0.270 NA
ATOM     10  C   LIG    1        3.585  -6.790  -0.071  0.00  0.00    +0.110 C 
ATOM     11  N   LIG    1        6.358  -4.420  -0.084  0.00  0.00    -0.480 N 
ATOM     12  H   LIG    1        7.293  -4.164  -0.091  0.00  0.00    +0.430 HD
BRANCH   6  14
ATOM     13  C   LIG    1        6.868  -7.431  -1.542  0.00  0.00    +0.020 C 
ATOM     14  C   LIG    1        6.708  -6.943  -0.101  0.00  0.00    +0.100 C 
ENDBRANCH   6  14
ENDBRANCH   1   8
BRANCH   4  15
ATOM     15  C   LIG    1        1.165  -0.577  -0.012  0.00  0.00    +0.400 A 
ATOM     16  N   LIG    1        0.002  -0.004   0.002  0.00  0.00    -0.560 NA
ATOM     17  C   LIG    1       -0.016   1.322   0.009  0.00  0.00    +0.130 A 
ATOM     18  C   LIG    1        1.191   1.915   0.001  0.00  0.00    -0.190 A 
ATOM     19  S   LIG    1        2.424   0.655  -0.018  0.00  0.00    -0.010 S 
BRANCH  17  20
ATOM     20  C   LIG    1       -1.280   2.097   0.020  0.00  0.00    -0.040 A 
ATOM     21  C   LIG    1       -2.515   1.443   0.023  0.00  0.00    +0.090 A 
ATOM     22  C   LIG    1       -3.666   2.212   0.033  0.00  0.00    -0.050 A 
ATOM     23  C   LIG    1       -3.558   3.591   0.040  0.00  0.00    +0.230 A 
ATOM     24  N   LIG    1       -2.378   4.181   0.037  0.00  0.00    -0.490 NA
ATOM     25  C   LIG    1       -1.256   3.491   0.032  0.00  0.00    +0.250 A 
ENDBRANCH  17  20
ENDBRANCH   4  15
TORSDOF 4
