REMARK  Name = ZINCqH00000098RS.0
REMARK                            x       y       z     vdW  Elec       q    Type
REMARK                         _______ _______ _______ _____ _____    ______ ____
ROOT
ATOM      1  C   LIG    1        0.002  -0.004   0.002  0.00  0.00    +0.200 A 
ATOM      2  N   LIG    1       -0.016   1.309   0.009  0.00  0.00    -0.320 NA
ATOM      3  N   LIG    1        1.323   1.732  -0.001  0.00  0.00    -0.320 N 
ATOM      4  C   LIG    1        2.076   0.616  -0.015  0.00  0.00    +0.330 A 
ATOM      5  N   LIG    1        1.274  -0.418  -0.012  0.00  0.00    -0.510 NA
ENDROOT
BRANCH   3   6
ATOM      6  C   LIG    1        1.785   3.055   0.001  0.00  0.00    +0.140 A 
ATOM      7  C   LIG    1        2.947   3.385   0.685  0.00  0.00    +0.020 A 
ATOM      8  C   LIG    1        3.402   4.689   0.681  0.00  0.00    +0.040 A 
ATOM      9  C   LIG    1        2.696   5.668   0.005  0.00  0.00    +0.020 A 
ATOM     10  C   LIG    1        1.535   5.343  -0.672  0.00  0.00    +0.030 A 
ATOM     11  C   LIG    1        1.078   4.040  -0.676  0.00  0.00    +0.020 A 
ENDBRANCH   3   6
BRANCH   4  12
ATOM     12  C   LIG    1        3.582   0.565  -0.029  0.00  0.00    +0.020 C 
ATOM     13  C   LIG    1        4.242  -0.798  -0.246  0.00  0.00    +0.080 C 
ATOM     14  C   LIG    1        4.276  -0.143   1.136  0.00  0.00    +0.060 C 
ENDBRANCH   4  12
BRANCH   1  15
ATOM     15  S   LIG    1       -1.417  -1.049   0.011  0.00  0.00    +0.120 S 
BRANCH  15  16
ATOM     16  C   LIG    1       -2.793   0.132   0.030  0.00  0.00    +0.080 C 
BRANCH  16  19
ATOM     17  N   LIG    1       -5.266   0.057   0.053  0.00  0.00    -0.720 N 
ATOM     18  H   LIG    1       -5.264   1.027   0.058  0.00  0.00    +0.410 HD
ATOM     19  C   LIG    1       -4.100  -0.619   0.039  0.00  0.00    +0.540 C 
ATOM     20  O   LIG    1       -4.102  -1.832   0.033  0.00  0.00    -0.520 OA
BRANCH  17  22
ATOM     21  C   LIG    1       -6.901  -1.044   1.501  0.00  0.00    +0.040 C 
ATOM     22  C   LIG    1       -6.536  -0.673   0.062  0.00  0.00    +0.350 C 
BRANCH  22  23
ATOM     23  C   LIG    1       -7.619   0.196  -0.524  0.00  0.00    -0.030 A 
ATOM     24  C   LIG    1       -8.599  -0.217  -1.348  0.00  0.00    -0.040 A 
ATOM     25  C   LIG    1       -9.385   0.918  -1.649  0.00  0.00    -0.060 A 
ATOM     26  C   LIG    1       -8.839   1.957  -0.992  0.00  0.00    +0.180 A 
ATOM     27  O   LIG    1       -7.773   1.512  -0.307  0.00  0.00    -0.180 OA
ENDBRANCH  22  23
ENDBRANCH  17  22
ENDBRANCH  16  19
ENDBRANCH  15  16
ENDBRANCH   1  15
TORSDOF 7
