REMARK  Name = ZINCvU0000000IE0.0
REMARK                            x       y       z     vdW  Elec       q    Type
REMARK                         _______ _______ _______ _____ _____    ______ ____
ROOT
ATOM      1  O   LIG    1       -2.184   0.830   1.479  0.00  0.00    -0.490 OA
ATOM      2  C   LIG    1       -0.973   0.822   1.416  0.00  0.00    +0.530 C 
ATOM      3  N   LIG    1       -0.241   1.246   2.466  0.00  0.00    -0.670 N 
ATOM      4  H   LIG    1        0.725   1.169   2.446  0.00  0.00    +0.420 HD
ENDROOT
BRANCH   3   5
ATOM      5  C   LIG    1       -0.876   1.795   3.584  0.00  0.00    +0.160 A 
ATOM      6  C   LIG    1       -2.111   2.418   3.444  0.00  0.00    +0.030 A 
ATOM      7  C   LIG    1       -2.741   2.957   4.545  0.00  0.00    +0.040 A 
ATOM      8  C   LIG    1       -2.133   2.885   5.799  0.00  0.00    -0.030 A 
ATOM      9  C   LIG    1       -0.891   2.263   5.936  0.00  0.00    +0.090 A 
ATOM     10  C   LIG    1       -0.268   1.722   4.832  0.00  0.00    +0.000 A 
BRANCH   8  11
ATOM     11  C   LIG    1       -2.805   3.466   6.982  0.00  0.00    +0.220 A 
ATOM     12  N   LIG    1       -2.555   3.185   8.244  0.00  0.00    -0.280 NA
ATOM     13  N   LIG    1       -3.323   3.883   9.005  0.00  0.00    -0.290 NA
ATOM     14  C   LIG    1       -4.101   4.637   8.281  0.00  0.00    +0.190 A 
ATOM     15  C   LIG    1       -5.135   5.617   8.773  0.00  0.00    +0.150 C 
ATOM     16  C   LIG    1       -6.431   5.415   7.982  0.00  0.00    +0.030 C 
ATOM     17  C   LIG    1       -6.400   6.272   6.720  0.00  0.00    +0.020 C 
ATOM     18  C   LIG    1       -4.974   6.386   6.182  0.00  0.00    +0.030 C 
ATOM     19  C   LIG    1       -4.451   4.995   5.809  0.00  0.00    +0.290 C 
ATOM     20  N   LIG    1       -3.807   4.391   6.976  0.00  0.00    -0.470 N 
ENDBRANCH   8  11
ENDBRANCH   3   5
BRANCH   2  21
ATOM     21  C   LIG    1       -0.286   0.340   0.165  0.00  0.00    +0.080 C 
BRANCH  21  22
ATOM     22  S   LIG    1       -1.532  -0.158  -1.056  0.00  0.00    -0.030 S 
BRANCH  22  23
ATOM     23  C   LIG    1       -0.557  -0.684  -2.426  0.00  0.00    -0.100 A 
ATOM     24  C   LIG    1       -1.177  -1.142  -3.568  0.00  0.00    +0.050 A 
ATOM     25  C   LIG    1       -0.397  -1.560  -4.659  0.00  0.00    -0.030 A 
ATOM     26  C   LIG    1       -0.992  -2.033  -5.841  0.00  0.00    +0.020 A 
ATOM     27  C   LIG    1       -0.205  -2.429  -6.879  0.00  0.00    +0.020 A 
ATOM     28  C   LIG    1        1.184  -2.373  -6.788  0.00  0.00    +0.010 A 
ATOM     29  C   LIG    1        1.795  -1.921  -5.658  0.00  0.00    +0.030 A 
ATOM     30  C   LIG    1        1.017  -1.502  -4.566  0.00  0.00    -0.060 A 
ATOM     31  C   LIG    1        1.617  -1.029  -3.385  0.00  0.00    +0.050 A 
ATOM     32  C   LIG    1        0.840  -0.626  -2.346  0.00  0.00    -0.010 A 
ENDBRANCH  22  23
ENDBRANCH  21  22
ENDBRANCH   2  21
TORSDOF 5
