REMARK  Name = ZINCrD00000l2D4g.0
REMARK                            x       y       z     vdW  Elec       q    Type
REMARK                         _______ _______ _______ _____ _____    ______ ____
ROOT
ATOM      1  C   LIG    1        1.153   3.178   0.008  0.00  0.00    -0.120 A 
ATOM      2  C   LIG    1       -0.071   3.851   0.023  0.00  0.00    +0.210 A 
ATOM      3  C   LIG    1       -1.249   3.133   0.031  0.00  0.00    -0.680 A 
ATOM      4  C   LIG    1       -1.221   1.750   0.017  0.00  0.00    +0.180 A 
ATOM      5  C   LIG    1       -0.013   1.076   0.008  0.00  0.00    +0.040 A 
ATOM      6  C   LIG    1        1.174   1.781   0.000  0.00  0.00    +0.010 A 
ATOM      7 BR   LIG    1        2.825   0.858  -0.020  0.00  0.00    +0.010 Br
ENDROOT
BRANCH   3   8
ATOM      8  S   LIG    1       -2.794   3.980   0.050  0.00  0.00    +2.700 S 
ATOM      9  O   LIG    1       -2.539   5.266   0.598  0.00  0.00    -0.940 OA
ATOM     10  O   LIG    1       -3.741   3.075   0.598  0.00  0.00    -0.940 OA
BRANCH   8  11
ATOM     11  N   LIG    1       -3.238   4.224  -1.527  0.00  0.00    -1.080 NA
ATOM     12  H   LIG    1       -3.299   5.125  -1.880  0.00  0.00    +0.420 HD
BRANCH  11  13
ATOM     13  C   LIG    1       -3.540   3.078  -2.388  0.00  0.00    +0.220 C 
ATOM     14  C   LIG    1       -3.178   3.193  -3.870  0.00  0.00    +0.020 C 
ATOM     15  C   LIG    1       -4.644   3.252  -3.434  0.00  0.00    +0.030 C 
ENDBRANCH  11  13
ENDBRANCH   8  11
ENDBRANCH   3   8
BRANCH   1  16
ATOM     16  C   LIG    1        2.418   3.940   0.001  0.00  0.00    +0.500 C 
ATOM     17  O   LIG    1        3.481   3.352  -0.012  0.00  0.00    -0.470 OA
BRANCH  16  18
ATOM     18  O   LIG    1        2.393   5.287   0.008  0.00  0.00    -0.350 OA
BRANCH  18  19
ATOM     19  C   LIG    1        3.675   5.970   0.000  0.00  0.00    +0.300 C 
BRANCH  19  23
ATOM     20  C   LIG    1        3.037  10.197   0.026  0.00  0.00    +0.110 A 
ATOM     21  C   LIG    1        3.130   9.515  -1.178  0.00  0.00    -0.050 A 
ATOM     22  C   LIG    1        3.342   8.149  -1.183  0.00  0.00    +0.080 A 
ATOM     23  C   LIG    1        3.450   7.460   0.010  0.00  0.00    -0.110 A 
ATOM     24  C   LIG    1        3.358   8.136   1.213  0.00  0.00    +0.060 A 
ATOM     25  C   LIG    1        3.152   9.503   1.225  0.00  0.00    +0.070 A 
ATOM     26  F   LIG    1        3.061  10.164   2.400  0.00  0.00    -0.130 F 
BRANCH  20  28
ATOM     27  C   LIG    1        2.727  12.188  -1.236  0.00  0.00    +0.250 C 
ATOM     28  O   LIG    1        2.835  11.541   0.034  0.00  0.00    -0.310 OA
ENDBRANCH  20  28
ENDBRANCH  19  23
ENDBRANCH  18  19
ENDBRANCH  16  18
ENDBRANCH   1  16
TORSDOF 8
