REMARK  Name = ZINCnE000001GMJ3.0
REMARK                            x       y       z     vdW  Elec       q    Type
REMARK                         _______ _______ _______ _____ _____    ______ ____
ROOT
ATOM      1  C   LIG    1       -4.882   3.854   0.480  0.00  0.00    +0.100 A 
ATOM      2  C   LIG    1       -3.689   3.268   0.084  0.00  0.00    -0.060 A 
ATOM      3  C   LIG    1       -2.548   4.037  -0.025  0.00  0.00    +0.050 A 
ATOM      4  C   LIG    1       -2.594   5.396   0.262  0.00  0.00    +0.130 A 
ATOM      5  C   LIG    1       -3.786   5.984   0.655  0.00  0.00    -0.080 A 
ATOM      6  C   LIG    1       -3.872   7.456   0.965  0.00  0.00    +0.080 C 
ATOM      7  C   LIG    1       -2.487   8.018   1.283  0.00  0.00    +0.010 C 
ATOM      8  C   LIG    1       -1.521   7.623   0.164  0.00  0.00    +0.300 C 
ATOM      9  N   LIG    1       -1.421   6.157   0.148  0.00  0.00    -0.540 N 
ATOM     10  C   LIG    1       -0.221   5.553   0.033  0.00  0.00    +0.590 C 
ATOM     11  O   LIG    1       -0.143   4.341   0.084  0.00  0.00    -0.540 OA
ATOM     12  C   LIG    1       -4.928   5.210   0.765  0.00  0.00    +0.000 A 
ENDROOT
BRANCH  10  13
ATOM     13  C   LIG    1        1.000   6.365  -0.157  0.00  0.00    -0.080 A 
ATOM     14  C   LIG    1        2.251   5.755  -0.091  0.00  0.00    +0.090 A 
ATOM     15  C   LIG    1        3.388   6.525  -0.270  0.00  0.00    -0.120 A 
ATOM     16  C   LIG    1        3.235   7.886  -0.510  0.00  0.00    +0.270 A 
ATOM     17  C   LIG    1        1.952   8.430  -0.556  0.00  0.00    +0.040 A 
ATOM     18 CL   LIG    1        1.750  10.129  -0.848  0.00  0.00    -0.060 Cl
ATOM     19  O   LIG    1        4.323   8.678  -0.690  0.00  0.00    -0.660 OA
ATOM     20  N   LIG    1        0.893   7.670  -0.388  0.00  0.00    -0.410 NA
ENDBRANCH  10  13
BRANCH   1  21
ATOM     21  O   LIG    1       -6.007   3.098   0.589  0.00  0.00    -0.320 OA
BRANCH  21  23
ATOM     22  C   LIG    1       -7.247   1.028   0.459  0.00  0.00    +0.050 C 
ATOM     23  C   LIG    1       -5.888   1.708   0.281  0.00  0.00    +0.180 C 
ENDBRANCH  21  23
ENDBRANCH   1  21
TORSDOF 3
