REMARK  Name = ZINCrH000004jyKi.0
REMARK                            x       y       z     vdW  Elec       q    Type
REMARK                         _______ _______ _______ _____ _____    ______ ____
ROOT
ATOM      1  C   LIG    1        0.576  -2.507   0.581  0.00  0.00    -0.310 A 
ATOM      2  C   LIG    1       -0.741  -2.206   0.774  0.00  0.00    +0.160 A 
ATOM      3  C   LIG    1       -0.957  -0.890   1.137  0.00  0.00    -0.130 A 
ATOM      4  C   LIG    1        0.186  -0.138   1.236  0.00  0.00    -0.000 A 
ATOM      5  S   LIG    1        1.560  -1.079   0.863  0.00  0.00    +0.220 S 
ENDROOT
BRANCH   4   6
ATOM      6  N   LIG    1        0.220   1.199   1.583  0.00  0.00    -0.440 N 
ATOM      7  C   LIG    1       -0.620   1.999   0.680  0.00  0.00    +0.180 C 
ATOM      8  C   LIG    1       -0.601   3.461   1.136  0.00  0.00    +0.240 C 
ATOM      9  O   LIG    1        0.751   3.926   1.173  0.00  0.00    -0.380 OA
ATOM     10  C   LIG    1        1.597   3.169   2.043  0.00  0.00    +0.250 C 
ATOM     11  C   LIG    1        1.600   1.705   1.597  0.00  0.00    +0.160 C 
ENDBRANCH   4   6
BRANCH   3  12
ATOM     12  C   LIG    1       -2.308  -0.340   1.399  0.00  0.00    -0.020 A 
ATOM     13  C   LIG    1       -2.558   0.374   2.570  0.00  0.00    +0.040 A 
ATOM     14  C   LIG    1       -3.817   0.889   2.807  0.00  0.00    +0.000 A 
ATOM     15  C   LIG    1       -4.832   0.689   1.889  0.00  0.00    +0.000 A 
ATOM     16  C   LIG    1       -4.591  -0.023   0.727  0.00  0.00    +0.000 A 
ATOM     17  C   LIG    1       -3.336  -0.538   0.478  0.00  0.00    +0.010 A 
ENDBRANCH   3  12
BRANCH   1  20
ATOM     18  C   LIG    1        3.258  -2.755  -0.146  0.00  0.00    +0.320 C 
ATOM     19  N   LIG    1        2.370  -3.920  -0.144  0.00  0.00    -0.610 N 
ATOM     20  C   LIG    1        1.075  -3.780   0.204  0.00  0.00    +0.600 C 
ATOM     21  O   LIG    1        0.334  -4.746   0.194  0.00  0.00    -0.520 OA
BRANCH  19  22
ATOM     22  C   LIG    1        2.888  -5.238  -0.519  0.00  0.00    +0.250 C 
ATOM     23  C   LIG    1        3.234  -6.130   0.684  0.00  0.00    +0.050 C 
ATOM     24  C   LIG    1        4.476  -6.579  -0.106  0.00  0.00    +0.040 C 
ATOM     25  C   LIG    1        4.390  -5.237  -0.852  0.00  0.00    +0.070 C 
BRANCH  22  26
ATOM     26  C   LIG    1        2.060  -5.910  -1.534  0.00  0.00    +0.220 C 
ATOM     27  N   LIG    1        1.421  -6.429  -2.316  0.00  0.00    -0.400 NA
ENDBRANCH  22  26
ENDBRANCH  19  22
ENDBRANCH   1  20
TORSDOF 5
