REMARK  Name = ZINCvU0000000Gbh.0
REMARK                            x       y       z     vdW  Elec       q    Type
REMARK                         _______ _______ _______ _____ _____    ______ ____
ROOT
ATOM      1  O   LIG    1        0.338   4.154   0.021  0.00  0.00    -0.490 OA
ATOM      2  C   LIG    1        1.396   3.562   0.008  0.00  0.00    +0.510 C 
ATOM      3  N   LIG    1        2.554   4.252   0.001  0.00  0.00    -0.510 N 
ENDROOT
BRANCH   3   4
ATOM      4  C   LIG    1        2.535   5.637   0.008  0.00  0.00    +0.330 A 
ATOM      5  N   LIG    1        3.583   6.387   0.008  0.00  0.00    -0.490 NA
ATOM      6  C   LIG    1        3.403   7.722   0.011  0.00  0.00    +0.110 A 
ATOM      7  C   LIG    1        4.375   8.744   0.008  0.00  0.00    +0.060 A 
ATOM      8  C   LIG    1        3.997  10.063   0.019  0.00  0.00    +0.030 A 
ATOM      9  C   LIG    1        2.655  10.413   0.034  0.00  0.00    +0.020 A 
ATOM     10  C   LIG    1        1.688   9.432   0.037  0.00  0.00    +0.060 A 
ATOM     11  C   LIG    1        2.053   8.089   0.026  0.00  0.00    -0.220 A 
ATOM     12  S   LIG    1        1.079   6.621   0.027  0.00  0.00    +0.160 S 
ENDBRANCH   3   4
BRANCH   3  13
ATOM     13  C   LIG    1        3.833   3.537  -0.015  0.00  0.00    +0.310 C 
BRANCH  13  14
ATOM     14  C   LIG    1        4.264   3.296  -1.464  0.00  0.00    +0.140 C 
ATOM     15  C   LIG    1        5.551   2.443  -1.492  0.00  0.00    +0.020 C 
ATOM     16  C   LIG    1        6.354   3.096  -2.650  0.00  0.00    +0.010 C 
ATOM     17  C   LIG    1        5.940   4.581  -2.494  0.00  0.00    +0.190 C 
ATOM     18  O   LIG    1        4.559   4.546  -2.097  0.00  0.00    -0.360 OA
ENDBRANCH  13  14
ENDBRANCH   3  13
BRANCH   2  19
ATOM     19  C   LIG    1        1.417   2.055  -0.000  0.00  0.00    +0.080 C 
BRANCH  19  20
ATOM     20  C   LIG    1       -0.019   1.526   0.010  0.00  0.00    +0.050 C 
BRANCH  20  21
ATOM     21  C   LIG    1        0.002  -0.004   0.002  0.00  0.00    +0.030 C 
BRANCH  21  22
ATOM     22  C   LIG    1       -1.433  -0.534   0.013  0.00  0.00    +0.140 C 
BRANCH  22  23
ATOM     23  C   LIG    1       -1.413  -2.041   0.005  0.00  0.00    +0.100 A 
ATOM     24  N   LIG    1       -1.393  -2.766   1.058  0.00  0.00    -0.470 NA
ATOM     25  C   LIG    1       -1.376  -4.103   0.901  0.00  0.00    +0.080 A 
ATOM     26  C   LIG    1       -1.354  -5.123   1.873  0.00  0.00    +0.080 A 
ATOM     27  C   LIG    1       -1.340  -6.433   1.498  0.00  0.00    +0.030 A 
ATOM     28  C   LIG    1       -1.348  -6.788   0.157  0.00  0.00    +0.040 A 
ATOM     29  C   LIG    1       -1.370  -5.812  -0.815  0.00  0.00    +0.060 A 
ATOM     30  C   LIG    1       -1.384  -4.468  -0.450  0.00  0.00    -0.180 A 
ATOM     31  S   LIG    1       -1.421  -2.993  -1.411  0.00  0.00    +0.100 S 
ENDBRANCH  22  23
ENDBRANCH  21  22
ENDBRANCH  20  21
ENDBRANCH  19  20
ENDBRANCH   2  19
TORSDOF 8
