REMARK  Name = ZINCvU0000000HI6.0
REMARK                            x       y       z     vdW  Elec       q    Type
REMARK                         _______ _______ _______ _____ _____    ______ ____
ROOT
ATOM      1  C   LIG    1        4.092   4.480   1.325  0.00  0.00    +0.050 A 
ATOM      2  C   LIG    1        5.406   4.149   1.071  0.00  0.00    +0.180 A 
ATOM      3  N   LIG    1        6.098   4.357   2.232  0.00  0.00    -0.350 N 
ATOM      4  C   LIG    1        7.417   4.197   2.560  0.00  0.00    -0.550 A 
ATOM      5  C   LIG    1        7.852   4.471   3.807  0.00  0.00    +0.090 A 
ATOM      6  C   LIG    1        6.954   4.925   4.789  0.00  0.00    +0.010 A 
ATOM      7  C   LIG    1        5.640   5.089   4.480  0.00  0.00    +0.140 A 
ATOM      8  C   LIG    1        5.195   4.799   3.172  0.00  0.00    +0.200 A 
ATOM      9  N   LIG    1        4.000   4.867   2.610  0.00  0.00    -0.430 NA
ENDROOT
BRANCH   1  13
ATOM     10  C   LIG    1        0.884   4.298  -1.467  0.00  0.00    +0.090 A 
ATOM     11  C   LIG    1        1.396   5.527  -1.079  0.00  0.00    -0.040 A 
ATOM     12  C   LIG    1        2.438   5.589  -0.173  0.00  0.00    +0.020 A 
ATOM     13  C   LIG    1        2.974   4.415   0.353  0.00  0.00    +0.110 A 
ATOM     14  C   LIG    1        2.455   3.180  -0.033  0.00  0.00    -0.010 A 
ATOM     15 CL   LIG    1        0.729   6.990  -1.734  0.00  0.00    -0.040 Cl
ATOM     16  C   LIG    1        1.417   3.123  -0.945  0.00  0.00    +0.100 A 
BRANCH  16  17
ATOM     17  O   LIG    1        0.912   1.919  -1.327  0.00  0.00    -0.300 OA
ATOM     18  C   LIG    1        1.507   0.754  -0.751  0.00  0.00    +0.240 C 
ENDBRANCH  16  17
BRANCH  10  19
ATOM     19  O   LIG    1       -0.141   4.242  -2.360  0.00  0.00    -0.310 OA
BRANCH  19  20
ATOM     20  C   LIG    1       -1.467   4.261  -1.827  0.00  0.00    +0.170 C 
BRANCH  20  22
ATOM     21  C   LIG    1       -3.898   4.210  -2.403  0.00  0.00    +0.030 C 
ATOM     22  C   LIG    1       -2.478   4.190  -2.973  0.00  0.00    +0.020 C 
ENDBRANCH  20  22
ENDBRANCH  19  20
ENDBRANCH  10  19
ENDBRANCH   1  13
BRANCH   4  23
ATOM     23  P   LIG    1        8.591   3.612   1.307  0.00  0.00    +2.520 P 
ATOM     24  O   LIG    1        8.509   4.480   0.111  0.00  0.00    -0.970 OA
ATOM     25  C   LIG    1        8.180   1.898   0.843  0.00  0.00    -0.470 C 
ATOM     26  C   LIG    1       10.282   3.670   1.984  0.00  0.00    -0.460 C 
ENDBRANCH   4  23
BRANCH   2  27
ATOM     27  N   LIG    1        5.930   3.694  -0.140  0.00  0.00    -0.600 N 
ATOM     28  H   LIG    1        6.939   3.734  -0.135  0.00  0.00    +0.360 HD
BRANCH  27  29
ATOM     29  C   LIG    1        5.378   4.450  -1.271  0.00  0.00    +0.120 C 
ATOM     30  C   LIG    1        3.880   4.164  -1.394  0.00  0.00    +0.040 C 
ATOM     31  C   LIG    1        6.085   4.029  -2.561  0.00  0.00    +0.050 C 
ATOM     32  C   LIG    1        5.593   5.947  -1.037  0.00  0.00    +0.020 C 
ENDBRANCH  27  29
ENDBRANCH   2  27
TORSDOF 8
