REMARK  Name = ZINCrH000004nZpl.0
REMARK                            x       y       z     vdW  Elec       q    Type
REMARK                         _______ _______ _______ _____ _____    ______ ____
ROOT
ATOM      1  C   LIG    1       -0.432   2.746   1.693  0.00  0.00    +0.560 C 
ATOM      2  N   LIG    1       -0.962   1.705   1.020  0.00  0.00    -0.610 N 
ATOM      3  C   LIG    1       -2.194   1.073   1.500  0.00  0.00    +0.300 C 
ATOM      4  O   LIG    1        0.539   3.326   1.248  0.00  0.00    -0.520 OA
ENDROOT
BRANCH   1   8
ATOM      5  C   LIG    1       -2.155   3.999   5.367  0.00  0.00    +0.140 A 
ATOM      6  C   LIG    1       -1.381   4.885   4.626  0.00  0.00    +0.020 A 
ATOM      7  C   LIG    1       -0.821   4.482   3.434  0.00  0.00    +0.110 A 
ATOM      8  C   LIG    1       -1.030   3.181   2.970  0.00  0.00    -0.130 A 
ATOM      9  C   LIG    1       -1.813   2.295   3.715  0.00  0.00    +0.070 A 
ATOM     10  C   LIG    1       -2.366   2.703   4.908  0.00  0.00    +0.020 A 
BRANCH   5  15
ATOM     11  C   LIG    1       -4.027   4.274   6.950  0.00  0.00    +0.200 A 
ATOM     12  N   LIG    1       -4.168   4.781   8.153  0.00  0.00    -0.480 NA
ATOM     13  C   LIG    1       -2.985   5.256   8.577  0.00  0.00    +0.170 A 
ATOM     14  C   LIG    1       -2.070   5.039   7.617  0.00  0.00    +0.140 A 
ATOM     15  N   LIG    1       -2.722   4.411   6.576  0.00  0.00    -0.410 N 
BRANCH  11  17
ATOM     16  C   LIG    1       -6.703   3.725   7.120  0.00  0.00    +0.150 C 
ATOM     17  S   LIG    1       -5.305   3.540   5.985  0.00  0.00    -0.020 S 
ENDBRANCH  11  17
ENDBRANCH   5  15
ENDBRANCH   1   8
BRANCH   2  18
ATOM     18  C   LIG    1       -0.308   1.206  -0.192  0.00  0.00    +0.390 C 
BRANCH  18  19
ATOM     19  C   LIG    1       -0.846   1.941  -1.393  0.00  0.00    -0.030 A 
ATOM     20  C   LIG    1       -1.878   2.848  -1.242  0.00  0.00    +0.030 A 
ATOM     21  C   LIG    1       -2.371   3.522  -2.344  0.00  0.00    +0.080 A 
ATOM     22  C   LIG    1       -1.833   3.288  -3.595  0.00  0.00    +0.030 A 
ATOM     23  C   LIG    1       -0.801   2.381  -3.745  0.00  0.00    +0.110 A 
ATOM     24  C   LIG    1       -0.303   1.711  -2.643  0.00  0.00    -0.040 A 
BRANCH  24  25
ATOM     25  N   LIG    1        0.806   0.744  -2.803  0.00  0.00    +0.030 N 
ATOM     26  O   LIG    1        1.181   0.085  -1.850  0.00  0.00    -0.160 OA
ATOM     27  O   LIG    1        1.343   0.607  -3.888  0.00  0.00    -0.160 OA
ENDBRANCH  24  25
ENDBRANCH  18  19
ENDBRANCH   2  18
TORSDOF 6
