REMARK  Name = ZINCrH000004jJOG.0
REMARK                            x       y       z     vdW  Elec       q    Type
REMARK                         _______ _______ _______ _____ _____    ______ ____
ROOT
ATOM      1  C   LIG    1        3.048   2.201  -1.815  0.00  0.00    +0.570 C 
ATOM      2  N   LIG    1        1.804   1.777  -1.514  0.00  0.00    -0.610 N 
ATOM      3  C   LIG    1        1.117   2.267  -0.311  0.00  0.00    +0.280 C 
ATOM      4  C   LIG    1       -0.248   2.830  -0.718  0.00  0.00    +0.040 C 
ATOM      5  C   LIG    1       -1.024   1.764  -1.495  0.00  0.00    -0.030 C 
ATOM      6  C   LIG    1       -0.255   1.396  -2.766  0.00  0.00    +0.030 C 
ATOM      7  C   LIG    1        1.110   0.817  -2.382  0.00  0.00    +0.280 C 
ATOM      8  O   LIG    1        3.571   3.073  -1.148  0.00  0.00    -0.540 OA
ENDROOT
BRANCH   1  12
ATOM      9  C   LIG    1        5.139   0.492  -5.091  0.00  0.00    +0.240 A 
ATOM     10  C   LIG    1        5.300   1.842  -4.793  0.00  0.00    -0.080 A 
ATOM     11  C   LIG    1        4.624   2.399  -3.731  0.00  0.00    +0.120 A 
ATOM     12  C   LIG    1        3.774   1.607  -2.953  0.00  0.00    -0.200 A 
ATOM     13  C   LIG    1        3.619   0.251  -3.252  0.00  0.00    +0.090 A 
ATOM     14  C   LIG    1        4.293  -0.299  -4.318  0.00  0.00    -0.080 A 
BRANCH   9  16
ATOM     15  C   LIG    1        6.613   0.786  -7.055  0.00  0.00    +0.280 C 
ATOM     16  N   LIG    1        5.823  -0.068  -6.165  0.00  0.00    -0.630 N 
ATOM     17  C   LIG    1        5.754  -1.511  -6.405  0.00  0.00    +0.280 C 
ENDBRANCH   9  16
ENDBRANCH   1  12
BRANCH   5  18
ATOM     18  C   LIG    1       -2.381   2.303  -1.867  0.00  0.00    +0.400 C 
ATOM     19  O   LIG    1       -2.531   3.491  -2.057  0.00  0.00    -0.420 OA
BRANCH  18  20
ATOM     20  C   LIG    1       -3.524   1.388  -2.001  0.00  0.00    -0.180 A 
ATOM     21  C   LIG    1       -3.355   0.015  -1.788  0.00  0.00    +0.080 A 
ATOM     22  C   LIG    1       -4.434  -0.837  -1.910  0.00  0.00    +0.080 A 
ATOM     23  C   LIG    1       -5.681  -0.337  -2.253  0.00  0.00    +0.060 A 
ATOM     24  C   LIG    1       -5.857   1.017  -2.470  0.00  0.00    +0.020 A 
ATOM     25  F   LIG    1       -4.273  -2.162  -1.701  0.00  0.00    -0.130 F 
ATOM     26  C   LIG    1       -4.788   1.885  -2.347  0.00  0.00    +0.150 A 
ATOM     27  F   LIG    1       -4.961   3.207  -2.560  0.00  0.00    -0.110 F 
ENDBRANCH  18  20
ENDBRANCH   5  18
TORSDOF 4
