REMARK  Name = ZINCrH00000No4B8.0
REMARK                            x       y       z     vdW  Elec       q    Type
REMARK                         _______ _______ _______ _____ _____    ______ ____
ROOT
ATOM      1  C   LIG    1       -1.342   3.567   2.100  0.00  0.00    +0.270 C 
ATOM      2  N   LIG    1       -1.752   2.345   1.404  0.00  0.00    -0.610 N 
ATOM      3  C   LIG    1       -2.514   1.432   2.038  0.00  0.00    +0.520 C 
ATOM      4  O   LIG    1       -2.853   0.420   1.463  0.00  0.00    -0.530 OA
ENDROOT
BRANCH   3   5
ATOM      5  C   LIG    1       -2.946   1.670   3.463  0.00  0.00    +0.050 C 
BRANCH   5   6
ATOM      6  C   LIG    1       -3.796   0.491   3.941  0.00  0.00    +0.290 C 
BRANCH   6   7
ATOM      7  N   LIG    1       -4.216   0.722   5.325  0.00  0.00    -0.730 N 
ATOM      8  H   LIG    1       -3.945   1.532   5.786  0.00  0.00    +0.400 HD
ATOM      9  C   LIG    1       -4.979  -0.190   5.960  0.00  0.00    +0.550 C 
ATOM     10  O   LIG    1       -5.319  -1.207   5.382  0.00  0.00    -0.540 OA
BRANCH   9  11
ATOM     11  C   LIG    1       -5.384   0.033   7.297  0.00  0.00    -0.090 C 
ATOM     12  C   LIG    1       -6.152  -0.885   7.935  0.00  0.00    +0.180 C 
BRANCH  12  13
ATOM     13  C   LIG    1       -6.558  -0.662   9.274  0.00  0.00    -0.020 A 
ATOM     14  C   LIG    1       -7.335  -1.507  10.039  0.00  0.00    +0.000 A 
ATOM     15  C   LIG    1       -7.483  -0.889  11.290  0.00  0.00    -0.060 A 
ATOM     16  C   LIG    1       -6.807   0.281  11.240  0.00  0.00    +0.200 A 
ATOM     17  O   LIG    1       -6.248   0.412  10.030  0.00  0.00    -0.170 OA
ENDBRANCH  12  13
ENDBRANCH   9  11
ENDBRANCH   6   7
ENDBRANCH   5   6
ENDBRANCH   3   5
BRANCH   2  18
ATOM     18  C   LIG    1       -1.332   2.114   0.020  0.00  0.00    +0.340 C 
BRANCH  18  19
ATOM     19  C   LIG    1       -0.017   1.378   0.010  0.00  0.00    -0.120 A 
ATOM     20  C   LIG    1        1.171   2.086   0.002  0.00  0.00    +0.020 A 
ATOM     21  C   LIG    1        2.377   1.411  -0.014  0.00  0.00    +0.000 A 
ATOM     22  C   LIG    1        2.396   0.029  -0.022  0.00  0.00    -0.060 A 
ATOM     23  C   LIG    1        1.208  -0.679  -0.014  0.00  0.00    +0.000 A 
ATOM     24  C   LIG    1        0.002  -0.004   0.002  0.00  0.00    +0.040 A 
BRANCH  22  25
ATOM     25  C   LIG    1        3.711  -0.707  -0.039  0.00  0.00    -0.030 C 
ATOM     26  C   LIG    1        3.817  -1.593   1.204  0.00  0.00    +0.040 C 
ATOM     27  C   LIG    1        4.860   0.303  -0.045  0.00  0.00    +0.040 C 
ATOM     28  C   LIG    1        3.791  -1.578  -1.294  0.00  0.00    +0.040 C 
ENDBRANCH  22  25
ENDBRANCH  18  19
ENDBRANCH   2  18
TORSDOF 8
