REMARK  Name = ZINCqH0000003Nt6.0
REMARK                            x       y       z     vdW  Elec       q    Type
REMARK                         _______ _______ _______ _____ _____    ______ ____
ROOT
ATOM      1  C   LIG    1        0.002  -0.004   0.006  0.00  0.00    +0.310 C 
ATOM      2  C   LIG    1       -0.125  -0.508  -1.433  0.00  0.00    +0.040 C 
ENDROOT
BRANCH   1   3
ATOM      3  N   LIG    1       -0.018   1.460   0.015  0.00  0.00    -0.740 N 
ATOM      4  H   LIG    1        0.816   1.956   0.013  0.00  0.00    +0.390 HD
ATOM      5  C   LIG    1       -1.194   2.119   0.019  0.00  0.00    +0.710 C 
ATOM      6  N   LIG    1       -1.214   3.462   0.128  0.00  0.00    -0.630 N 
ATOM      7  C   LIG    1       -2.488   4.185   0.244  0.00  0.00    +0.300 C 
ATOM      8  C   LIG    1       -2.546   5.266  -0.834  0.00  0.00    +0.000 C 
ATOM      9  C   LIG    1       -1.306   6.156  -0.727  0.00  0.00    +0.150 C 
ATOM     10  C   LIG    1       -0.049   5.313  -0.954  0.00  0.00    +0.030 C 
ATOM     11  C   LIG    1        0.037   4.232   0.128  0.00  0.00    +0.270 C 
ATOM     12  O   LIG    1       -2.237   1.501  -0.075  0.00  0.00    -0.590 OA
BRANCH   9  13
ATOM     13  O   LIG    1       -1.372   7.186  -1.716  0.00  0.00    -0.380 OA
BRANCH  13  14
ATOM     14  C   LIG    1       -2.028   8.376  -1.272  0.00  0.00    +0.160 C 
ATOM     15  C   LIG    1       -2.041   9.404  -2.405  0.00  0.00    +0.040 C 
ENDBRANCH  13  14
ENDBRANCH   9  13
ENDBRANCH   1   3
BRANCH   1  19
ATOM     16  C   LIG    1        3.687  -1.387   1.679  0.00  0.00    +0.110 A 
ATOM     17  C   LIG    1        3.674  -0.285   0.840  0.00  0.00    -0.030 A 
ATOM     18  C   LIG    1        2.481   0.156   0.296  0.00  0.00    +0.010 A 
ATOM     19  C   LIG    1        1.299  -0.493   0.597  0.00  0.00    -0.090 A 
ATOM     20  C   LIG    1        1.305  -1.593   1.434  0.00  0.00    -0.020 A 
ATOM     21  C   LIG    1        2.497  -2.044   1.978  0.00  0.00    +0.110 A 
BRANCH  16  22
ATOM     22  O   LIG    1        4.859  -1.825   2.211  0.00  0.00    -0.300 OA
BRANCH  22  24
ATOM     23  C   LIG    1        7.250  -1.737   2.549  0.00  0.00    +0.070 C 
ATOM     24  C   LIG    1        6.041  -1.101   1.860  0.00  0.00    +0.170 C 
ENDBRANCH  22  24
ENDBRANCH  16  22
BRANCH  21  25
ATOM     25  O   LIG    1        2.504  -3.126   2.802  0.00  0.00    -0.300 OA
BRANCH  25  26
ATOM     26  C   LIG    1        1.246  -3.750   3.064  0.00  0.00    +0.170 C 
ATOM     27  C   LIG    1        1.452  -4.939   4.004  0.00  0.00    +0.070 C 
ENDBRANCH  25  26
ENDBRANCH  21  25
ENDBRANCH   1  19
TORSDOF 8
