REMARK  Name = ZINCtV00001bB3fK.0
REMARK                            x       y       z     vdW  Elec       q    Type
REMARK                         _______ _______ _______ _____ _____    ______ ____
ROOT
ATOM      1  C   LIG    1       -0.773   3.099  -1.223  0.00  0.00    +0.480 C 
ATOM      2  O   LIG    1       -0.250   3.706  -0.319  0.00  0.00    -0.490 OA
ENDROOT
BRANCH   1   3
ATOM      3  C   LIG    1       -0.753   1.593  -1.232  0.00  0.00    +0.000 C 
ATOM      4  C   LIG    1       -0.013   1.086   0.008  0.00  0.00    +0.060 C 
ATOM      5  C   LIG    1       -0.729   1.579   1.267  0.00  0.00    +0.020 C 
ATOM      6  C   LIG    1       -2.164   1.050   1.278  0.00  0.00    +0.020 C 
ATOM      7  C   LIG    1       -2.904   1.556   0.038  0.00  0.00    +0.000 C 
ATOM      8  C   LIG    1       -2.188   1.063  -1.221  0.00  0.00    +0.060 C 
BRANCH   3  12
ATOM      9  C   LIG    1       -0.424   1.359  -6.220  0.00  0.00    +0.100 C 
ATOM     10  C   LIG    1        0.110   0.995  -4.858  0.00  0.00    -0.050 A 
ATOM     11  C   LIG    1       -0.540   1.436  -3.721  0.00  0.00    +0.050 A 
ATOM     12  C   LIG    1       -0.047   1.107  -2.471  0.00  0.00    -0.070 A 
ATOM     13  C   LIG    1        1.088   0.327  -2.359  0.00  0.00    +0.030 A 
ATOM     14  C   LIG    1        1.735  -0.120  -3.496  0.00  0.00    +0.050 A 
ATOM     15  C   LIG    1        1.246   0.214  -4.746  0.00  0.00    -0.090 A 
ATOM     16 BR   LIG    1        2.131  -0.396  -6.302  0.00  0.00    -0.040 Br
ENDBRANCH   3  12
ENDBRANCH   1   3
BRANCH   1  17
ATOM     17  O   LIG    1       -1.373   3.768  -2.221  0.00  0.00    -0.350 OA
BRANCH  17  18
ATOM     18  C   LIG    1       -1.354   5.218  -2.147  0.00  0.00    +0.370 C 
BRANCH  18  19
ATOM     19  C   LIG    1       -2.070   5.791  -3.343  0.00  0.00    +0.160 A 
ATOM     20  N   LIG    1       -3.337   6.069  -3.421  0.00  0.00    -0.360 NA
ATOM     21  O   LIG    1       -3.602   6.517  -4.517  0.00  0.00    +0.090 OA
ATOM     22  C   LIG    1       -2.495   6.570  -5.264  0.00  0.00    +0.190 A 
ATOM     23  N   LIG    1       -1.513   6.114  -4.524  0.00  0.00    -0.470 NA
BRANCH  22  24
ATOM     24  C   LIG    1       -2.394   7.064  -6.684  0.00  0.00    +0.130 C 
ATOM     25  C   LIG    1       -2.841   8.526  -6.749  0.00  0.00    +0.030 C 
ATOM     26  C   LIG    1       -2.738   9.028  -8.191  0.00  0.00    +0.020 C 
ATOM     27  C   LIG    1       -3.638   8.179  -9.091  0.00  0.00    +0.010 C 
ATOM     28  C   LIG    1       -3.192   6.717  -9.027  0.00  0.00    +0.020 C 
ATOM     29  C   LIG    1       -3.294   6.216  -7.585  0.00  0.00    +0.030 C 
ENDBRANCH  22  24
ENDBRANCH  18  19
ENDBRANCH  17  18
ENDBRANCH   1  17
TORSDOF 6
