REMARK  Name = ZINCqH0000008lv9.0
REMARK                            x       y       z     vdW  Elec       q    Type
REMARK                         _______ _______ _______ _____ _____    ______ ____
ROOT
ATOM      1  C   LIG    1       -4.499  -3.202   0.028  0.00  0.00    +0.060 C 
ENDROOT
BRANCH   1   4
ATOM      2  N   LIG    1       -5.120  -5.596   0.021  0.00  0.00    -0.730 N 
ATOM      3  H   LIG    1       -6.051  -5.322   0.031  0.00  0.00    +0.400 HD
ATOM      4  C   LIG    1       -4.145  -4.666   0.017  0.00  0.00    +0.510 C 
ATOM      5  O   LIG    1       -2.981  -5.008   0.004  0.00  0.00    -0.530 OA
BRANCH   2   7
ATOM      6  C   LIG    1       -4.547  -7.478  -1.432  0.00  0.00    +0.040 C 
ATOM      7  C   LIG    1       -4.776  -7.020   0.010  0.00  0.00    +0.290 C 
BRANCH   7   8
ATOM      8  C   LIG    1       -5.903  -7.814   0.617  0.00  0.00    -0.080 A 
ATOM      9  C   LIG    1       -7.190  -7.311   0.602  0.00  0.00    +0.020 A 
ATOM     10  C   LIG    1       -8.224  -8.040   1.159  0.00  0.00    +0.020 A 
ATOM     11  C   LIG    1       -7.972  -9.272   1.731  0.00  0.00    +0.020 A 
ATOM     12  C   LIG    1       -6.685  -9.777   1.748  0.00  0.00    +0.040 A 
ATOM     13  C   LIG    1       -5.651  -9.051   1.185  0.00  0.00    -0.030 A 
ATOM     14 CL   LIG    1       -4.036  -9.687   1.197  0.00  0.00    -0.060 Cl
ENDBRANCH   7   8
ENDBRANCH   2   7
ENDBRANCH   1   4
BRANCH   1  15
ATOM     15  C   LIG    1       -3.218  -2.366   0.020  0.00  0.00    +0.070 C 
BRANCH  15  16
ATOM     16  C   LIG    1       -3.578  -0.879   0.031  0.00  0.00    +0.120 C 
BRANCH  16  17
ATOM     17  C   LIG    1       -2.315  -0.057   0.024  0.00  0.00    +0.390 A 
ATOM     18  N   LIG    1       -1.175  -0.678   0.010  0.00  0.00    -0.510 NA
ATOM     19  C   LIG    1        0.002  -0.004   0.002  0.00  0.00    +0.150 A 
ATOM     20  C   LIG    1        1.228  -0.671  -0.013  0.00  0.00    +0.030 A 
ATOM     21  C   LIG    1        2.399   0.053  -0.020  0.00  0.00    +0.070 A 
ATOM     22  C   LIG    1        2.377   1.442  -0.011  0.00  0.00    -0.010 A 
ATOM     23  C   LIG    1        1.179   2.123   0.002  0.00  0.00    +0.100 A 
ATOM     24  C   LIG    1       -0.017   1.409   0.010  0.00  0.00    -0.200 A 
ATOM     25  C   LIG    1       -1.325   2.081   0.032  0.00  0.00    +0.550 A 
ATOM     26  O   LIG    1       -1.411   3.295   0.040  0.00  0.00    -0.510 OA
ATOM     27  N   LIG    1       -2.428   1.297   0.033  0.00  0.00    -0.650 N 
ATOM     28  H   LIG    1       -3.308   1.706   0.044  0.00  0.00    +0.420 HD
ENDBRANCH  16  17
ENDBRANCH  15  16
ENDBRANCH   1  15
TORSDOF 6
