REMARK  Name = ZINCrH00000tj142.0
REMARK                            x       y       z     vdW  Elec       q    Type
REMARK                         _______ _______ _______ _____ _____    ______ ____
ROOT
ATOM      1  N   LIG    1       -1.157  -0.883  -0.449  0.00  0.00    -0.680 N 
ATOM      2  H   LIG    1       -2.060  -0.573  -0.619  0.00  0.00    +0.430 HD
ENDROOT
BRANCH   1   4
ATOM      3  C   LIG    1       -0.162   1.331  -0.904  0.00  0.00    -0.040 A 
ATOM      4  C   LIG    1       -0.096  -0.010  -0.560  0.00  0.00    +0.340 A 
ATOM      5  O   LIG    1        1.203  -0.296  -0.355  0.00  0.00    -0.200 OA
ATOM      6  C   LIG    1        1.920   0.826  -0.564  0.00  0.00    +0.250 A 
ATOM      7  N   LIG    1        1.114   1.806  -0.892  0.00  0.00    -0.390 NA
BRANCH   6   8
ATOM      8  C   LIG    1        3.381   0.934  -0.442  0.00  0.00    -0.130 A 
ATOM      9  C   LIG    1        4.107   2.067  -0.652  0.00  0.00    +0.090 A 
ATOM     10  C   LIG    1        5.465   1.915  -0.475  0.00  0.00    +0.010 A 
ATOM     11  C   LIG    1        5.859   0.686  -0.126  0.00  0.00    -0.030 A 
ATOM     12  S   LIG    1        4.465  -0.377   0.006  0.00  0.00    +0.160 S 
ENDBRANCH   6   8
BRANCH   3  14
ATOM     13  N   LIG    1       -2.284   2.664  -1.465  0.00  0.00    -0.400 NA
ATOM     14  C   LIG    1       -1.345   2.074  -1.217  0.00  0.00    +0.300 C 
ENDBRANCH   3  14
ENDBRANCH   1   4
BRANCH   1  15
ATOM     15  C   LIG    1       -0.921  -2.279  -0.074  0.00  0.00    +0.260 C 
BRANCH  15  16
ATOM     16  C   LIG    1       -2.262  -2.985   0.133  0.00  0.00    +0.220 C 
BRANCH  16  17
ATOM     17  N   LIG    1       -2.985  -2.349   1.243  0.00  0.00    -0.520 NA
ATOM     18  C   LIG    1       -3.935  -1.344   0.745  0.00  0.00    +0.150 C 
ATOM     19  C   LIG    1       -4.707  -0.749   1.926  0.00  0.00    +0.220 C 
ATOM     20  O   LIG    1       -3.780  -0.199   2.866  0.00  0.00    -0.380 OA
ATOM     21  C   LIG    1       -2.840  -1.150   3.372  0.00  0.00    +0.220 C 
ATOM     22  C   LIG    1       -2.049  -1.749   2.205  0.00  0.00    +0.150 C 
ENDBRANCH  16  17
BRANCH  16  23
ATOM     23  C   LIG    1       -2.021  -4.437   0.459  0.00  0.00    -0.070 A 
ATOM     24  C   LIG    1       -1.568  -4.798   1.714  0.00  0.00    +0.030 A 
ATOM     25  C   LIG    1       -1.351  -6.130   2.014  0.00  0.00    +0.000 A 
ATOM     26  C   LIG    1       -1.577  -7.100   1.055  0.00  0.00    +0.010 A 
ATOM     27  C   LIG    1       -2.024  -6.738  -0.202  0.00  0.00    +0.000 A 
ATOM     28  C   LIG    1       -2.246  -5.407  -0.500  0.00  0.00    +0.010 A 
ENDBRANCH  16  23
ENDBRANCH  15  16
ENDBRANCH   1  15
TORSDOF 7
