REMARK  Name = ZINCtV00000m9NYp.0
REMARK                            x       y       z     vdW  Elec       q    Type
REMARK                         _______ _______ _______ _____ _____    ______ ____
ROOT
ATOM      1  C   LIG    1        7.553  -3.981   4.800  0.00  0.00    +0.020 C 
ATOM      2  C   LIG    1        8.279  -3.284   3.647  0.00  0.00    +0.290 C 
ENDROOT
BRANCH   2   3
ATOM      3  C   LIG    1        7.305  -2.417   2.891  0.00  0.00    -0.130 A 
ATOM      4  C   LIG    1        7.268  -1.055   3.126  0.00  0.00    +0.060 A 
ATOM      5  C   LIG    1        6.376  -0.258   2.435  0.00  0.00    -0.020 A 
ATOM      6  C   LIG    1        5.517  -0.825   1.504  0.00  0.00    +0.130 A 
ATOM      7  C   LIG    1        5.553  -2.193   1.275  0.00  0.00    -0.080 A 
ATOM      8  C   LIG    1        6.450  -2.985   1.965  0.00  0.00    +0.050 A 
BRANCH   6   9
ATOM      9  O   LIG    1        4.639  -0.043   0.823  0.00  0.00    -0.310 OA
BRANCH   9  10
ATOM     10  C   LIG    1        3.706  -0.708  -0.031  0.00  0.00    +0.210 C 
ATOM     11  C   LIG    1        4.356  -0.968  -1.392  0.00  0.00    +0.040 C 
BRANCH  10  12
ATOM     12  C   LIG    1        2.487   0.159  -0.214  0.00  0.00    -0.090 A 
ATOM     13  C   LIG    1        1.228  -0.412  -0.227  0.00  0.00    +0.010 A 
ATOM     14  C   LIG    1        0.110   0.383  -0.394  0.00  0.00    +0.010 A 
ATOM     15  C   LIG    1        0.250   1.749  -0.549  0.00  0.00    +0.010 A 
ATOM     16  C   LIG    1        1.509   2.321  -0.536  0.00  0.00    +0.000 A 
ATOM     17  C   LIG    1        2.627   1.525  -0.370  0.00  0.00    +0.040 A 
ENDBRANCH  10  12
ENDBRANCH   9  10
ENDBRANCH   6   9
ENDBRANCH   2   3
BRANCH   2  18
ATOM     18  N   LIG    1        8.839  -4.291   2.743  0.00  0.00    -0.740 N 
ATOM     19  H   LIG    1        8.342  -4.567   1.957  0.00  0.00    +0.400 HD
BRANCH  18  20
ATOM     20  C   LIG    1       10.099  -4.858   3.014  0.00  0.00    +0.070 A 
ATOM     21  C   LIG    1       10.896  -4.564   4.073  0.00  0.00    +0.140 A 
ATOM     22  N   LIG    1       12.017  -5.326   3.966  0.00  0.00    -0.380 N 
ATOM     23  N   LIG    1       11.898  -6.106   2.809  0.00  0.00    -0.270 NA
ATOM     24  C   LIG    1       13.148  -5.331   4.897  0.00  0.00    +0.350 C 
ATOM     25  C   LIG    1       10.751  -5.830   2.243  0.00  0.00    +0.050 A 
BRANCH  25  26
ATOM     26  C   LIG    1       10.221  -6.451   0.975  0.00  0.00    +0.070 C 
ATOM     27  C   LIG    1       10.149  -7.984   1.127  0.00  0.00    +0.020 C 
ATOM     28  C   LIG    1       10.549  -8.524  -0.268  0.00  0.00    +0.020 C 
ATOM     29  C   LIG    1       11.664  -7.542  -0.707  0.00  0.00    +0.010 C 
ATOM     30  C   LIG    1       11.184  -6.170  -0.191  0.00  0.00    +0.020 C 
ENDBRANCH  25  26
ENDBRANCH  18  20
ENDBRANCH   2  18
TORSDOF 7
