REMARK  Name = ZINCfA000000blSU.0
REMARK                            x       y       z     vdW  Elec       q    Type
REMARK                         _______ _______ _______ _____ _____    ______ ____
ROOT
ATOM      1  N   LIG    1        0.040   1.635   2.456  0.00  0.00    -0.510 N 
ATOM      2  H   LIG    1        0.959   2.050   2.407  0.00  0.00    +0.430 HD
ATOM      3  H   LIG    1        0.127   0.630   2.490  0.00  0.00    +0.420 HD
ENDROOT
BRANCH   1   4
ATOM      4  C   LIG    1       -0.647   2.108   3.665  0.00  0.00    +0.290 C 
ATOM      5  C   LIG    1       -1.988   1.385   3.805  0.00  0.00    +0.120 C 
BRANCH   4   6
ATOM      6  C   LIG    1        0.207   1.822   4.873  0.00  0.00    -0.050 A 
ATOM      7  N   LIG    1        0.433   2.656   5.832  0.00  0.00    -0.420 NA
ATOM      8  C   LIG    1        1.205   2.244   6.817  0.00  0.00    +0.240 A 
ATOM      9  C   LIG    1        1.655   0.993   6.683  0.00  0.00    +0.000 A 
ATOM     10  S   LIG    1        1.010   0.344   5.176  0.00  0.00    +0.140 S 
ENDBRANCH   4   6
ENDBRANCH   1   4
BRANCH   1  11
ATOM     11  C   LIG    1       -0.735   2.019   1.269  0.00  0.00    +0.270 C 
BRANCH  11  13
ATOM     12  C   LIG    1        0.002  -0.004   0.002  0.00  0.00    +0.050 C 
ATOM     13  C   LIG    1       -0.019   1.526   0.010  0.00  0.00    -0.010 C 
BRANCH  13  14
ATOM     14  C   LIG    1       -0.759   2.033  -1.229  0.00  0.00    +0.040 C 
BRANCH  14  15
ATOM     15  C   LIG    1        0.025   1.645  -2.485  0.00  0.00    +0.380 C 
ATOM     16  F   LIG    1        1.256   2.311  -2.490  0.00  0.00    -0.200 F 
ATOM     17  F   LIG    1       -0.706   2.008  -3.621  0.00  0.00    -0.200 F 
ENDBRANCH  14  15
ENDBRANCH  13  14
ENDBRANCH  11  13
ENDBRANCH   1  11
TORSDOF 6
