REMARK  Name = ZINCpe000000XafW.0
REMARK                            x       y       z     vdW  Elec       q    Type
REMARK                         _______ _______ _______ _____ _____    ______ ____
ROOT
ATOM      1  N   LIG    1        0.531   4.110   1.726  0.00  0.00    -0.510 NA
ATOM      2  C   LIG    1        1.665   3.186   1.591  0.00  0.00    +0.170 C 
ATOM      3  C   LIG    1        1.574   2.463   0.243  0.00  0.00    +0.300 C 
ATOM      4  N   LIG    1        0.246   1.839   0.136  0.00  0.00    -0.610 N 
ATOM      5  C   LIG    1       -0.938   2.675   0.387  0.00  0.00    +0.280 C 
ATOM      6  C   LIG    1        0.118   0.538  -0.189  0.00  0.00    +0.560 C 
ATOM      7  O   LIG    1        1.101  -0.116  -0.478  0.00  0.00    -0.530 OA
ATOM      8  C   LIG    1       -0.748   3.387   1.736  0.00  0.00    +0.190 C 
ENDROOT
BRANCH   6   9
ATOM      9  C   LIG    1       -1.218  -0.095  -0.194  0.00  0.00    -0.100 A 
ATOM     10  C   LIG    1       -1.403  -1.348   0.392  0.00  0.00    +0.060 A 
ATOM     11  C   LIG    1       -2.653  -1.931   0.390  0.00  0.00    +0.050 A 
ATOM     12  C   LIG    1       -3.722  -1.283  -0.201  0.00  0.00    +0.010 A 
ATOM     13  C   LIG    1       -3.546  -0.041  -0.791  0.00  0.00    +0.100 A 
ATOM     14  F   LIG    1       -4.594   0.587  -1.367  0.00  0.00    -0.130 F 
ATOM     15  C   LIG    1       -2.300   0.556  -0.790  0.00  0.00    +0.020 A 
ENDBRANCH   6   9
BRANCH   1  17
ATOM     16  C   LIG    1        0.602   4.064   4.173  0.00  0.00    +0.020 C 
ATOM     17  C   LIG    1        0.673   4.946   2.925  0.00  0.00    +0.180 C 
BRANCH  17  18
ATOM     18  C   LIG    1       -0.440   5.962   2.964  0.00  0.00    +0.530 C 
ATOM     19  N   LIG    1       -0.478   6.882   3.948  0.00  0.00    -0.620 N 
ATOM     20  C   LIG    1        0.610   6.983   4.933  0.00  0.00    +0.250 C 
ATOM     21  C   LIG    1        1.057   8.452   5.004  0.00  0.00    +0.220 C 
ATOM     22  O   LIG    1       -0.086   9.280   5.233  0.00  0.00    -0.380 OA
ATOM     23  C   LIG    1       -1.059   9.237   4.188  0.00  0.00    +0.220 C 
ATOM     24  C   LIG    1       -1.612   7.812   4.072  0.00  0.00    +0.260 C 
ATOM     25  O   LIG    1       -1.301   5.951   2.110  0.00  0.00    -0.520 OA
ENDBRANCH  17  18
ENDBRANCH   1  17
TORSDOF 3
