REMARK  Name = ZINCpe000000Zt26.0
REMARK                            x       y       z     vdW  Elec       q    Type
REMARK                         _______ _______ _______ _____ _____    ______ ____
ROOT
ATOM      1  C   LIG    1        2.491   1.310  -0.009  0.00  0.00    +0.230 C 
ATOM      2  C   LIG    1        3.500   2.478  -0.044  0.00  0.00    +0.050 C 
ATOM      3  C   LIG    1        2.659   3.650  -0.615  0.00  0.00    +0.040 C 
ATOM      4  C   LIG    1        1.269   3.367   0.009  0.00  0.00    +0.260 C 
ATOM      5  N   LIG    1        1.143   1.898   0.001  0.00  0.00    -0.610 N 
ATOM      6  C   LIG    1       -0.014   1.209   0.009  0.00  0.00    +0.540 C 
ATOM      7  O   LIG    1        0.002  -0.004   0.002  0.00  0.00    -0.510 OA
ENDROOT
BRANCH   1   9
ATOM      8  O   LIG    1        1.813   0.394   2.058  0.00  0.00    -0.500 OA
ATOM      9  C   LIG    1        2.700   0.486   1.236  0.00  0.00    +0.540 C 
ATOM     10  N   LIG    1        3.873  -0.148   1.435  0.00  0.00    -0.650 N 
ATOM     11  C   LIG    1        5.141  -0.284   0.703  0.00  0.00    +0.300 C 
ATOM     12  C   LIG    1        5.833  -0.510   2.057  0.00  0.00    +0.260 C 
ATOM     13  C   LIG    1        4.444  -1.013   2.477  0.00  0.00    +0.300 C 
BRANCH  12  14
ATOM     14  N   LIG    1        6.867  -1.548   2.038  0.00  0.00    -0.280 N 
ATOM     15  C   LIG    1        7.121  -2.396   1.015  0.00  0.00    +0.140 A 
ATOM     16  C   LIG    1        8.149  -3.178   1.419  0.00  0.00    +0.150 A 
ATOM     17  N   LIG    1        8.464  -2.780   2.657  0.00  0.00    -0.270 NA
ATOM     18  N   LIG    1        7.686  -1.813   2.995  0.00  0.00    -0.080 NA
ENDBRANCH  12  14
ENDBRANCH   1   9
BRANCH   6  19
ATOM     19  C   LIG    1       -1.330   1.944   0.019  0.00  0.00    +0.110 C 
BRANCH  19  20
ATOM     20  C   LIG    1       -2.462   0.950   0.019  0.00  0.00    -0.070 A 
ATOM     21  C   LIG    1       -2.990   0.504  -1.178  0.00  0.00    +0.010 A 
ATOM     22  C   LIG    1       -4.025  -0.412  -1.178  0.00  0.00    +0.000 A 
ATOM     23  C   LIG    1       -4.539  -0.875   0.019  0.00  0.00    +0.000 A 
ATOM     24  C   LIG    1       -4.014  -0.425   1.216  0.00  0.00    +0.000 A 
ATOM     25  C   LIG    1       -2.975   0.487   1.216  0.00  0.00    +0.020 A 
ENDBRANCH  19  20
ENDBRANCH   6  19
TORSDOF 4
