REMARK  Name = ZINCqH0000034E4k.2
REMARK                            x       y       z     vdW  Elec       q    Type
REMARK                         _______ _______ _______ _____ _____    ______ ____
ROOT
ATOM      1  C   LIG    1        0.258   1.566  -0.281  0.00  0.00    -0.200 A 
ATOM      2  C   LIG    1       -0.480   2.594   0.190  0.00  0.00    +0.240 A 
ATOM      3  N   LIG    1        0.188   3.739  -0.067  0.00  0.00    -0.470 N 
ATOM      4  H   LIG    1       -0.108   4.634   0.161  0.00  0.00    +0.440 HD
ATOM      5  N   LIG    1        1.382   3.410  -0.720  0.00  0.00    -0.270 NA
ATOM      6  C   LIG    1        1.432   2.101  -0.846  0.00  0.00    +0.130 A 
ENDROOT
BRANCH   6   7
ATOM      7  C   LIG    1        2.530   1.326  -1.475  0.00  0.00    -0.070 A 
ATOM      8  C   LIG    1        3.162   0.304  -0.766  0.00  0.00    +0.150 A 
ATOM      9  C   LIG    1        4.181  -0.417  -1.359  0.00  0.00    -0.020 A 
ATOM     10  C   LIG    1        4.582  -0.121  -2.650  0.00  0.00    +0.100 A 
ATOM     11  C   LIG    1        3.963   0.894  -3.356  0.00  0.00    -0.010 A 
ATOM     12  F   LIG    1        2.776   0.017   0.496  0.00  0.00    -0.120 F 
ATOM     13  C   LIG    1        2.939   1.620  -2.776  0.00  0.00    +0.160 A 
ATOM     14  F   LIG    1        2.336   2.611  -3.468  0.00  0.00    -0.120 F 
ENDBRANCH   6   7
BRANCH   1  15
ATOM     15  C   LIG    1       -0.106   0.105  -0.209  0.00  0.00    +0.270 C 
BRANCH  15  17
ATOM     16  C   LIG    1       -1.813   0.172  -1.925  0.00  0.00    +0.190 C 
ATOM     17  N   LIG    1       -0.501  -0.367  -1.543  0.00  0.00    -0.530 NA
BRANCH  17  18
ATOM     18  C   LIG    1       -0.497  -1.835  -1.604  0.00  0.00    +0.240 C 
BRANCH  18  19
ATOM     19  C   LIG    1       -0.664  -2.278  -3.035  0.00  0.00    -0.070 A 
ATOM     20  C   LIG    1       -1.930  -2.496  -3.546  0.00  0.00    +0.040 A 
ATOM     21  C   LIG    1       -2.088  -2.898  -4.859  0.00  0.00    +0.040 A 
ATOM     22  C   LIG    1       -0.978  -3.094  -5.663  0.00  0.00    +0.030 A 
ATOM     23  O   LIG    1       -0.861  -3.486  -6.965  0.00  0.00    -0.310 OA
ATOM     24  C   LIG    1        0.509  -3.905  -7.119  0.00  0.00    +0.420 C 
ATOM     25  O   LIG    1        1.214  -3.139  -6.125  0.00  0.00    -0.310 OA
ATOM     26  C   LIG    1        0.298  -2.880  -5.146  0.00  0.00    +0.030 A 
ATOM     27  C   LIG    1        0.449  -2.472  -3.832  0.00  0.00    +0.050 A 
ENDBRANCH  18  19
ENDBRANCH  17  18
ENDBRANCH  15  17
ENDBRANCH   1  15
TORSDOF 5
