REMARK  Name = ZINCnE000001TCsR.0
REMARK                            x       y       z     vdW  Elec       q    Type
REMARK                         _______ _______ _______ _____ _____    ______ ____
ROOT
ATOM      1  C   LIG    1       -2.598  -0.204  -0.026  0.00  0.00    -0.020 A 
ATOM      2  C   LIG    1       -2.870   0.897   0.784  0.00  0.00    +0.100 A 
ATOM      3  C   LIG    1       -4.127   1.468   0.770  0.00  0.00    -0.020 A 
ATOM      4  C   LIG    1       -5.115   0.949  -0.047  0.00  0.00    +0.010 A 
ATOM      5  C   LIG    1       -4.852  -0.144  -0.853  0.00  0.00    -0.110 A 
ATOM      6  C   LIG    1       -3.598  -0.720  -0.851  0.00  0.00    +0.020 A 
ENDROOT
BRANCH   1  13
ATOM      7  C   LIG    1       -0.709  -1.316   1.186  0.00  0.00    -0.100 A 
ATOM      8  C   LIG    1        0.564  -1.889   1.182  0.00  0.00    +0.020 A 
ATOM      9  C   LIG    1        1.277  -1.978   0.002  0.00  0.00    +0.080 A 
ATOM     10  C   LIG    1        0.740  -1.489  -1.180  0.00  0.00    -0.030 A 
ATOM     11  C   LIG    1       -0.515  -0.914  -1.193  0.00  0.00    +0.030 A 
ATOM     12  F   LIG    1        2.506  -2.538  -0.001  0.00  0.00    -0.150 F 
ATOM     13  C   LIG    1       -1.251  -0.821  -0.016  0.00  0.00    -0.030 A 
BRANCH   7  15
ATOM     14  O   LIG    1       -0.952  -1.528   3.502  0.00  0.00    -0.680 OA
ATOM     15  C   LIG    1       -1.476  -1.224   2.439  0.00  0.00    +0.520 C 
ATOM     16  O   LIG    1       -2.637  -0.838   2.419  0.00  0.00    -0.660 OA
ENDBRANCH   7  15
ENDBRANCH   1  13
BRANCH   5  17
ATOM     17  C   LIG    1       -5.934  -0.703  -1.740  0.00  0.00    +0.220 C 
BRANCH  17  18
ATOM     18  O   LIG    1       -5.890  -0.054  -3.012  0.00  0.00    -0.370 OA
BRANCH  18  19
ATOM     19  C   LIG    1       -6.881  -0.513  -3.934  0.00  0.00    +0.130 C 
ATOM     20  C   LIG    1       -6.405  -0.302  -5.392  0.00  0.00    +0.030 C 
ATOM     21  C   LIG    1       -7.702   0.181  -6.090  0.00  0.00    +0.210 C 
ATOM     22  O   LIG    1       -8.336   1.006  -5.089  0.00  0.00    -0.370 OA
ATOM     23  C   LIG    1       -8.157   0.344  -3.825  0.00  0.00    +0.170 C 
ENDBRANCH  18  19
ENDBRANCH  17  18
ENDBRANCH   5  17
TORSDOF 5
