REMARK  Name = ZINCrD0000075DKx.1
REMARK                            x       y       z     vdW  Elec       q    Type
REMARK                         _______ _______ _______ _____ _____    ______ ____
ROOT
ATOM      1  C   LIG    1       -1.081  -0.289   0.960  0.00  0.00    +0.350 C 
ENDROOT
BRANCH   1   2
ATOM      2  C   LIG    1        0.395   0.012   0.922  0.00  0.00    +0.120 A 
ATOM      3  C   LIG    1        1.298  -0.961   1.296  0.00  0.00    -0.020 A 
ATOM      4  C   LIG    1        2.661  -0.672   1.257  0.00  0.00    +0.130 A 
ATOM      5  C   LIG    1        3.055   0.596   0.838  0.00  0.00    -0.020 A 
ATOM      6  C   LIG    1        2.089   1.515   0.480  0.00  0.00    +0.290 A 
ATOM      7  N   LIG    1        0.808   1.203   0.531  0.00  0.00    -0.470 NA
BRANCH   4   8
ATOM      8  O   LIG    1        3.580  -1.603   1.618  0.00  0.00    -0.250 OA
BRANCH   8   9
ATOM      9  C   LIG    1        3.879  -2.584   0.726  0.00  0.00    +0.130 A 
ATOM     10  C   LIG    1        3.345  -2.545  -0.554  0.00  0.00    -0.060 A 
ATOM     11  C   LIG    1        3.655  -3.540  -1.461  0.00  0.00    +0.070 A 
ATOM     12  C   LIG    1        4.487  -4.580  -1.091  0.00  0.00    +0.000 A 
ATOM     13  C   LIG    1        5.017  -4.624   0.187  0.00  0.00    +0.000 A 
ATOM     14 CL   LIG    1        6.063  -5.931   0.647  0.00  0.00    -0.050 Cl
ATOM     15  C   LIG    1        4.715  -3.628   1.096  0.00  0.00    +0.020 A 
ENDBRANCH   8   9
ENDBRANCH   4   8
ENDBRANCH   1   2
BRANCH   1  18
ATOM     16  O   LIG    1       -3.655  -0.603   1.708  0.00  0.00    -0.520 OA
ATOM     17  C   LIG    1       -2.952   0.007   2.492  0.00  0.00    +0.590 C 
ATOM     18  N   LIG    1       -1.640   0.172   2.234  0.00  0.00    -0.730 N 
ATOM     19  H   LIG    1       -1.066   0.595   2.891  0.00  0.00    +0.400 HD
BRANCH  17  20
ATOM     20  C   LIG    1       -3.534   0.563   3.719  0.00  0.00    -0.060 A 
ATOM     21  C   LIG    1       -4.827   0.379   4.166  0.00  0.00    +0.050 A 
ATOM     22  C   LIG    1       -4.950   1.079   5.372  0.00  0.00    -0.050 A 
ATOM     23  C   LIG    1       -3.766   1.670   5.629  0.00  0.00    +0.050 A 
ATOM     24  C   LIG    1       -3.402   2.536   6.813  0.00  0.00    +0.290 C 
ATOM     25  N   LIG    1       -1.934   2.638   6.870  0.00  0.00    -0.690 NA
ATOM     26  H   LIG    1       -1.644   3.284   7.589  0.00  0.00    +0.360 HD
ATOM     27  C   LIG    1       -1.378   3.020   5.564  0.00  0.00    +0.190 C 
ATOM     28  C   LIG    1       -1.508   1.847   4.585  0.00  0.00    +0.270 C 
ATOM     29  N   LIG    1       -2.894   1.365   4.628  0.00  0.00    -0.420 N 
ENDBRANCH  17  20
ENDBRANCH   1  18
TORSDOF 5
