REMARK  Name = ZINCvU0000000ETP.0
REMARK                            x       y       z     vdW  Elec       q    Type
REMARK                         _______ _______ _______ _____ _____    ______ ____
ROOT
ATOM      1  N   LIG    1        1.215   1.904   2.731  0.00  0.00    -0.640 N 
ATOM      2  H   LIG    1        1.893   1.998   2.044  0.00  0.00    +0.410 HD
ATOM      3  C   LIG    1        1.565   1.520   3.975  0.00  0.00    +0.540 C 
ATOM      4  O   LIG    1        0.708   1.297   4.804  0.00  0.00    -0.470 OA
ENDROOT
BRANCH   1   9
ATOM      5  C   LIG    1       -3.652   3.225   3.057  0.00  0.00    +0.130 C 
ATOM      6  C   LIG    1       -2.315   2.752   2.546  0.00  0.00    -0.100 A 
ATOM      7  C   LIG    1       -2.029   2.358   1.294  0.00  0.00    +0.030 A 
ATOM      8  N   LIG    1       -0.709   1.999   1.224  0.00  0.00    -0.450 N 
ATOM      9  C   LIG    1       -0.115   2.163   2.433  0.00  0.00    +0.310 A 
ATOM     10  C   LIG    1       -3.006   2.316   0.148  0.00  0.00    +0.150 C 
ATOM     11  C   LIG    1       -1.072   2.637   3.319  0.00  0.00    -0.100 A 
BRANCH  11  12
ATOM     12  C   LIG    1       -0.886   2.952   4.703  0.00  0.00    +0.290 C 
ATOM     13  N   LIG    1       -0.738   3.201   5.802  0.00  0.00    -0.430 NA
ENDBRANCH  11  12
BRANCH   8  14
ATOM     14  C   LIG    1       -0.036   1.513   0.017  0.00  0.00    +0.420 C 
BRANCH  14  15
ATOM     15  C   LIG    1       -0.037   0.006   0.013  0.00  0.00    -0.060 A 
ATOM     16  C   LIG    1       -0.991  -0.779  -0.521  0.00  0.00    -0.020 A 
ATOM     17  C   LIG    1       -0.591  -2.117  -0.301  0.00  0.00    -0.070 A 
ATOM     18  C   LIG    1        0.582  -2.070   0.355  0.00  0.00    +0.190 A 
ATOM     19  O   LIG    1        0.915  -0.782   0.538  0.00  0.00    -0.170 OA
ENDBRANCH  14  15
ENDBRANCH   8  14
ENDBRANCH   1   9
BRANCH   3  20
ATOM     20  C   LIG    1        3.020   1.367   4.335  0.00  0.00    +0.080 C 
BRANCH  20  21
ATOM     21  S   LIG    1        3.162   0.844   6.062  0.00  0.00    +0.130 S 
BRANCH  21  22
ATOM     22  C   LIG    1        4.915   0.746   6.209  0.00  0.00    +0.040 A 
ATOM     23  N   LIG    1        5.559   0.404   7.283  0.00  0.00    -0.440 NA
ATOM     24  C   LIG    1        6.889   0.386   7.206  0.00  0.00    +0.120 A 
ATOM     25  C   LIG    1        7.400   0.729   6.011  0.00  0.00    -0.050 A 
ATOM     26  S   LIG    1        6.064   1.090   4.920  0.00  0.00    +0.080 S 
BRANCH  24  27
ATOM     27  C   LIG    1        7.746   0.014   8.358  0.00  0.00    -0.030 A 
ATOM     28  C   LIG    1        9.133   0.005   8.224  0.00  0.00    +0.020 A 
ATOM     29  C   LIG    1        9.925  -0.337   9.301  0.00  0.00    +0.010 A 
ATOM     30  C   LIG    1        9.344  -0.682  10.509  0.00  0.00    +0.020 A 
ATOM     31  C   LIG    1        7.968  -0.680  10.646  0.00  0.00    +0.010 A 
ATOM     32  C   LIG    1        7.166  -0.334   9.577  0.00  0.00    +0.050 A 
ENDBRANCH  24  27
ENDBRANCH  21  22
ENDBRANCH  20  21
ENDBRANCH   3  20
TORSDOF 8
