REMARK  Name = ZINCpe00000c4HQN.0
REMARK                            x       y       z     vdW  Elec       q    Type
REMARK                         _______ _______ _______ _____ _____    ______ ____
ROOT
ATOM      1  N   LIG    1       -4.052   7.746  -1.525  0.00  0.00    -0.390 N 
ATOM      2  C   LIG    1       -2.832   7.448  -0.741  0.00  0.00    +0.220 C 
ATOM      3  C   LIG    1       -3.765   6.715   0.233  0.00  0.00    +0.100 C 
ATOM      4  C   LIG    1       -4.296   7.605   1.355  0.00  0.00    +0.050 C 
ATOM      5  C   LIG    1       -3.197   7.784   2.409  0.00  0.00    +0.030 C 
ATOM      6  C   LIG    1       -2.721   6.404   2.872  0.00  0.00    +0.010 C 
ATOM      7  C   LIG    1       -2.198   5.616   1.669  0.00  0.00    +0.150 C 
ATOM      8  O   LIG    1       -3.243   5.475   0.702  0.00  0.00    -0.350 OA
ATOM      9  C   LIG    1       -4.737   6.569  -0.946  0.00  0.00    +0.240 C 
ENDROOT
BRANCH   1  14
ATOM     10  C   LIG    1       -4.662   7.540  -6.404  0.00  0.00    +0.240 C 
ATOM     11  C   LIG    1       -4.076   7.476  -5.016  0.00  0.00    +0.160 A 
ATOM     12  N   LIG    1       -2.857   7.141  -4.712  0.00  0.00    -0.280 NA
ATOM     13  N   LIG    1       -2.700   7.202  -3.437  0.00  0.00    -0.300 NA
ATOM     14  C   LIG    1       -3.826   7.572  -2.878  0.00  0.00    +0.310 A 
ATOM     15  O   LIG    1       -4.720   7.758  -3.867  0.00  0.00    -0.220 OA
ENDBRANCH   1  14
BRANCH   7  16
ATOM     16  C   LIG    1       -1.737   4.231   2.127  0.00  0.00    +0.300 C 
BRANCH  16  17
ATOM     17  N   LIG    1       -1.128   3.521   1.000  0.00  0.00    -0.710 N 
ATOM     18  H   LIG    1       -1.071   3.949   0.131  0.00  0.00    +0.410 HD
ATOM     19  C   LIG    1       -0.646   2.274   1.170  0.00  0.00    +0.560 C 
ATOM     20  O   LIG    1       -0.717   1.740   2.256  0.00  0.00    -0.530 OA
BRANCH  19  21
ATOM     21  C   LIG    1       -0.019   1.544   0.011  0.00  0.00    +0.030 C 
ATOM     22  C   LIG    1        1.524   1.343  -0.005  0.00  0.00    +0.060 C 
ATOM     23  C   LIG    1        1.121   0.251  -1.044  0.00  0.00    -0.030 C 
ATOM     24  C   LIG    1        0.325   1.001  -2.167  0.00  0.00    +0.230 C 
ATOM     25  C   LIG    1        0.002  -0.004   0.002  0.00  0.00    +0.050 C 
ATOM     26  O   LIG    1       -0.463   1.898  -1.335  0.00  0.00    -0.350 OA
ENDBRANCH  19  21
ENDBRANCH  16  17
ENDBRANCH   7  16
TORSDOF 4
