REMARK  Name = ZINCrH00000No4OI.0
REMARK                            x       y       z     vdW  Elec       q    Type
REMARK                         _______ _______ _______ _____ _____    ______ ____
ROOT
ATOM      1  C   LIG    1        0.320  -4.440   0.098  0.00  0.00    +0.440 C 
ATOM      2  O   LIG    1        1.356  -4.952  -0.280  0.00  0.00    -0.470 OA
ENDROOT
BRANCH   1   3
ATOM      3  C   LIG    1       -0.700  -5.238   0.642  0.00  0.00    -0.260 C 
ATOM      4  C   LIG    1       -0.523  -6.630   0.748  0.00  0.00    +0.220 A 
ATOM      5  N   LIG    1       -1.408  -7.515   1.250  0.00  0.00    -0.600 N 
ATOM      6  H   LIG    1       -2.269  -7.223   1.587  0.00  0.00    +0.430 HD
ATOM      7  C   LIG    1       -1.055  -8.849   1.268  0.00  0.00    +0.120 A 
ATOM      8  C   LIG    1       -1.797  -9.945   1.732  0.00  0.00    +0.030 A 
ATOM      9  C   LIG    1       -1.277 -11.217   1.675  0.00  0.00    +0.070 A 
ATOM     10  C   LIG    1       -0.011 -11.444   1.161  0.00  0.00    +0.030 A 
ATOM     11  C   LIG    1        0.737 -10.380   0.699  0.00  0.00    +0.100 A 
ATOM     12  C   LIG    1        0.219  -9.097   0.753  0.00  0.00    -0.210 A 
ATOM     13  S   LIG    1        0.865  -7.525   0.268  0.00  0.00    +0.290 S 
BRANCH   3  14
ATOM     14  C   LIG    1       -1.920  -4.635   1.088  0.00  0.00    +0.260 C 
ATOM     15  N   LIG    1       -2.888  -4.157   1.442  0.00  0.00    -0.420 NA
ENDBRANCH   3  14
ENDBRANCH   1   3
BRANCH   1  17
ATOM     16  C   LIG    1       -0.612  -2.627  -1.314  0.00  0.00    +0.090 C 
ATOM     17  C   LIG    1        0.131  -2.950  -0.015  0.00  0.00    +0.000 C 
BRANCH  17  18
ATOM     18  S   LIG    1        1.747  -2.135  -0.027  0.00  0.00    +0.090 S 
BRANCH  18  19
ATOM     19  C   LIG    1        1.240  -0.448  -0.012  0.00  0.00    +0.200 A 
ATOM     20  N   LIG    1        0.002  -0.004   0.002  0.00  0.00    -0.330 NA
ATOM     21  N   LIG    1       -0.015   1.280   0.009  0.00  0.00    -0.030 NA
ATOM     22  N   LIG    1        1.187   1.744   0.000  0.00  0.00    -0.070 NA
ATOM     23  N   LIG    1        2.052   0.636  -0.014  0.00  0.00    -0.350 N 
BRANCH  23  24
ATOM     24  C   LIG    1        3.517   0.651  -0.028  0.00  0.00    +0.260 C 
ATOM     25  C   LIG    1        4.048   1.435   1.189  0.00  0.00    +0.030 C 
ATOM     26  C   LIG    1        5.291   2.183   0.646  0.00  0.00    +0.040 C 
ATOM     27  C   LIG    1        4.848   2.591  -0.781  0.00  0.00    +0.030 C 
ATOM     28  C   LIG    1        4.025   1.385  -1.281  0.00  0.00    +0.040 C 
ENDBRANCH  23  24
ENDBRANCH  18  19
ENDBRANCH  17  18
ENDBRANCH   1  17
TORSDOF 6
