REMARK  Name = ZINCFm0000000seo.0
REMARK                            x       y       z     vdW  Elec       q    Type
REMARK                         _______ _______ _______ _____ _____    ______ ____
ROOT
ATOM      1  C   LIG    1        1.957   2.806   0.394  0.00  0.00    +0.230 C 
ATOM      2  C   LIG    1        2.581   4.073  -0.229  0.00  0.00    +0.080 C 
ATOM      3  C   LIG    1        3.734   3.502  -1.096  0.00  0.00    +0.170 C 
ATOM      4  C   LIG    1        4.212   2.309  -0.231  0.00  0.00    +0.240 C 
ATOM      5  N   LIG    1        2.981   1.752   0.358  0.00  0.00    -0.590 N 
ATOM      6  C   LIG    1        2.821   0.486   0.793  0.00  0.00    +0.550 C 
ATOM      7  O   LIG    1        1.794   0.162   1.351  0.00  0.00    -0.510 OA
ENDROOT
BRANCH   1  10
ATOM      8  N   LIG    1       -0.303   3.207  -0.529  0.00  0.00    -0.720 N 
ATOM      9  H   LIG    1       -0.292   4.075  -0.096  0.00  0.00    +0.400 HD
ATOM     10  C   LIG    1        0.754   2.380  -0.408  0.00  0.00    +0.510 C 
ATOM     11  O   LIG    1        0.740   1.295  -0.949  0.00  0.00    -0.510 OA
BRANCH   8  12
ATOM     12  C   LIG    1       -1.470   2.795  -1.313  0.00  0.00    +0.320 C 
BRANCH  12  16
ATOM     13  C   LIG    1       -4.403   5.906  -1.247  0.00  0.00    +0.000 A 
ATOM     14  C   LIG    1       -3.429   5.882  -2.246  0.00  0.00    +0.030 A 
ATOM     15  C   LIG    1       -2.486   4.876  -2.262  0.00  0.00    +0.040 A 
ATOM     16  C   LIG    1       -2.503   3.892  -1.290  0.00  0.00    -0.110 A 
ATOM     17  C   LIG    1       -3.470   3.906  -0.299  0.00  0.00    +0.040 A 
ATOM     18  C   LIG    1       -4.415   4.910  -0.269  0.00  0.00    +0.030 A 
BRANCH  13  21
ATOM     19  C   LIG    1       -7.392   5.463  -0.901  0.00  0.00    +0.160 C 
ATOM     20  C   LIG    1       -6.750   6.816  -1.073  0.00  0.00    +0.080 A 
ATOM     21  C   LIG    1       -5.418   6.981  -1.224  0.00  0.00    -0.200 A 
ATOM     22  S   LIG    1       -5.105   8.708  -1.383  0.00  0.00    +0.140 S 
ATOM     23  C   LIG    1       -6.777   9.034  -1.242  0.00  0.00    +0.220 A 
ATOM     24  N   LIG    1       -7.438   7.935  -1.088  0.00  0.00    -0.470 NA
ENDBRANCH  13  21
ENDBRANCH  12  16
ENDBRANCH   8  12
ENDBRANCH   1  10
BRANCH   3  25
ATOM     25  O   LIG    1        4.776   4.465  -1.261  0.00  0.00    -0.550 OA
ATOM     26  H   LIG    1        5.519   4.153  -1.796  0.00  0.00    +0.390 HD
ENDBRANCH   3  25
BRANCH   6  27
ATOM     27  C   LIG    1        3.918  -0.526   0.585  0.00  0.00    +0.250 C 
BRANCH  27  28
ATOM     28  N   LIG    1        3.979  -1.424   1.741  0.00  0.00    -0.710 N 
ATOM     29  H   LIG    1        3.191  -1.562   2.290  0.00  0.00    +0.410 HD
ATOM     30  C   LIG    1        5.129  -2.058   2.042  0.00  0.00    +0.520 C 
ATOM     31  O   LIG    1        6.114  -1.885   1.356  0.00  0.00    -0.530 OA
BRANCH  30  32
ATOM     32  C   LIG    1        5.192  -2.981   3.231  0.00  0.00    +0.060 C 
BRANCH  32  33
ATOM     33  C   LIG    1        6.601  -3.567   3.348  0.00  0.00    +0.200 C 
BRANCH  33  34
ATOM     34  O   LIG    1        6.660  -4.443   4.476  0.00  0.00    -0.390 OA
BRANCH  34  35
ATOM     35  C   LIG    1        7.940  -5.046   4.676  0.00  0.00    +0.200 C 
BRANCH  35  36
ATOM     36  C   LIG    1        7.888  -5.958   5.904  0.00  0.00    +0.220 C 
BRANCH  36  37
ATOM     37  O   LIG    1        6.993  -7.043   5.653  0.00  0.00    -0.390 OA
BRANCH  37  38
ATOM     38  C   LIG    1        6.870  -7.960   6.743  0.00  0.00    +0.200 C 
BRANCH  38  39
ATOM     39  C   LIG    1        5.893  -9.074   6.364  0.00  0.00    +0.290 C 
BRANCH  39  40
ATOM     40  N   LIG    1        6.452  -9.861   5.257  0.00  0.00    -0.640 N 
ATOM     41  H   LIG    1        6.602  -9.260   4.460  0.00  0.00    +0.440 HD
ATOM     42  H   LIG    1        5.808 -10.596   5.007  0.00  0.00    +0.440 HD
ATOM     43  H   LIG    1        7.331 -10.266   5.542  0.00  0.00    +0.430 HD
ENDBRANCH  39  40
ENDBRANCH  38  39
ENDBRANCH  37  38
ENDBRANCH  36  37
ENDBRANCH  35  36
ENDBRANCH  34  35
ENDBRANCH  33  34
ENDBRANCH  32  33
ENDBRANCH  30  32
ENDBRANCH  27  28
BRANCH  27  44
ATOM     44  C   LIG    1        3.628  -1.340  -0.678  0.00  0.00    -0.070 C 
ATOM     45  C   LIG    1        2.284  -2.055  -0.527  0.00  0.00    +0.040 C 
ATOM     46  C   LIG    1        4.737  -2.375  -0.883  0.00  0.00    +0.030 C 
ATOM     47  C   LIG    1        3.575  -0.404  -1.887  0.00  0.00    +0.040 C 
ENDBRANCH  27  44
ENDBRANCH   6  27
TORSDOF 17
