REMARK  Name = ZINCvU0000000IKQ.0
REMARK                            x       y       z     vdW  Elec       q    Type
REMARK                         _______ _______ _______ _____ _____    ______ ____
ROOT
ATOM      1  N   LIG    1        8.720   6.393   0.032  0.00  0.00    -0.620 N 
ATOM      2  H   LIG    1        8.690   5.424  -0.013  0.00  0.00    +0.430 HD
ATOM      3  C   LIG    1        7.602   7.089   0.316  0.00  0.00    +0.520 C 
ATOM      4  O   LIG    1        7.639   8.300   0.372  0.00  0.00    -0.470 OA
ENDROOT
BRANCH   1   9
ATOM      5  C   LIG    1       12.840   9.724  -0.703  0.00  0.00    +0.150 C 
ATOM      6  C   LIG    1       11.837   8.612  -0.540  0.00  0.00    -0.240 A 
ATOM      7  C   LIG    1       12.090   7.297  -0.666  0.00  0.00    +0.110 A 
ATOM      8  N   LIG    1       11.050   6.497  -0.473  0.00  0.00    -0.490 NA
ATOM      9  C   LIG    1        9.916   7.062  -0.198  0.00  0.00    +0.270 A 
ATOM     10  S   LIG    1       10.129   8.810  -0.152  0.00  0.00    +0.220 S 
BRANCH   7  11
ATOM     11  C   LIG    1       13.440   6.777  -0.992  0.00  0.00    -0.000 A 
ATOM     12  C   LIG    1       14.567   7.330  -0.388  0.00  0.00    +0.030 A 
ATOM     13  C   LIG    1       15.822   6.843  -0.696  0.00  0.00    +0.030 A 
ATOM     14  C   LIG    1       15.961   5.806  -1.600  0.00  0.00    +0.040 A 
ATOM     15  C   LIG    1       14.845   5.252  -2.204  0.00  0.00    -0.040 A 
ATOM     16 CL   LIG    1       15.029   3.951  -3.339  0.00  0.00    -0.070 Cl
ATOM     17  C   LIG    1       13.585   5.729  -1.900  0.00  0.00    +0.060 A 
ENDBRANCH   7  11
ENDBRANCH   1   9
BRANCH   3  18
ATOM     18  C   LIG    1        6.305   6.363   0.565  0.00  0.00    +0.270 C 
BRANCH  18  19
ATOM     19  O   LIG    1        5.274   7.313   0.843  0.00  0.00    -0.290 OA
BRANCH  19  20
ATOM     20  C   LIG    1        4.031   6.819   1.092  0.00  0.00    +0.130 A 
ATOM     21  C   LIG    1        2.984   7.685   1.370  0.00  0.00    +0.010 A 
ATOM     22  C   LIG    1        1.722   7.184   1.623  0.00  0.00    +0.070 A 
ATOM     23  C   LIG    1        1.502   5.814   1.600  0.00  0.00    +0.060 A 
ATOM     24  C   LIG    1        2.551   4.948   1.328  0.00  0.00    +0.050 A 
ATOM     25  C   LIG    1        3.812   5.450   1.069  0.00  0.00    -0.060 A 
BRANCH  23  26
ATOM     26  O   LIG    1        0.260   5.321   1.850  0.00  0.00    -0.250 OA
BRANCH  26  27
ATOM     27  C   LIG    1       -0.661   5.381   0.856  0.00  0.00    +0.310 A 
ATOM     28  C   LIG    1       -1.909   4.799   1.038  0.00  0.00    -0.050 A 
ATOM     29  C   LIG    1       -2.842   4.872   0.018  0.00  0.00    +0.100 A 
ATOM     30  C   LIG    1       -2.487   5.518  -1.158  0.00  0.00    -0.070 A 
ATOM     31  C   LIG    1       -1.228   6.075  -1.270  0.00  0.00    +0.300 A 
ATOM     32  N   LIG    1       -0.362   5.993  -0.278  0.00  0.00    -0.530 NA
ENDBRANCH  26  27
ENDBRANCH  23  26
ENDBRANCH  19  20
ENDBRANCH  18  19
ENDBRANCH   3  18
TORSDOF 7
