REMARK  Name = ZINCrH000004mo3Y.0
REMARK                            x       y       z     vdW  Elec       q    Type
REMARK                         _______ _______ _______ _____ _____    ______ ____
ROOT
ATOM      1  C   LIG    1       -1.238  -2.778  -2.065  0.00  0.00    +0.350 C 
ATOM      2  C   LIG    1       -2.692  -3.058  -1.676  0.00  0.00    +0.040 C 
ENDROOT
BRANCH   1   3
ATOM      3  N   LIG    1       -0.579  -2.037  -0.987  0.00  0.00    -0.740 N 
ATOM      4  H   LIG    1       -0.065  -2.513  -0.315  0.00  0.00    +0.390 HD
ATOM      5  C   LIG    1       -0.686  -0.695  -0.928  0.00  0.00    +0.710 C 
ATOM      6  N   LIG    1        0.002  -0.004   0.002  0.00  0.00    -0.630 N 
ATOM      7  C   LIG    1        0.781  -0.706   1.031  0.00  0.00    +0.270 C 
ATOM      8  C   LIG    1        0.348  -0.197   2.410  0.00  0.00    +0.000 C 
ATOM      9  C   LIG    1        0.480   1.327   2.452  0.00  0.00    +0.130 C 
ATOM     10  C   LIG    1       -0.438   1.949   1.397  0.00  0.00    +0.040 C 
ATOM     11  C   LIG    1        0.082   1.835   3.839  0.00  0.00    +0.020 C 
ATOM     12  C   LIG    1       -0.014   1.465   0.007  0.00  0.00    +0.290 C 
ATOM     13  O   LIG    1       -1.403  -0.107  -1.715  0.00  0.00    -0.580 OA
BRANCH   9  14
ATOM     14  O   LIG    1        1.835   1.695   2.181  0.00  0.00    -0.560 OA
ATOM     15  H   LIG    1        2.474   1.335   2.811  0.00  0.00    +0.380 HD
ENDBRANCH   9  14
ENDBRANCH   1   3
BRANCH   1  19
ATOM     16  C   LIG    1        0.668  -6.271  -2.273  0.00  0.00    +0.140 A 
ATOM     17  N   LIG    1        0.441  -5.753  -3.446  0.00  0.00    -0.460 NA
ATOM     18  C   LIG    1       -0.189  -4.600  -3.478  0.00  0.00    +0.090 A 
ATOM     19  C   LIG    1       -0.519  -4.083  -2.291  0.00  0.00    -0.240 A 
ATOM     20  C   LIG    1       -0.515  -3.903  -4.774  0.00  0.00    +0.150 C 
ATOM     21  S   LIG    1        0.025  -5.194  -1.035  0.00  0.00    +0.080 S 
BRANCH  16  25
ATOM     22  C   LIG    1        2.642  -9.962  -1.546  0.00  0.00    +0.150 A 
ATOM     23  C   LIG    1        2.460  -9.519  -2.849  0.00  0.00    -0.010 A 
ATOM     24  C   LIG    1        1.820  -8.322  -3.089  0.00  0.00    +0.110 A 
ATOM     25  C   LIG    1        1.354  -7.555  -2.020  0.00  0.00    -0.070 A 
ATOM     26  C   LIG    1        1.543  -8.002  -0.711  0.00  0.00    +0.080 A 
ATOM     27  C   LIG    1        2.179  -9.202  -0.479  0.00  0.00    -0.070 A 
BRANCH  22  29
ATOM     28  C   LIG    1        3.426 -11.539   0.051  0.00  0.00    +0.240 C 
ATOM     29  O   LIG    1        3.273 -11.142  -1.314  0.00  0.00    -0.310 OA
ENDBRANCH  22  29
ENDBRANCH  16  25
ENDBRANCH   1  19
TORSDOF 5
