REMARK  Name = ZINCfA000001bHIE.2
REMARK                            x       y       z     vdW  Elec       q    Type
REMARK                         _______ _______ _______ _____ _____    ______ ____
ROOT
ATOM      1  N   LIG    1        2.475   4.459  -1.244  0.00  0.00    -0.370 N 
ATOM      2  H   LIG    1        1.687   4.923  -1.672  0.00  0.00    +0.430 HD
ENDROOT
BRANCH   1   3
ATOM      3  C   LIG    1        3.563   5.426  -1.044  0.00  0.00    +0.160 C 
ATOM      4  C   LIG    1        3.068   6.608  -0.185  0.00  0.00    +0.040 C 
ATOM      5  C   LIG    1        3.776   7.843  -0.793  0.00  0.00    +0.050 C 
ATOM      6  C   LIG    1        3.751   7.539  -2.312  0.00  0.00    +0.040 C 
ATOM      7  C   LIG    1        3.997   6.018  -2.397  0.00  0.00    +0.040 C 
ENDBRANCH   1   3
BRANCH   1   8
ATOM      8  C   LIG    1        2.939   3.375  -2.120  0.00  0.00    +0.280 C 
BRANCH   8  10
ATOM      9  C   LIG    1        1.472   2.191  -3.672  0.00  0.00    +0.150 C 
ATOM     10  C   LIG    1        1.789   2.451  -2.428  0.00  0.00    -0.110 C 
ENDBRANCH   8  10
ENDBRANCH   1   8
BRANCH   1  11
ATOM     11  C   LIG    1        2.071   3.902   0.053  0.00  0.00    +0.390 C 
BRANCH  11  12
ATOM     12  C   LIG    1        3.244   3.199   0.686  0.00  0.00    -0.060 A 
ATOM     13  N   LIG    1        4.154   3.775   1.398  0.00  0.00    -0.430 NA
ATOM     14  C   LIG    1        5.114   3.011   1.878  0.00  0.00    +0.220 A 
ATOM     15  C   LIG    1        5.011   1.719   1.550  0.00  0.00    -0.030 A 
ATOM     16  S   LIG    1        3.563   1.524   0.565  0.00  0.00    +0.190 S 
ENDBRANCH  11  12
ENDBRANCH   1  11
TORSDOF 5
