REMARK  Name = ZINCfA000001bHIE.1
REMARK                            x       y       z     vdW  Elec       q    Type
REMARK                         _______ _______ _______ _____ _____    ______ ____
ROOT
ATOM      1  N   LIG    1       -1.189   5.488  -1.434  0.00  0.00    -0.380 N 
ATOM      2  H   LIG    1       -0.254   5.328  -1.776  0.00  0.00    +0.430 HD
ENDROOT
BRANCH   1   3
ATOM      3  C   LIG    1       -1.533   6.907  -1.594  0.00  0.00    +0.160 C 
ATOM      4  C   LIG    1       -1.517   7.290  -3.088  0.00  0.00    +0.050 C 
ATOM      5  C   LIG    1       -0.939   8.728  -3.105  0.00  0.00    +0.050 C 
ATOM      6  C   LIG    1        0.146   8.673  -2.000  0.00  0.00    +0.040 C 
ATOM      7  C   LIG    1       -0.476   7.786  -0.902  0.00  0.00    +0.040 C 
ENDBRANCH   1   3
BRANCH   1   8
ATOM      8  C   LIG    1       -2.137   4.666  -2.199  0.00  0.00    +0.280 C 
BRANCH   8  10
ATOM      9  C   LIG    1       -4.455   5.331  -2.578  0.00  0.00    +0.140 C 
ATOM     10  C   LIG    1       -3.540   4.944  -1.724  0.00  0.00    -0.100 C 
ENDBRANCH   8  10
ENDBRANCH   1   8
BRANCH   1  11
ATOM     11  C   LIG    1       -1.261   5.124  -0.013  0.00  0.00    +0.390 C 
BRANCH  11  12
ATOM     12  C   LIG    1       -0.790   3.703   0.166  0.00  0.00    -0.060 A 
ATOM     13  N   LIG    1        0.431   3.352   0.392  0.00  0.00    -0.430 NA
ATOM     14  C   LIG    1        0.671   2.063   0.523  0.00  0.00    +0.220 A 
ATOM     15  C   LIG    1       -0.407   1.283   0.401  0.00  0.00    -0.020 A 
ATOM     16  S   LIG    1       -1.796   2.322   0.091  0.00  0.00    +0.190 S 
ENDBRANCH  11  12
ENDBRANCH   1  11
TORSDOF 5
