REMARK  Name = ZINCpe00000gMJ1w.1
REMARK                            x       y       z     vdW  Elec       q    Type
REMARK                         _______ _______ _______ _____ _____    ______ ____
ROOT
ATOM      1  N   LIG    1       -2.108   1.027  -6.396  0.00  0.00    -0.520 NA
ATOM      2  C   LIG    1       -0.782   1.448  -6.865  0.00  0.00    +0.170 C 
ATOM      3  C   LIG    1        0.296   0.829  -5.973  0.00  0.00    +0.070 C 
ATOM      4  C   LIG    1        0.078   1.284  -4.527  0.00  0.00    -0.010 C 
ATOM      5  C   LIG    1       -1.329   0.876  -4.079  0.00  0.00    +0.050 C 
ATOM      6  C   LIG    1       -2.360   1.493  -5.027  0.00  0.00    +0.190 C 
ENDROOT
BRANCH   4   7
ATOM      7  C   LIG    1        1.100   0.630  -3.633  0.00  0.00    +0.520 C 
ATOM      8  N   LIG    1        1.100   0.885  -2.310  0.00  0.00    -0.730 N 
ATOM      9  H   LIG    1        0.441   1.490  -1.933  0.00  0.00    +0.400 HD
ATOM     10  O   LIG    1        1.923  -0.125  -4.105  0.00  0.00    -0.530 OA
BRANCH   8  11
ATOM     11  C   LIG    1        2.094   0.250  -1.441  0.00  0.00    +0.390 C 
BRANCH  11  12
ATOM     12  C   LIG    1        1.878   0.699  -0.019  0.00  0.00    -0.040 A 
ATOM     13  C   LIG    1        1.087   0.093   0.885  0.00  0.00    -0.030 A 
ATOM     14  C   LIG    1        1.180   0.844   2.079  0.00  0.00    -0.070 A 
ATOM     15  C   LIG    1        2.022   1.864   1.834  0.00  0.00    +0.180 A 
ATOM     16  O   LIG    1        2.446   1.767   0.563  0.00  0.00    -0.170 OA
ENDBRANCH  11  12
ENDBRANCH   8  11
ENDBRANCH   4   7
BRANCH   1  18
ATOM     17  C   LIG    1       -3.379   2.991  -7.121  0.00  0.00    +0.020 C 
ATOM     18  C   LIG    1       -3.161   1.489  -7.311  0.00  0.00    +0.180 C 
BRANCH  18  19
ATOM     19  C   LIG    1       -4.442   0.753  -7.014  0.00  0.00    +0.530 C 
ATOM     20  N   LIG    1       -5.438   0.740  -7.923  0.00  0.00    -0.620 N 
ATOM     21  C   LIG    1       -5.343   1.529  -9.162  0.00  0.00    +0.250 C 
ATOM     22  C   LIG    1       -5.661   0.601 -10.346  0.00  0.00    +0.220 C 
ATOM     23  O   LIG    1       -6.907  -0.056 -10.105  0.00  0.00    -0.380 OA
ATOM     24  C   LIG    1       -6.909  -0.905  -8.956  0.00  0.00    +0.220 C 
ATOM     25  C   LIG    1       -6.654  -0.059  -7.703  0.00  0.00    +0.260 C 
ATOM     26  O   LIG    1       -4.578   0.173  -5.958  0.00  0.00    -0.520 OA
ENDBRANCH  18  19
ENDBRANCH   1  18
TORSDOF 5
