REMARK  Name = ZINCqH0000002apG.0
REMARK                            x       y       z     vdW  Elec       q    Type
REMARK                         _______ _______ _______ _____ _____    ______ ____
ROOT
ATOM      1  C   LIG    1        5.321   3.671  -2.886  0.00  0.00    +0.150 C 
ATOM      2  N   LIG    1        5.185   3.451  -1.639  0.00  0.00    -0.240 NA
ATOM      3  N   LIG    1        4.571   2.348  -1.053  0.00  0.00    -0.580 N 
ATOM      4  H   LIG    1        4.603   2.225  -0.091  0.00  0.00    +0.430 HD
ATOM      5  C   LIG    1        3.916   1.425  -1.859  0.00  0.00    +0.330 C 
ATOM      6  S   LIG    1        4.681   1.087  -3.423  0.00  0.00    -0.040 S 
ATOM      7  N   LIG    1        2.805   0.848  -1.491  0.00  0.00    -0.480 NA
ATOM      8  C   LIG    1        4.835   2.799  -4.005  0.00  0.00    +0.150 C 
ENDROOT
BRANCH   1  12
ATOM      9  C   LIG    1        7.355   7.233  -3.984  0.00  0.00    +0.160 A 
ATOM     10  C   LIG    1        7.170   6.927  -2.641  0.00  0.00    +0.010 A 
ATOM     11  C   LIG    1        6.510   5.772  -2.280  0.00  0.00    +0.080 A 
ATOM     12  C   LIG    1        6.027   4.908  -3.267  0.00  0.00    -0.060 A 
ATOM     13  C   LIG    1        6.221   5.217  -4.616  0.00  0.00    +0.050 A 
ATOM     14  C   LIG    1        6.876   6.376  -4.969  0.00  0.00    -0.020 A 
BRANCH   9  16
ATOM     15  C   LIG    1        9.026   8.875  -3.575  0.00  0.00    +0.510 C 
ATOM     16  N   LIG    1        8.025   8.405  -4.346  0.00  0.00    -0.680 N 
ATOM     17  H   LIG    1        7.769   8.881  -5.152  0.00  0.00    +0.410 HD
ATOM     18  O   LIG    1        9.410   8.231  -2.621  0.00  0.00    -0.510 OA
BRANCH  15  20
ATOM     19  C   LIG    1       10.768  10.495  -2.876  0.00  0.00    +0.050 C 
ATOM     20  C   LIG    1        9.669  10.199  -3.898  0.00  0.00    +0.060 C 
ENDBRANCH  15  20
ENDBRANCH   9  16
ENDBRANCH   1  12
BRANCH   7  21
ATOM     21  C   LIG    1        2.213   1.161  -0.188  0.00  0.00    +0.240 C 
BRANCH  21  22
ATOM     22  C   LIG    1        0.885   1.844  -0.391  0.00  0.00    -0.090 A 
ATOM     23  C   LIG    1       -0.272   1.093  -0.477  0.00  0.00    +0.070 A 
ATOM     24  C   LIG    1       -1.489   1.717  -0.669  0.00  0.00    -0.010 A 
ATOM     25  C   LIG    1       -1.552   3.097  -0.764  0.00  0.00    +0.100 A 
ATOM     26  C   LIG    1       -0.392   3.849  -0.677  0.00  0.00    -0.010 A 
ATOM     27  F   LIG    1       -2.742   3.709  -0.946  0.00  0.00    -0.140 F 
ATOM     28  C   LIG    1        0.825   3.222  -0.490  0.00  0.00    +0.050 A 
ENDBRANCH  21  22
ENDBRANCH   7  21
TORSDOF 5
