REMARK  Name = ZINCrg00000yFI54.0
REMARK                            x       y       z     vdW  Elec       q    Type
REMARK                         _______ _______ _______ _____ _____    ______ ____
ROOT
ATOM      1  C   LIG    1        4.661  -2.856  -0.654  0.00  0.00    +0.240 C 
ATOM      2  C   LIG    1        3.701  -2.386   0.451  0.00  0.00    +0.030 C 
ATOM      3  C   LIG    1        3.752  -0.996  -0.204  0.00  0.00    +0.240 C 
ATOM      4  C   LIG    1        4.100  -1.713  -1.520  0.00  0.00    +0.020 C 
ENDROOT
BRANCH   1   6
ATOM      5  C   LIG    1        6.608  -1.361  -0.015  0.00  0.00    +0.310 C 
ATOM      6  N   LIG    1        6.075  -2.693  -0.311  0.00  0.00    -0.580 N 
ATOM      7  C   LIG    1        6.887  -3.768  -0.269  0.00  0.00    +0.570 C 
ATOM      8  O   LIG    1        6.434  -4.878  -0.463  0.00  0.00    -0.520 OA
BRANCH   7   9
ATOM      9  C   LIG    1        8.335  -3.595   0.016  0.00  0.00    +0.130 A 
ATOM     10  C   LIG    1        9.193  -4.671  -0.073  0.00  0.00    -0.030 A 
ATOM     11  C   LIG    1       10.565  -4.461   0.207  0.00  0.00    +0.520 A 
ATOM     12  N   LIG    1       10.972  -3.220   0.548  0.00  0.00    -0.630 N 
ATOM     13  H   LIG    1       11.908  -3.055   0.744  0.00  0.00    +0.420 HD
ATOM     14  C   LIG    1       10.083  -2.210   0.618  0.00  0.00    +0.600 A 
ATOM     15  O   LIG    1       11.362  -5.382   0.141  0.00  0.00    -0.520 OA
ATOM     16  N   LIG    1        8.817  -2.389   0.357  0.00  0.00    -0.520 NA
ENDBRANCH   7   9
ENDBRANCH   1   6
BRANCH   3  17
ATOM     17  N   LIG    1        2.456  -0.312  -0.234  0.00  0.00    -0.720 N 
ATOM     18  H   LIG    1        1.635  -0.827  -0.189  0.00  0.00    +0.400 HD
ATOM     19  C   LIG    1        2.405   1.032  -0.323  0.00  0.00    +0.570 C 
ATOM     20  O   LIG    1        3.434   1.677  -0.379  0.00  0.00    -0.530 OA
BRANCH  19  21
ATOM     21  C   LIG    1        1.098   1.721  -0.352  0.00  0.00    -0.190 A 
ATOM     22  C   LIG    1       -0.091   0.994  -0.288  0.00  0.00    +0.300 A 
ATOM     23  N   LIG    1       -1.254   1.608  -0.320  0.00  0.00    -0.480 NA
ATOM     24  C   LIG    1       -1.355   2.926  -0.400  0.00  0.00    +0.140 A 
ATOM     25  C   LIG    1       -2.587   3.807  -0.442  0.00  0.00    +0.110 C 
ATOM     26  C   LIG    1       -2.095   5.167  -0.981  0.00  0.00    +0.050 C 
ATOM     27  C   LIG    1       -0.610   5.173  -0.560  0.00  0.00    +0.090 C 
ATOM     28  C   LIG    1       -0.220   3.715  -0.467  0.00  0.00    -0.160 A 
ATOM     29  C   LIG    1        1.028   3.116  -0.444  0.00  0.00    +0.150 A 
ENDBRANCH  19  21
ENDBRANCH   3  17
TORSDOF 4
