REMARK  Name = ZINCrg00000fSnym.0
REMARK                            x       y       z     vdW  Elec       q    Type
REMARK                         _______ _______ _______ _____ _____    ______ ____
ROOT
ATOM      1  C   LIG    1       -1.244  -2.314  -1.922  0.00  0.00    +0.520 C 
ATOM      2  N   LIG    1       -1.625  -1.139  -1.383  0.00  0.00    -0.600 N 
ATOM      3  O   LIG    1       -0.565  -3.085  -1.277  0.00  0.00    -0.530 OA
ENDROOT
BRANCH   1   4
ATOM      4  C   LIG    1       -1.661  -2.670  -3.326  0.00  0.00    +0.040 C 
BRANCH   4   5
ATOM      5  C   LIG    1       -1.100  -4.046  -3.691  0.00  0.00    +0.140 C 
BRANCH   5   8
ATOM      6  C   LIG    1        0.649  -3.498  -5.914  0.00  0.00    +0.160 C 
ATOM      7  C   LIG    1       -0.692  -4.144  -6.151  0.00  0.00    +0.230 A 
ATOM      8  C   LIG    1       -1.517  -4.402  -5.094  0.00  0.00    -0.290 A 
ATOM      9  C   LIG    1       -2.767  -5.000  -5.340  0.00  0.00    +0.540 A 
ATOM     10  N   LIG    1       -3.099  -5.301  -6.609  0.00  0.00    -0.370 N 
ATOM     11  N   LIG    1       -4.231  -5.886  -7.192  0.00  0.00    -0.490 N 
ATOM     12  H   LIG    1       -5.027  -6.195  -6.731  0.00  0.00    +0.460 HD
ATOM     13  C   LIG    1       -3.996  -5.937  -8.530  0.00  0.00    +0.650 A 
ATOM     14  N   LIG    1       -2.818  -5.429  -8.779  0.00  0.00    -0.510 NA
ATOM     15  C   LIG    1       -2.234  -5.027  -7.633  0.00  0.00    +0.540 A 
ATOM     16  O   LIG    1       -3.534  -5.241  -4.422  0.00  0.00    -0.530 OA
ATOM     17  N   LIG    1       -1.061  -4.464  -7.387  0.00  0.00    -0.510 NA
ENDBRANCH   5   8
ENDBRANCH   4   5
ENDBRANCH   1   4
BRANCH   2  18
ATOM     18  C   LIG    1       -2.445  -0.207  -2.162  0.00  0.00    +0.250 C 
BRANCH  18  19
ATOM     19  C   LIG    1       -1.536   0.680  -3.016  0.00  0.00    +0.180 C 
ATOM     20  C   LIG    1       -2.394   1.565  -3.923  0.00  0.00    +0.010 C 
BRANCH  19  21
ATOM     21  O   LIG    1       -0.737   1.503  -2.165  0.00  0.00    -0.550 OA
ATOM     22  H   LIG    1       -1.249   2.045  -1.548  0.00  0.00    +0.370 HD
ENDBRANCH  19  21
ENDBRANCH  18  19
ENDBRANCH   2  18
BRANCH   2  23
ATOM     23  C   LIG    1       -1.219  -0.792  -0.019  0.00  0.00    +0.340 C 
BRANCH  23  24
ATOM     24  C   LIG    1       -2.280  -1.246   0.951  0.00  0.00    -0.110 A 
ATOM     25  C   LIG    1       -2.217  -2.513   1.501  0.00  0.00    +0.030 A 
ATOM     26  C   LIG    1       -3.190  -2.929   2.391  0.00  0.00    +0.000 A 
ATOM     27  C   LIG    1       -4.226  -2.079   2.729  0.00  0.00    +0.000 A 
ATOM     28  C   LIG    1       -4.289  -0.812   2.179  0.00  0.00    +0.000 A 
ATOM     29  C   LIG    1       -3.316  -0.396   1.290  0.00  0.00    +0.010 A 
ENDBRANCH  23  24
ENDBRANCH   2  23
TORSDOF 8
