REMARK  Name = ZINCpk00000e1All.0
REMARK                            x       y       z     vdW  Elec       q    Type
REMARK                         _______ _______ _______ _____ _____    ______ ____
ROOT
ATOM      1  C   LIG    1       -1.250   3.152   0.373  0.00  0.00    +0.060 C 
ATOM      2  C   LIG    1       -2.560   3.873   0.048  0.00  0.00    +0.200 C 
ENDROOT
BRANCH   2   3
ATOM      3  C   LIG    1       -2.526   4.358  -1.379  0.00  0.00    +0.450 A 
ATOM      4  N   LIG    1       -3.485   3.986  -2.180  0.00  0.00    -0.560 NA
ATOM      5  C   LIG    1       -3.520   4.372  -3.470  0.00  0.00    +0.530 A 
ATOM      6  C   LIG    1       -2.442   5.250  -3.961  0.00  0.00    -0.210 A 
ATOM      7  C   LIG    1       -2.399   5.704  -5.277  0.00  0.00    +0.110 A 
ATOM      8  C   LIG    1       -1.365   6.522  -5.677  0.00  0.00    -0.020 A 
ATOM      9  C   LIG    1       -0.373   6.893  -4.781  0.00  0.00    +0.080 A 
ATOM     10  C   LIG    1       -0.403   6.451  -3.475  0.00  0.00    -0.020 A 
ATOM     11  C   LIG    1       -1.436   5.626  -3.052  0.00  0.00    +0.180 A 
ATOM     12  O   LIG    1       -4.420   4.012  -4.209  0.00  0.00    -0.480 OA
ATOM     13  N   LIG    1       -1.512   5.156  -1.756  0.00  0.00    -0.630 N 
ATOM     14  H   LIG    1       -0.829   5.403  -1.113  0.00  0.00    +0.420 HD
ENDBRANCH   2   3
BRANCH   2  15
ATOM     15  N   LIG    1       -3.686   2.946   0.223  0.00  0.00    -0.510 NA
ATOM     16  C   LIG    1       -3.551   2.185   1.472  0.00  0.00    +0.190 C 
ATOM     17  C   LIG    1       -4.658   1.130   1.550  0.00  0.00    +0.030 C 
ATOM     18  C   LIG    1       -6.022   1.825   1.498  0.00  0.00    +0.270 C 
ATOM     19  C   LIG    1       -6.117   2.649   0.211  0.00  0.00    +0.040 C 
ATOM     20  C   LIG    1       -4.968   3.659   0.172  0.00  0.00    +0.190 C 
BRANCH  18  21
ATOM     21  N   LIG    1       -7.085   0.817   1.514  0.00  0.00    -0.630 N 
ATOM     22  C   LIG    1       -8.136   0.703   2.536  0.00  0.00    +0.250 C 
ATOM     23  C   LIG    1       -8.974  -0.504   2.072  0.00  0.00    +0.250 C 
ATOM     24  N   LIG    1       -8.300  -0.948   0.843  0.00  0.00    -0.750 N 
ATOM     25  H   LIG    1       -8.572  -1.699   0.292  0.00  0.00    +0.430 HD
ATOM     26  C   LIG    1       -7.250  -0.151   0.604  0.00  0.00    +0.700 C 
ATOM     27  O   LIG    1       -6.514  -0.294  -0.354  0.00  0.00    -0.570 OA
ENDBRANCH  18  21
ENDBRANCH   2  15
TORSDOF 3
