REMARK  Name = ZINCvU0000000B6R.0
REMARK                            x       y       z     vdW  Elec       q    Type
REMARK                         _______ _______ _______ _____ _____    ______ ____
ROOT
ATOM      1  C   LIG    1        1.158  -0.945   0.024  0.00  0.00    +0.160 A 
ATOM      2  N   LIG    1        0.624  -2.101   0.350  0.00  0.00    -0.290 NA
ATOM      3  N   LIG    1       -0.634  -2.096   0.089  0.00  0.00    -0.260 NA
ATOM      4  C   LIG    1       -0.982  -0.934  -0.415  0.00  0.00    +0.230 A 
ATOM      5  N   LIG    1        0.154  -0.161  -0.468  0.00  0.00    -0.450 N 
ENDROOT
BRANCH   4   6
ATOM      6  C   LIG    1       -2.339  -0.534  -0.843  0.00  0.00    -0.070 A 
ATOM      7  C   LIG    1       -3.213  -1.470  -1.407  0.00  0.00    +0.120 A 
ATOM      8  C   LIG    1       -4.473  -1.044  -1.791  0.00  0.00    -0.010 A 
ATOM      9  C   LIG    1       -4.824   0.281  -1.607  0.00  0.00    +0.270 A 
ATOM     10  N   LIG    1       -3.980   1.142  -1.073  0.00  0.00    -0.470 NA
ATOM     11  C   LIG    1       -2.773   0.784  -0.686  0.00  0.00    +0.270 A 
ENDBRANCH   4   6
BRANCH   1  12
ATOM     12  S   LIG    1        2.851  -0.490   0.195  0.00  0.00    +0.050 S 
BRANCH  12  13
ATOM     13  C   LIG    1        3.518  -2.019   0.897  0.00  0.00    +0.000 C 
ATOM     14  C   LIG    1        3.392  -3.148  -0.128  0.00  0.00    +0.100 C 
BRANCH  13  15
ATOM     15  C   LIG    1        4.970  -1.819   1.248  0.00  0.00    +0.420 C 
ATOM     16  O   LIG    1        5.623  -0.977   0.671  0.00  0.00    -0.430 OA
BRANCH  15  20
ATOM     17  C   LIG    1        6.771  -4.204   4.259  0.00  0.00    -0.040 A 
ATOM     18  C   LIG    1        7.520  -3.244   3.602  0.00  0.00    +0.000 A 
ATOM     19  C   LIG    1        6.942  -2.464   2.622  0.00  0.00    +0.090 A 
ATOM     20  C   LIG    1        5.595  -2.647   2.293  0.00  0.00    -0.170 A 
ATOM     21  C   LIG    1        4.843  -3.616   2.966  0.00  0.00    +0.060 A 
ATOM     22  C   LIG    1        5.437  -4.390   3.939  0.00  0.00    +0.000 A 
BRANCH  17  24
ATOM     23  C   LIG    1        7.252  -4.363   6.687  0.00  0.00    +0.030 C 
ATOM     24  C   LIG    1        7.410  -5.050   5.329  0.00  0.00    +0.070 C 
ENDBRANCH  17  24
ENDBRANCH  15  20
ENDBRANCH  13  15
ENDBRANCH  12  13
ENDBRANCH   1  12
BRANCH   5  25
ATOM     25  C   LIG    1        0.265   1.216  -0.958  0.00  0.00    +0.360 C 
BRANCH  25  26
ATOM     26  C   LIG    1        0.444   1.204  -2.454  0.00  0.00    -0.120 A 
ATOM     27  C   LIG    1        1.705   1.042  -2.998  0.00  0.00    +0.040 A 
ATOM     28  C   LIG    1        1.868   1.026  -4.371  0.00  0.00    +0.010 A 
ATOM     29  C   LIG    1        0.773   1.183  -5.199  0.00  0.00    +0.030 A 
ATOM     30  C   LIG    1       -0.487   1.349  -4.655  0.00  0.00    +0.010 A 
ATOM     31  C   LIG    1       -0.651   1.360  -3.283  0.00  0.00    +0.030 A 
ENDBRANCH  25  26
ENDBRANCH   5  25
TORSDOF 8
