REMARK  Name = ZINCrD000000CrFq.0
REMARK                            x       y       z     vdW  Elec       q    Type
REMARK                         _______ _______ _______ _____ _____    ______ ____
ROOT
ATOM      1  C   LIG    1       -1.295   1.951   0.065  0.00  0.00    -0.100 A 
ATOM      2  C   LIG    1       -1.342   3.312   0.374  0.00  0.00    +0.080 A 
ATOM      3  C   LIG    1       -2.547   3.979   0.363  0.00  0.00    +0.030 A 
ATOM      4  C   LIG    1       -3.723   3.293   0.054  0.00  0.00    -0.100 A 
ATOM      5  C   LIG    1       -3.677   1.931  -0.249  0.00  0.00    +0.060 A 
ATOM      6  C   LIG    1       -2.471   1.265  -0.244  0.00  0.00    +0.090 A 
ENDROOT
BRANCH   4   7
ATOM      7  C   LIG    1       -5.018   4.009   0.048  0.00  0.00    +0.560 C 
ATOM      8  N   LIG    1       -5.092   5.264  -0.438  0.00  0.00    -0.610 N 
ATOM      9  C   LIG    1       -3.928   5.899  -1.077  0.00  0.00    +0.240 C 
ATOM     10  C   LIG    1       -4.376   6.466  -2.434  0.00  0.00    +0.220 C 
ATOM     11  O   LIG    1       -5.524   7.296  -2.239  0.00  0.00    -0.380 OA
ATOM     12  C   LIG    1       -6.666   6.604  -1.728  0.00  0.00    +0.220 C 
ATOM     13  C   LIG    1       -6.337   6.042  -0.341  0.00  0.00    +0.270 C 
ATOM     14  O   LIG    1       -6.015   3.466   0.481  0.00  0.00    -0.520 OA
ENDBRANCH   4   7
BRANCH   1  16
ATOM     15  O   LIG    1        0.040   0.051  -0.193  0.00  0.00    -0.490 OA
ATOM     16  C   LIG    1       -0.000   1.236   0.071  0.00  0.00    +0.510 C 
BRANCH  16  17
ATOM     17  O   LIG    1        1.135   1.899   0.363  0.00  0.00    -0.340 OA
BRANCH  17  18
ATOM     18  C   LIG    1        2.369   1.135   0.344  0.00  0.00    +0.240 C 
ATOM     19  C   LIG    1        3.350   1.737   1.348  0.00  0.00    +0.040 C 
ATOM     20  C   LIG    1        4.712   1.058   1.160  0.00  0.00    +0.030 C 
ATOM     21  C   LIG    1        5.298   1.516  -0.174  0.00  0.00    +0.070 C 
ATOM     22  C   LIG    1        4.295   1.334  -1.283  0.00  0.00    -0.060 A 
ATOM     23  C   LIG    1        4.766   1.344  -2.590  0.00  0.00    +0.010 A 
ATOM     24  C   LIG    1        3.898   1.187  -3.650  0.00  0.00    +0.020 A 
ATOM     25  C   LIG    1        2.547   1.019  -3.411  0.00  0.00    +0.000 A 
ATOM     26  C   LIG    1        2.076   1.007  -2.114  0.00  0.00    +0.010 A 
ATOM     27  C   LIG    1        2.949   1.163  -1.046  0.00  0.00    -0.100 A 
ENDBRANCH  17  18
ENDBRANCH  16  17
ENDBRANCH   1  16
TORSDOF 4
