REMARK  Name = ZINCnE00000gVyZk.0
REMARK                            x       y       z     vdW  Elec       q    Type
REMARK                         _______ _______ _______ _____ _____    ______ ____
ROOT
ATOM      1  N   LIG    1        0.002  -0.004   0.002  0.00  0.00    -0.730 N 
ATOM      2  H   LIG    1        0.849  -0.478  -0.009  0.00  0.00    +0.400 HD
ATOM      3  C   LIG    1       -0.016   1.344   0.009  0.00  0.00    +0.560 C 
ATOM      4  O   LIG    1       -1.078   1.938   0.018  0.00  0.00    -0.540 OA
ENDROOT
BRANCH   3   5
ATOM      5  C   LIG    1        1.244   2.094   0.001  0.00  0.00    -0.120 C 
ATOM      6  C   LIG    1        1.226   3.441   0.009  0.00  0.00    +0.150 C 
BRANCH   6   7
ATOM      7  C   LIG    1        2.491   4.195   0.001  0.00  0.00    -0.110 A 
ATOM      8  C   LIG    1        3.712   3.512  -0.009  0.00  0.00    +0.010 A 
ATOM      9  C   LIG    1        4.894   4.217  -0.023  0.00  0.00    +0.040 A 
ATOM     10  C   LIG    1        4.875   5.615  -0.014  0.00  0.00    -0.110 A 
ATOM     11  C   LIG    1        3.655   6.297   0.001  0.00  0.00    +0.040 A 
ATOM     12  C   LIG    1        2.472   5.593   0.009  0.00  0.00    +0.010 A 
BRANCH  10  13
ATOM     13  C   LIG    1        6.143   6.370  -0.022  0.00  0.00    +0.520 C 
ATOM     14  O   LIG    1        7.210   5.773  -0.036  0.00  0.00    -0.680 OA
ATOM     15  O   LIG    1        6.126   7.593  -0.016  0.00  0.00    -0.680 OA
ENDBRANCH  10  13
ENDBRANCH   6   7
ENDBRANCH   3   5
BRANCH   1  16
ATOM     16  C   LIG    1       -1.256  -0.754   0.010  0.00  0.00    +0.340 C 
BRANCH  16  17
ATOM     17  C   LIG    1       -1.035  -2.114  -0.600  0.00  0.00    +0.040 A 
ATOM     18  N   LIG    1       -1.815  -2.672  -1.462  0.00  0.00    -0.460 NA
ATOM     19  C   LIG    1       -1.473  -3.869  -1.896  0.00  0.00    +0.070 A 
ATOM     20  C   LIG    1       -0.341  -4.346  -1.370  0.00  0.00    -0.080 A 
ATOM     21  C   LIG    1       -2.291  -4.636  -2.903  0.00  0.00    +0.160 C 
ATOM     22  S   LIG    1        0.291  -3.137  -0.255  0.00  0.00    +0.130 S 
ENDBRANCH  16  17
BRANCH  16  24
ATOM     23  C   LIG    1       -2.089   0.460   2.029  0.00  0.00    +0.030 C 
ATOM     24  C   LIG    1       -1.745  -0.914   1.451  0.00  0.00    +0.020 C 
ENDBRANCH  16  24
ENDBRANCH   1  16
TORSDOF 6
