REMARK  Name = ZINCrH000004prcG.0
REMARK                            x       y       z     vdW  Elec       q    Type
REMARK                         _______ _______ _______ _____ _____    ______ ____
ROOT
ATOM      1  N   LIG    1        4.750   0.163  -0.626  0.00  0.00    -0.720 N 
ATOM      2  H   LIG    1        4.686   1.127  -0.535  0.00  0.00    +0.400 HD
ATOM      3  C   LIG    1        5.785  -0.384  -1.294  0.00  0.00    +0.560 C 
ATOM      4  O   LIG    1        5.865  -1.592  -1.407  0.00  0.00    -0.520 OA
ENDROOT
BRANCH   3   5
ATOM      5  C   LIG    1        6.823   0.484  -1.888  0.00  0.00    -0.100 A 
ATOM      6  C   LIG    1        6.731   1.871  -1.764  0.00  0.00    +0.020 A 
ATOM      7  C   LIG    1        7.704   2.680  -2.316  0.00  0.00    +0.050 A 
ATOM      8  C   LIG    1        8.767   2.121  -3.000  0.00  0.00    +0.000 A 
ATOM      9  C   LIG    1        8.865   0.741  -3.134  0.00  0.00    +0.180 A 
ATOM     10  C   LIG    1        7.896  -0.080  -2.579  0.00  0.00    +0.070 A 
BRANCH   9  11
ATOM     11  N   LIG    1        9.943   0.180  -3.828  0.00  0.00    -0.570 N 
ATOM     12  C   LIG    1       11.037   0.932  -4.463  0.00  0.00    +0.260 C 
ATOM     13  C   LIG    1       11.931  -0.165  -5.072  0.00  0.00    +0.260 C 
ATOM     14  O   LIG    1       11.255  -1.407  -4.721  0.00  0.00    -0.320 OA
ATOM     15  C   LIG    1       10.151  -1.130  -4.019  0.00  0.00    +0.640 C 
ATOM     16  O   LIG    1        9.402  -1.989  -3.595  0.00  0.00    -0.490 OA
ENDBRANCH   9  11
ENDBRANCH   3   5
BRANCH   1  18
ATOM     17  C   LIG    1        4.152  -1.119   1.369  0.00  0.00    +0.040 C 
ATOM     18  C   LIG    1        3.721  -0.698  -0.037  0.00  0.00    +0.300 C 
BRANCH  18  19
ATOM     19  C   LIG    1        2.419   0.058   0.043  0.00  0.00    -0.110 A 
ATOM     20  C   LIG    1        2.425   1.435   0.144  0.00  0.00    +0.040 A 
ATOM     21  C   LIG    1        1.230   2.129   0.217  0.00  0.00    -0.010 A 
ATOM     22  C   LIG    1        0.029   1.446   0.189  0.00  0.00    +0.050 A 
ATOM     23  C   LIG    1        0.018   0.068   0.088  0.00  0.00    -0.040 A 
ATOM     24  C   LIG    1        1.214  -0.630   0.014  0.00  0.00    +0.120 A 
BRANCH  24  25
ATOM     25  O   LIG    1        1.207  -1.985  -0.086  0.00  0.00    -0.320 OA
BRANCH  25  26
ATOM     26  C   LIG    1       -0.070  -2.627  -0.109  0.00  0.00    +0.590 C 
ATOM     27  F   LIG    1       -0.804  -2.165  -1.207  0.00  0.00    -0.200 F 
ATOM     28  F   LIG    1       -0.761  -2.333   1.071  0.00  0.00    -0.200 F 
ENDBRANCH  25  26
ENDBRANCH  24  25
ENDBRANCH  18  19
ENDBRANCH   1  18
TORSDOF 6
