REMARK  Name = ZINCrD00000hQ5np.0
REMARK                            x       y       z     vdW  Elec       q    Type
REMARK                         _______ _______ _______ _____ _____    ______ ____
ROOT
ATOM      1  N   LIG    1       -5.361   0.718  -0.837  0.00  0.00    -0.470 N 
ATOM      2  C   LIG    1       -4.672   1.025   0.304  0.00  0.00    +0.150 A 
ATOM      3  N   LIG    1       -5.349   0.544   1.308  0.00  0.00    -0.250 NA
ATOM      4  N   LIG    1       -6.409  -0.045   0.882  0.00  0.00    -0.320 NA
ATOM      5  C   LIG    1       -6.465   0.028  -0.427  0.00  0.00    +0.370 A 
ENDROOT
BRANCH   5   6
ATOM      6  N   LIG    1       -7.460  -0.492  -1.240  0.00  0.00    -0.440 N 
ATOM      7  C   LIG    1       -8.100   0.570  -2.037  0.00  0.00    +0.190 C 
ATOM      8  C   LIG    1       -9.611   0.527  -1.726  0.00  0.00    +0.020 C 
ATOM      9  C   LIG    1       -9.820  -0.920  -1.207  0.00  0.00    +0.010 C 
ATOM     10  C   LIG    1       -8.500  -1.170  -0.436  0.00  0.00    +0.230 C 
BRANCH   9  11
ATOM     11  C   LIG    1      -11.025  -0.996  -0.268  0.00  0.00    -0.060 C 
ATOM     12  C   LIG    1      -11.069  -2.374   0.395  0.00  0.00    +0.030 C 
ATOM     13  C   LIG    1      -12.310  -0.775  -1.069  0.00  0.00    +0.040 C 
ATOM     14  C   LIG    1      -10.903   0.085   0.808  0.00  0.00    +0.030 C 
ENDBRANCH   9  11
ENDBRANCH   5   6
BRANCH   1  15
ATOM     15  C   LIG    1       -4.990   1.056  -2.213  0.00  0.00    +0.310 C 
BRANCH  15  17
ATOM     16  C   LIG    1       -4.965  -1.344  -2.908  0.00  0.00    +0.040 C 
ATOM     17  C   LIG    1       -4.130  -0.066  -2.800  0.00  0.00    -0.040 C 
ATOM     18  C   LIG    1       -3.639   0.343  -4.190  0.00  0.00    +0.040 C 
ENDBRANCH  15  17
ENDBRANCH   1  15
BRANCH   2  19
ATOM     19  C   LIG    1       -3.373   1.784   0.385  0.00  0.00    +0.420 C 
BRANCH  19  20
ATOM     20  N   LIG    1       -2.252   0.843   0.315  0.00  0.00    -0.720 N 
ATOM     21  H   LIG    1       -2.422  -0.108   0.229  0.00  0.00    +0.410 HD
ATOM     22  C   LIG    1       -0.985   1.299   0.369  0.00  0.00    +0.610 C 
ATOM     23  O   LIG    1       -0.771   2.493   0.476  0.00  0.00    -0.510 OA
BRANCH  22  24
ATOM     24  C   LIG    1        0.137   0.357   0.299  0.00  0.00    -0.090 A 
ATOM     25  C   LIG    1        1.463   0.684   0.336  0.00  0.00    +0.050 A 
ATOM     26  C   LIG    1        2.178  -0.519   0.235  0.00  0.00    -0.070 A 
ATOM     27  C   LIG    1        1.269  -1.515   0.141  0.00  0.00    +0.210 A 
ATOM     28  O   LIG    1        0.041  -0.983   0.179  0.00  0.00    -0.170 OA
ENDBRANCH  22  24
ENDBRANCH  19  20
ENDBRANCH   2  19
TORSDOF 7
