REMARK  Name = ZINCvU0000000C3s.0
REMARK                            x       y       z     vdW  Elec       q    Type
REMARK                         _______ _______ _______ _____ _____    ______ ____
ROOT
ATOM      1  O   LIG    1        0.002  -0.004   0.002  0.00  0.00    -0.510 OA
ATOM      2  C   LIG    1       -0.014   1.213   0.009  0.00  0.00    +0.600 C 
ATOM      3  N   LIG    1       -1.191   1.871   0.018  0.00  0.00    -0.720 N 
ATOM      4  H   LIG    1       -1.204   2.841   0.023  0.00  0.00    +0.400 HD
ENDROOT
BRANCH   2   5
ATOM      5  C   LIG    1        1.244   1.963   0.001  0.00  0.00    -0.070 A 
ATOM      6  C   LIG    1        2.510   1.419  -0.014  0.00  0.00    +0.060 A 
ATOM      7  C   LIG    1        3.410   2.490  -0.018  0.00  0.00    -0.030 A 
ATOM      8  C   LIG    1        2.669   3.636  -0.005  0.00  0.00    +0.060 A 
ATOM      9  O   LIG    1        1.366   3.307   0.001  0.00  0.00    -0.160 OA
BRANCH   8  10
ATOM     10  C   LIG    1        3.209   5.011  -0.004  0.00  0.00    -0.020 A 
ATOM     11  C   LIG    1        4.590   5.221  -0.016  0.00  0.00    +0.080 A 
ATOM     12  C   LIG    1        5.088   6.508  -0.015  0.00  0.00    +0.040 A 
ATOM     13  C   LIG    1        4.223   7.588  -0.003  0.00  0.00    +0.090 A 
ATOM     14  C   LIG    1        2.854   7.386   0.010  0.00  0.00    -0.180 A 
ATOM     15  C   LIG    1        2.342   6.106   0.005  0.00  0.00    +0.090 A 
BRANCH  14  16
ATOM     16  C   LIG    1        1.920   8.569   0.024  0.00  0.00    +0.510 C 
ATOM     17  F   LIG    1        1.125   8.522   1.174  0.00  0.00    -0.170 F 
ATOM     18  F   LIG    1        1.102   8.530  -1.111  0.00  0.00    -0.170 F 
ATOM     19  F   LIG    1        2.666   9.752   0.021  0.00  0.00    -0.170 F 
ENDBRANCH  14  16
ENDBRANCH   8  10
ENDBRANCH   2   5
BRANCH   3  20
ATOM     20  C   LIG    1       -2.449   1.121   0.020  0.00  0.00    +0.340 C 
BRANCH  20  21
ATOM     21  C   LIG    1       -3.608   2.085   0.030  0.00  0.00    -0.080 A 
ATOM     22  C   LIG    1       -4.270   2.356   1.213  0.00  0.00    +0.030 A 
ATOM     23  C   LIG    1       -5.330   3.244   1.224  0.00  0.00    +0.020 A 
ATOM     24  C   LIG    1       -5.734   3.852   0.050  0.00  0.00    +0.020 A 
ATOM     25  C   LIG    1       -5.075   3.577  -1.134  0.00  0.00    +0.030 A 
ATOM     26  C   LIG    1       -4.012   2.693  -1.143  0.00  0.00    -0.100 A 
BRANCH  26  27
ATOM     27  C   LIG    1       -3.294   2.393  -2.434  0.00  0.00    +0.370 C 
BRANCH  27  28
ATOM     28  N   LIG    1       -3.855   1.180  -3.034  0.00  0.00    -0.370 N 
ATOM     29  C   LIG    1       -4.358   1.071  -4.282  0.00  0.00    +0.220 A 
ATOM     30  C   LIG    1       -4.769  -0.207  -4.450  0.00  0.00    -0.120 A 
ATOM     31  C   LIG    1       -4.518  -0.901  -3.261  0.00  0.00    +0.230 A 
ATOM     32  N   LIG    1       -3.970  -0.070  -2.412  0.00  0.00    -0.290 NA
ENDBRANCH  27  28
ENDBRANCH  26  27
ENDBRANCH  20  21
ENDBRANCH   3  20
TORSDOF 7
