REMARK  Name = ZINCqH0000001HSl.0
REMARK                            x       y       z     vdW  Elec       q    Type
REMARK                         _______ _______ _______ _____ _____    ______ ____
ROOT
ATOM      1  C   LIG    1       -5.092   8.518  -8.807  0.00  0.00    +0.250 C 
ATOM      2  C   LIG    1       -4.633   8.849  -7.379  0.00  0.00    +0.270 C 
ATOM      3  N   LIG    1       -3.350   8.172  -7.140  0.00  0.00    -0.550 N 
ATOM      4  C   LIG    1       -2.358   8.236  -8.132  0.00  0.00    +0.080 A 
ATOM      5  C   LIG    1       -1.046   7.914  -7.831  0.00  0.00    +0.050 A 
ATOM      6  C   LIG    1       -0.078   7.973  -8.817  0.00  0.00    -0.030 A 
ATOM      7  C   LIG    1       -0.417   8.346 -10.104  0.00  0.00    +0.020 A 
ATOM      8  C   LIG    1       -1.727   8.664 -10.415  0.00  0.00    -0.050 A 
ATOM      9  C   LIG    1       -2.702   8.609  -9.433  0.00  0.00    +0.180 A 
ATOM     10  C   LIG    1       -3.128   7.508  -5.989  0.00  0.00    +0.510 C 
ATOM     11  O   LIG    1       -2.041   7.015  -5.773  0.00  0.00    -0.510 OA
ATOM     12  N   LIG    1       -4.031   8.931  -9.738  0.00  0.00    -0.750 N 
ATOM     13  H   LIG    1       -4.248   9.418 -10.548  0.00  0.00    +0.400 HD
ENDROOT
BRANCH   1  15
ATOM     14  C   LIG    1       -6.504   6.606  -8.036  0.00  0.00    +0.020 C 
ATOM     15  C   LIG    1       -5.335   7.013  -8.935  0.00  0.00    -0.040 C 
ATOM     16  C   LIG    1       -5.667   6.673 -10.389  0.00  0.00    +0.020 C 
ENDBRANCH   1  15
BRANCH  10  17
ATOM     17  C   LIG    1       -4.230   7.378  -4.970  0.00  0.00    +0.060 C 
BRANCH  17  18
ATOM     18  C   LIG    1       -3.760   6.482  -3.822  0.00  0.00    +0.060 C 
BRANCH  18  19
ATOM     19  C   LIG    1       -4.879   6.350  -2.787  0.00  0.00    +0.190 C 
BRANCH  19  20
ATOM     20  C   LIG    1       -4.416   5.467  -1.656  0.00  0.00    +0.180 A 
ATOM     21  N   LIG    1       -3.807   5.855  -0.562  0.00  0.00    -0.470 NA
ATOM     22  C   LIG    1       -3.590   4.734   0.148  0.00  0.00    +0.200 A 
ATOM     23  N   LIG    1       -4.066   3.739  -0.539  0.00  0.00    -0.380 NA
ATOM     24  O   LIG    1       -4.549   4.140  -1.577  0.00  0.00    +0.080 OA
BRANCH  22  25
ATOM     25  C   LIG    1       -2.914   4.647   1.492  0.00  0.00    +0.060 C 
ATOM     26  C   LIG    1       -3.724   4.069   2.655  0.00  0.00    +0.050 C 
ATOM     27  C   LIG    1       -2.591   3.251   2.032  0.00  0.00    +0.050 C 
ENDBRANCH  22  25
ENDBRANCH  19  20
ENDBRANCH  18  19
ENDBRANCH  17  18
ENDBRANCH  10  17
TORSDOF 6
