REMARK  Name = ZINCvU00000004uH.0
REMARK                            x       y       z     vdW  Elec       q    Type
REMARK                         _______ _______ _______ _____ _____    ______ ____
ROOT
ATOM      1  N   LIG    1       -0.864  -5.036  -0.015  0.00  0.00    -0.600 N 
ATOM      2  C   LIG    1        0.192  -4.198  -0.021  0.00  0.00    +0.520 C 
ATOM      3  O   LIG    1        1.320  -4.644  -0.034  0.00  0.00    -0.490 OA
ENDROOT
BRANCH   1   4
ATOM      4  C   LIG    1       -0.649  -6.485  -0.024  0.00  0.00    +0.350 C 
BRANCH   4   8
ATOM      5  C   LIG    1       -0.402  -7.914   3.994  0.00  0.00    -0.060 A 
ATOM      6  C   LIG    1       -1.626  -7.858   3.354  0.00  0.00    +0.000 A 
ATOM      7  C   LIG    1       -1.706  -7.395   2.054  0.00  0.00    +0.020 A 
ATOM      8  C   LIG    1       -0.562  -6.989   1.393  0.00  0.00    -0.120 A 
ATOM      9  C   LIG    1        0.663  -7.050   2.031  0.00  0.00    +0.040 A 
ATOM     10  C   LIG    1        0.742  -7.508   3.333  0.00  0.00    +0.010 A 
BRANCH   5  12
ATOM     11  C   LIG    1       -0.830  -9.858   5.472  0.00  0.00    +0.040 C 
ATOM     12  C   LIG    1       -0.314  -8.419   5.411  0.00  0.00    -0.030 C 
ATOM     13  C   LIG    1       -1.167  -7.533   6.321  0.00  0.00    +0.040 C 
ATOM     14  C   LIG    1        1.142  -8.379   5.878  0.00  0.00    +0.030 C 
ENDBRANCH   5  12
ENDBRANCH   4   8
ENDBRANCH   1   4
BRANCH   2  15
ATOM     15  C   LIG    1       -0.029  -2.707  -0.011  0.00  0.00    +0.230 C 
BRANCH  15  16
ATOM     16  O   LIG    1        1.234  -2.039  -0.020  0.00  0.00    -0.250 OA
BRANCH  16  17
ATOM     17  C   LIG    1        1.213  -0.680  -0.013  0.00  0.00    +0.190 A 
ATOM     18  C   LIG    1        0.002  -0.004   0.002  0.00  0.00    -0.070 A 
ATOM     19  C   LIG    1       -0.017   1.377   0.010  0.00  0.00    +0.120 A 
ATOM     20  C   LIG    1        1.170   2.086   0.002  0.00  0.00    -0.010 A 
ATOM     21  C   LIG    1        2.379   1.415  -0.013  0.00  0.00    +0.140 A 
ATOM     22  C   LIG    1        2.403   0.034  -0.021  0.00  0.00    -0.080 A 
BRANCH  22  23
ATOM     23  N   LIG    1        3.697  -0.685  -0.036  0.00  0.00    +0.030 N 
ATOM     24  O   LIG    1        3.718  -1.902  -0.043  0.00  0.00    -0.120 OA
ATOM     25  O   LIG    1        4.742  -0.058  -0.043  0.00  0.00    -0.180 OA
ENDBRANCH  22  23
ENDBRANCH  16  17
ENDBRANCH  15  16
ENDBRANCH   2  15
BRANCH   1  26
ATOM     26  C   LIG    1       -2.226  -4.497   0.001  0.00  0.00    +0.400 C 
BRANCH  26  27
ATOM     27  C   LIG    1       -2.707  -4.305  -1.414  0.00  0.00    -0.050 A 
ATOM     28  C   LIG    1       -3.360  -5.219  -2.154  0.00  0.00    -0.030 A 
ATOM     29  C   LIG    1       -3.617  -4.622  -3.409  0.00  0.00    -0.060 A 
ATOM     30  C   LIG    1       -3.107  -3.378  -3.361  0.00  0.00    +0.170 A 
ATOM     31  O   LIG    1       -2.562  -3.190  -2.149  0.00  0.00    -0.180 OA
ENDBRANCH  26  27
ENDBRANCH   1  26
TORSDOF 9
