REMARK  Name = ZINCrH000004s3Q7.0
REMARK                            x       y       z     vdW  Elec       q    Type
REMARK                         _______ _______ _______ _____ _____    ______ ____
ROOT
ATOM      1  N   LIG    1       -1.250  -4.787   0.299  0.00  0.00    -0.560 N 
ATOM      2  C   LIG    1       -1.893  -4.977   1.457  0.00  0.00    +0.710 C 
ATOM      3  N   LIG    1       -3.139  -5.453   1.280  0.00  0.00    -0.720 N 
ATOM      4  H   LIG    1       -3.783  -5.662   1.975  0.00  0.00    +0.440 HD
ATOM      5  C   LIG    1       -3.332  -5.600  -0.173  0.00  0.00    +0.170 C 
ATOM      6  C   LIG    1       -4.481  -4.712  -0.655  0.00  0.00    +0.090 C 
ATOM      7  O   LIG    1       -1.407  -4.743   2.546  0.00  0.00    -0.530 OA
ATOM      8  C   LIG    1       -2.014  -5.130  -0.757  0.00  0.00    +0.540 C 
ATOM      9  O   LIG    1       -1.711  -5.075  -1.929  0.00  0.00    -0.430 OA
ENDROOT
BRANCH   5  10
ATOM     10  C   LIG    1       -3.589  -7.040  -0.534  0.00  0.00    -0.090 A 
ATOM     11  C   LIG    1       -3.729  -7.988   0.463  0.00  0.00    +0.060 A 
ATOM     12  C   LIG    1       -3.970  -9.308   0.133  0.00  0.00    +0.050 A 
ATOM     13  C   LIG    1       -4.061  -9.684  -1.196  0.00  0.00    -0.020 A 
ATOM     14  C   LIG    1       -3.915  -8.737  -2.194  0.00  0.00    +0.050 A 
ATOM     15 CL   LIG    1       -4.357 -11.343  -1.611  0.00  0.00    -0.050 Cl
ATOM     16  C   LIG    1       -3.679  -7.415  -1.863  0.00  0.00    -0.010 A 
ATOM     17 CL   LIG    1       -3.496  -6.226  -3.114  0.00  0.00    -0.020 Cl
ENDBRANCH   5  10
BRANCH   1  18
ATOM     18  C   LIG    1        0.119  -4.276   0.192  0.00  0.00    +0.360 C 
BRANCH  18  21
ATOM     19  N   LIG    1        1.237  -2.079  -0.021  0.00  0.00    -0.670 N 
ATOM     20  H   LIG    1        2.082  -2.550  -0.098  0.00  0.00    +0.410 HD
ATOM     21  C   LIG    1        0.086  -2.772   0.087  0.00  0.00    +0.500 C 
ATOM     22  O   LIG    1       -0.976  -2.187   0.101  0.00  0.00    -0.500 OA
BRANCH  19  29
ATOM     23  C   LIG    1        3.399  -0.697   1.209  0.00  0.00    +0.080 C 
ATOM     24  C   LIG    1        2.249   0.034   0.565  0.00  0.00    -0.110 A 
ATOM     25  C   LIG    1        2.223   1.415   0.561  0.00  0.00    +0.030 A 
ATOM     26  C   LIG    1        1.168   2.086  -0.029  0.00  0.00    -0.010 A 
ATOM     27  C   LIG    1        0.136   1.378  -0.617  0.00  0.00    +0.020 A 
ATOM     28  C   LIG    1        0.156  -0.003  -0.616  0.00  0.00    +0.020 A 
ATOM     29  C   LIG    1        1.214  -0.680  -0.024  0.00  0.00    +0.140 A 
ENDBRANCH  19  29
ENDBRANCH  18  21
ENDBRANCH   1  18
TORSDOF 4
