REMARK  Name = ZINCpk00000j9j9Z.2
REMARK                            x       y       z     vdW  Elec       q    Type
REMARK                         _______ _______ _______ _____ _____    ______ ____
ROOT
ATOM      1  C   LIG    1       -7.043   4.544  -2.163  0.00  0.00    +0.160 C 
ATOM      2  C   LIG    1       -8.316   3.675  -2.041  0.00  0.00    +0.020 C 
ATOM      3  C   LIG    1       -9.352   4.458  -2.886  0.00  0.00    +0.170 C 
ATOM      4  N   LIG    1       -8.545   4.971  -4.022  0.00  0.00    -0.510 NA
ATOM      5  C   LIG    1       -7.245   5.375  -3.443  0.00  0.00    +0.210 C 
ENDROOT
BRANCH   1   6
ATOM      6  O   LIG    1       -5.887   3.714  -2.288  0.00  0.00    -0.290 OA
BRANCH   6   9
ATOM      7  C   LIG    1       -3.510   2.220   0.026  0.00  0.00    +0.140 A 
ATOM      8  C   LIG    1       -4.090   2.604  -1.165  0.00  0.00    -0.040 A 
ATOM      9  C   LIG    1       -5.285   3.318  -1.137  0.00  0.00    +0.170 A 
ATOM     10  C   LIG    1       -5.848   3.614   0.101  0.00  0.00    -0.120 A 
ATOM     11  C   LIG    1       -5.206   3.194   1.248  0.00  0.00    +0.300 A 
ATOM     12  N   LIG    1       -4.077   2.515   1.180  0.00  0.00    -0.490 NA
BRANCH   7  13
ATOM     13  C   LIG    1       -2.216   1.447   0.008  0.00  0.00    +0.350 C 
BRANCH  13  16
ATOM     14  C   LIG    1        1.328   2.859   0.324  0.00  0.00    +0.100 C 
ATOM     15  C   LIG    1        0.172   1.905   0.173  0.00  0.00    +0.510 C 
ATOM     16  N   LIG    1       -1.092   2.374   0.161  0.00  0.00    -0.730 N 
ATOM     17  H   LIG    1       -1.257   3.326   0.252  0.00  0.00    +0.400 HD
ATOM     18  O   LIG    1        0.378   0.715   0.059  0.00  0.00    -0.540 OA
ENDBRANCH  13  16
ENDBRANCH   7  13
ENDBRANCH   6   9
ENDBRANCH   1   6
BRANCH   4  19
ATOM     19  C   LIG    1       -9.210   6.111  -4.668  0.00  0.00    +0.300 C 
BRANCH  19  20
ATOM     20  C   LIG    1      -10.400   5.620  -5.452  0.00  0.00    +0.010 A 
ATOM     21  C   LIG    1      -11.652   5.487  -4.981  0.00  0.00    -0.050 A 
ATOM     22  C   LIG    1      -12.443   5.001  -6.048  0.00  0.00    -0.030 A 
ATOM     23  C   LIG    1      -11.623   4.859  -7.106  0.00  0.00    -0.020 A 
ATOM     24  O   LIG    1      -10.387   5.235  -6.739  0.00  0.00    -0.160 OA
BRANCH  23  25
ATOM     25  C   LIG    1      -12.025   4.361  -8.470  0.00  0.00    +0.310 C 
BRANCH  25  26
ATOM     26  O   LIG    1      -12.424   5.467  -9.283  0.00  0.00    -0.570 OA
ATOM     27  H   LIG    1      -12.696   5.220 -10.177  0.00  0.00    +0.390 HD
ENDBRANCH  25  26
ENDBRANCH  23  25
ENDBRANCH  19  20
ENDBRANCH   4  19
TORSDOF 8
