REMARK  Name = ZINCpk00000KC9bH.0
REMARK                            x       y       z     vdW  Elec       q    Type
REMARK                         _______ _______ _______ _____ _____    ______ ____
ROOT
ATOM      1  C   LIG    1       -0.013   1.086   0.008  0.00  0.00    +0.230 C 
ATOM      2  C   LIG    1       -0.218   1.707  -1.384  0.00  0.00    +0.020 C 
ATOM      3  C   LIG    1        0.821   2.765  -0.979  0.00  0.00    +0.230 C 
ATOM      4  C   LIG    1        1.388   1.721  -0.002  0.00  0.00    +0.040 C 
ENDROOT
BRANCH   1   7
ATOM      5  O   LIG    1       -2.142  -0.201   1.045  0.00  0.00    -0.520 OA
ATOM      6  C   LIG    1       -1.940   0.910   1.488  0.00  0.00    +0.520 C 
ATOM      7  N   LIG    1       -0.900   1.637   1.035  0.00  0.00    -0.710 N 
ATOM      8  H   LIG    1       -0.738   2.525   1.390  0.00  0.00    +0.390 HD
BRANCH   6   9
ATOM      9  C   LIG    1       -2.853   1.477   2.545  0.00  0.00    +0.190 C 
BRANCH   9  10
ATOM     10  C   LIG    1       -3.927   0.472   2.873  0.00  0.00    -0.040 A 
ATOM     11  C   LIG    1       -3.866  -0.482   3.817  0.00  0.00    +0.160 A 
ATOM     12  N   LIG    1       -5.026  -1.162   3.785  0.00  0.00    -0.490 NA
ATOM     13  C   LIG    1       -5.784  -0.652   2.857  0.00  0.00    +0.430 A 
ATOM     14  O   LIG    1       -5.132   0.365   2.278  0.00  0.00    -0.200 OA
ENDBRANCH   9  10
ENDBRANCH   6   9
ENDBRANCH   1   7
BRANCH   3  15
ATOM     15  N   LIG    1        0.242   3.936  -0.315  0.00  0.00    -0.720 N 
ATOM     16  H   LIG    1       -0.091   3.863   0.593  0.00  0.00    +0.390 HD
ATOM     17  C   LIG    1        0.172   5.114  -0.966  0.00  0.00    +0.520 C 
ATOM     18  O   LIG    1        0.588   5.204  -2.102  0.00  0.00    -0.520 OA
BRANCH  17  19
ATOM     19  C   LIG    1       -0.424   6.318  -0.284  0.00  0.00    +0.070 C 
BRANCH  19  20
ATOM     20  C   LIG    1       -0.383   7.515  -1.235  0.00  0.00    +0.170 C 
ATOM     21  C   LIG    1       -1.103   8.718  -0.594  0.00  0.00    +0.010 C 
ATOM     22  C   LIG    1       -0.021   9.826  -0.539  0.00  0.00    +0.020 C 
ATOM     23  C   LIG    1        0.993   9.332  -1.586  0.00  0.00    +0.080 C 
ATOM     24  C   LIG    1        2.365  10.001  -1.541  0.00  0.00    +0.040 C 
ATOM     25  C   LIG    1        2.352   9.928  -3.079  0.00  0.00    +0.010 C 
ATOM     26  C   LIG    1        0.815   9.896  -2.993  0.00  0.00    +0.000 C 
ATOM     27  O   LIG    1        0.982   7.906  -1.471  0.00  0.00    -0.330 OA
ENDBRANCH  19  20
ENDBRANCH  17  19
ENDBRANCH   3  15
TORSDOF 6
