REMARK  Name = ZINCtV000002M6RC.0
REMARK                            x       y       z     vdW  Elec       q    Type
REMARK                         _______ _______ _______ _____ _____    ______ ____
ROOT
ATOM      1  O   LIG    1        0.002  -0.004   0.002  0.00  0.00    -0.520 OA
ATOM      2  C   LIG    1       -0.014   1.209   0.009  0.00  0.00    +0.530 C 
ATOM      3  N   LIG    1        1.143   1.898   0.001  0.00  0.00    -0.620 N 
ATOM      4  C   LIG    1        1.269   3.367   0.009  0.00  0.00    +0.260 C 
ATOM      5  C   LIG    1        2.670   3.643   0.610  0.00  0.00    +0.040 C 
ATOM      6  C   LIG    1        3.500   2.477   0.010  0.00  0.00    +0.060 C 
ATOM      7  C   LIG    1        2.491   1.310  -0.009  0.00  0.00    +0.320 C 
ENDROOT
BRANCH   7   8
ATOM      8  C   LIG    1        2.683   0.491  -1.259  0.00  0.00    +0.090 A 
ATOM      9  N   LIG    1        3.208  -0.676  -1.281  0.00  0.00    -0.450 NA
ATOM     10  C   LIG    1        3.318  -1.294  -2.472  0.00  0.00    +0.080 A 
ATOM     11  C   LIG    1        3.848  -2.562  -2.783  0.00  0.00    +0.080 A 
ATOM     12  C   LIG    1        3.865  -3.006  -4.070  0.00  0.00    +0.030 A 
ATOM     13  C   LIG    1        3.362  -2.222  -5.098  0.00  0.00    +0.040 A 
ATOM     14  C   LIG    1        2.837  -0.979  -4.824  0.00  0.00    +0.060 A 
ATOM     15  C   LIG    1        2.812  -0.508  -3.514  0.00  0.00    -0.180 A 
ATOM     16  S   LIG    1        2.220   0.999  -2.821  0.00  0.00    +0.100 S 
ENDBRANCH   7   8
BRANCH   2  17
ATOM     17  C   LIG    1       -1.330   1.944   0.019  0.00  0.00    +0.070 C 
BRANCH  17  18
ATOM     18  C   LIG    1       -2.479   0.934   0.019  0.00  0.00    +0.070 C 
BRANCH  18  19
ATOM     19  C   LIG    1       -3.814   1.681   0.029  0.00  0.00    +0.090 C 
BRANCH  19  20
ATOM     20  S   LIG    1       -5.174   0.486   0.029  0.00  0.00    +0.010 S 
BRANCH  20  21
ATOM     21  C   LIG    1       -6.549   1.588   0.042  0.00  0.00    +0.090 A 
ATOM     22  N   LIG    1       -6.462   2.875   0.054  0.00  0.00    -0.470 NA
ATOM     23  C   LIG    1       -7.608   3.584   0.059  0.00  0.00    +0.090 A 
ATOM     24  C   LIG    1       -7.780   4.984   0.067  0.00  0.00    +0.070 A 
ATOM     25  C   LIG    1       -9.039   5.530   0.077  0.00  0.00    +0.040 A 
ATOM     26  C   LIG    1      -10.161   4.716   0.078  0.00  0.00    +0.040 A 
ATOM     27  C   LIG    1      -10.018   3.346   0.069  0.00  0.00    +0.060 A 
ATOM     28  C   LIG    1       -8.748   2.774   0.059  0.00  0.00    -0.180 A 
ATOM     29  S   LIG    1       -8.235   1.089   0.047  0.00  0.00    +0.110 S 
ENDBRANCH  20  21
ENDBRANCH  19  20
ENDBRANCH  18  19
ENDBRANCH  17  18
ENDBRANCH   2  17
TORSDOF 6
