REMARK  Name = ZINCvU0000000EbX.0
REMARK                            x       y       z     vdW  Elec       q    Type
REMARK                         _______ _______ _______ _____ _____    ______ ____
ROOT
ATOM      1  C   LIG    1       -5.883   1.669  -0.429  0.00  0.00    +0.180 A 
ATOM      2  C   LIG    1       -4.835   2.124   0.366  0.00  0.00    -0.010 A 
ATOM      3  C   LIG    1       -3.900   2.990  -0.155  0.00  0.00    +0.120 A 
ATOM      4  C   LIG    1       -4.011   3.421  -1.480  0.00  0.00    -0.140 A 
ATOM      5  C   LIG    1       -5.066   2.962  -2.275  0.00  0.00    +0.160 A 
ATOM      6  C   LIG    1       -5.994   2.092  -1.750  0.00  0.00    -0.030 A 
ENDROOT
BRANCH   1  11
ATOM      7  C   LIG    1       -9.195  -1.812   2.522  0.00  0.00    +0.010 C 
ATOM      8  C   LIG    1       -8.080  -0.845   2.120  0.00  0.00    -0.020 C 
ATOM      9  C   LIG    1       -8.693   0.476   1.648  0.00  0.00    +0.040 C 
ATOM     10  C   LIG    1       -7.576   1.417   1.191  0.00  0.00    +0.190 C 
ATOM     11  N   LIG    1       -6.822   0.789   0.099  0.00  0.00    -0.500 N 
ATOM     12  C   LIG    1       -6.184  -0.458   0.542  0.00  0.00    +0.180 C 
ATOM     13  C   LIG    1       -7.260  -1.454   0.980  0.00  0.00    +0.040 C 
ENDBRANCH   1  11
BRANCH   4  14
ATOM     14  C   LIG    1       -3.015   4.354  -2.040  0.00  0.00    +0.570 C 
ATOM     15  N   LIG    1       -2.667   5.460  -1.353  0.00  0.00    -0.600 N 
ATOM     16  O   LIG    1       -2.508   4.125  -3.121  0.00  0.00    -0.500 OA
BRANCH  15  17
ATOM     17  C   LIG    1       -1.787   6.457  -1.967  0.00  0.00    +0.390 C 
BRANCH  17  18
ATOM     18  C   LIG    1       -0.351   6.119  -1.657  0.00  0.00    -0.220 A 
ATOM     19  C   LIG    1        0.434   5.342  -2.404  0.00  0.00    +0.030 A 
ATOM     20  C   LIG    1        1.720   5.173  -1.919  0.00  0.00    +0.000 A 
ATOM     21  C   LIG    1        1.978   5.814  -0.778  0.00  0.00    -0.060 A 
ATOM     22  S   LIG    1        0.547   6.694  -0.259  0.00  0.00    +0.130 S 
ENDBRANCH  17  18
ENDBRANCH  15  17
BRANCH  15  23
ATOM     23  C   LIG    1       -3.169   5.665   0.008  0.00  0.00    +0.410 C 
BRANCH  23  24
ATOM     24  C   LIG    1       -2.073   5.363   0.998  0.00  0.00    -0.060 A 
ATOM     25  C   LIG    1       -1.273   6.270   1.587  0.00  0.00    -0.010 A 
ATOM     26  C   LIG    1       -0.398   5.555   2.436  0.00  0.00    -0.050 A 
ATOM     27  C   LIG    1       -0.716   4.253   2.315  0.00  0.00    +0.170 A 
ATOM     28  O   LIG    1       -1.727   4.143   1.439  0.00  0.00    -0.180 OA
ENDBRANCH  23  24
ENDBRANCH  15  23
ENDBRANCH   4  14
BRANCH   6  29
ATOM     29  N   LIG    1       -7.110   1.606  -2.592  0.00  0.00    +0.030 N 
ATOM     30  O   LIG    1       -7.986   0.916  -2.102  0.00  0.00    -0.090 OA
ATOM     31  O   LIG    1       -7.153   1.897  -3.774  0.00  0.00    -0.190 OA
ENDBRANCH   6  29
TORSDOF 7
