REMARK  Name = ZINCqH0000036RD2.0
REMARK                            x       y       z     vdW  Elec       q    Type
REMARK                         _______ _______ _______ _____ _____    ______ ____
ROOT
ATOM      1  N   LIG    1       -3.665  -4.821  -0.353  0.00  0.00    -0.740 N 
ATOM      2  H   LIG    1       -4.464  -4.271  -0.375  0.00  0.00    +0.400 HD
ENDROOT
BRANCH   1   7
ATOM      3  C   LIG    1       -5.279 -10.278  -1.018  0.00  0.00    +0.010 C 
ATOM      4  C   LIG    1       -5.157  -8.754  -1.066  0.00  0.00    +0.000 C 
ATOM      5  C   LIG    1       -3.810  -8.369  -1.679  0.00  0.00    +0.030 C 
ATOM      6  C   LIG    1       -3.688  -6.844  -1.726  0.00  0.00    +0.020 C 
ATOM      7  C   LIG    1       -3.782  -6.281  -0.307  0.00  0.00    +0.250 C 
ATOM      8  C   LIG    1       -5.130  -6.666   0.306  0.00  0.00    +0.260 C 
ATOM      9  C   LIG    1       -5.252  -8.190   0.354  0.00  0.00    +0.040 C 
BRANCH   8  10
ATOM     10  N   LIG    1       -6.213  -6.115  -0.511  0.00  0.00    -0.370 N 
ATOM     11  C   LIG    1       -7.156  -5.242  -0.116  0.00  0.00    +0.470 A 
ATOM     12  N   LIG    1       -7.937  -4.997  -1.137  0.00  0.00    -0.540 NA
ATOM     13  C   LIG    1       -7.526  -5.693  -2.197  0.00  0.00    +0.400 A 
ATOM     14  N   LIG    1       -6.470  -6.389  -1.864  0.00  0.00    -0.300 NA
ENDBRANCH   8  10
ENDBRANCH   1   7
BRANCH   1  15
ATOM     15  C   LIG    1       -2.404  -4.221  -0.363  0.00  0.00    +0.230 A 
ATOM     16  C   LIG    1       -1.259  -5.008  -0.331  0.00  0.00    -0.060 A 
ATOM     17  C   LIG    1       -0.012  -4.414  -0.342  0.00  0.00    +0.070 A 
ATOM     18  C   LIG    1        0.101  -3.038  -0.384  0.00  0.00    -0.040 A 
ATOM     19  C   LIG    1       -1.039  -2.247  -0.416  0.00  0.00    +0.140 A 
ATOM     20  C   LIG    1       -2.293  -2.838  -0.401  0.00  0.00    -0.060 A 
BRANCH  19  21
ATOM     21  O   LIG    1       -0.927  -0.893  -0.458  0.00  0.00    -0.230 OA
BRANCH  21  22
ATOM     22  C   LIG    1       -0.606  -0.318  -1.642  0.00  0.00    +0.500 A 
ATOM     23  N   LIG    1       -0.584   1.002  -1.733  0.00  0.00    -0.520 NA
ATOM     24  C   LIG    1       -0.275   1.597  -2.874  0.00  0.00    +0.370 A 
ATOM     25  C   LIG    1        0.027   0.819  -3.981  0.00  0.00    -0.110 A 
ATOM     26  C   LIG    1       -0.006  -0.560  -3.849  0.00  0.00    +0.360 A 
ATOM     27  N   LIG    1       -0.323  -1.089  -2.679  0.00  0.00    -0.550 NA
ENDBRANCH  21  22
ENDBRANCH  19  21
ENDBRANCH   1  15
TORSDOF 5
