REMARK  Name = ZINCqH0000007BTy.0
REMARK                            x       y       z     vdW  Elec       q    Type
REMARK                         _______ _______ _______ _____ _____    ______ ____
ROOT
ATOM      1  C   LIG    1        1.137   1.917   0.002  0.00  0.00    +0.100 A 
ATOM      2  N   LIG    1       -0.016   1.310   0.009  0.00  0.00    -0.450 NA
ATOM      3  C   LIG    1        0.002  -0.004   0.002  0.00  0.00    +0.040 A 
ATOM      4  C   LIG    1        1.213  -0.571  -0.013  0.00  0.00    -0.040 A 
ATOM      5  S   LIG    1        2.422   0.712  -0.017  0.00  0.00    +0.170 S 
ENDROOT
BRANCH   1  10
ATOM      6  C   LIG    1        2.801   5.295   0.004  0.00  0.00    +0.120 A 
ATOM      7  C   LIG    1        1.698   6.133   0.019  0.00  0.00    -0.040 A 
ATOM      8  C   LIG    1        0.419   5.604   0.027  0.00  0.00    +0.060 A 
ATOM      9  C   LIG    1        0.231   4.238   0.022  0.00  0.00    +0.040 A 
ATOM     10  C   LIG    1        1.334   3.381   0.007  0.00  0.00    -0.010 A 
ATOM     11  C   LIG    1        2.626   3.916   0.004  0.00  0.00    +0.080 A 
BRANCH   6  13
ATOM     12  C   LIG    1        4.161   7.246   0.004  0.00  0.00    +0.240 C 
ATOM     13  O   LIG    1        4.055   5.821  -0.003  0.00  0.00    -0.300 OA
ENDBRANCH   6  13
BRANCH  11  14
ATOM     14  O   LIG    1        3.706   3.091  -0.006  0.00  0.00    -0.320 OA
ATOM     15  C   LIG    1        4.216   2.703  -1.283  0.00  0.00    +0.230 C 
ENDBRANCH  11  14
ENDBRANCH   1  10
BRANCH   3  16
ATOM     16  C   LIG    1       -1.264  -0.822   0.010  0.00  0.00    +0.310 C 
BRANCH  16  17
ATOM     17  O   LIG    1       -0.933  -2.212   0.000  0.00  0.00    -0.260 OA
BRANCH  17  18
ATOM     18  C   LIG    1       -1.968  -3.092   0.006  0.00  0.00    +0.170 A 
ATOM     19  C   LIG    1       -3.283  -2.636   0.021  0.00  0.00    +0.000 A 
ATOM     20  C   LIG    1       -4.304  -3.572   0.025  0.00  0.00    +0.110 A 
ATOM     21  C   LIG    1       -3.988  -4.917   0.015  0.00  0.00    +0.270 A 
ATOM     22  N   LIG    1       -2.731  -5.317   0.001  0.00  0.00    -0.380 NA
ATOM     23  C   LIG    1       -1.730  -4.459  -0.009  0.00  0.00    +0.110 A 
BRANCH  23  24
ATOM     24  N   LIG    1       -0.455  -4.917  -0.030  0.00  0.00    +0.070 N 
ATOM     25  O   LIG    1       -0.238  -6.115  -0.043  0.00  0.00    -0.150 OA
ATOM     26  O   LIG    1        0.475  -4.130  -0.035  0.00  0.00    -0.160 OA
ENDBRANCH  23  24
ENDBRANCH  17  18
ENDBRANCH  16  17
ENDBRANCH   3  16
TORSDOF 7
