REMARK  Name = ZINCkj00000LSuYg.0
REMARK                            x       y       z     vdW  Elec       q    Type
REMARK                         _______ _______ _______ _____ _____    ______ ____
ROOT
ATOM      1  C   LIG    1       -2.374   1.407  -0.107  0.00  0.00    +0.170 C 
ATOM      2  C   LIG    1       -1.044   1.117  -0.818  0.00  0.00    +0.340 C 
ATOM      3  N   LIG    1       -0.738   0.159   0.261  0.00  0.00    -0.530 N 
ATOM      4  H   LIG    1        0.233   0.163   0.537  0.00  0.00    +0.440 HD
ATOM      5  H   LIG    1       -1.093  -0.768   0.086  0.00  0.00    +0.450 HD
ATOM      6  C   LIG    1       -1.602   0.962   1.146  0.00  0.00    +0.330 C 
ENDROOT
BRANCH   1   7
ATOM      7  N   LIG    1       -3.467   0.511  -0.492  0.00  0.00    -0.380 N 
ATOM      8  C   LIG    1       -4.636   0.357   0.165  0.00  0.00    +0.250 A 
ATOM      9  C   LIG    1       -5.371  -0.557  -0.510  0.00  0.00    -0.050 A 
ATOM     10  C   LIG    1       -4.626  -0.976  -1.617  0.00  0.00    +0.090 A 
ATOM     11 BR   LIG    1       -5.173  -2.248  -2.905  0.00  0.00    +0.060 Br
ATOM     12  N   LIG    1       -3.487  -0.332  -1.611  0.00  0.00    -0.250 NA
ENDBRANCH   1   7
BRANCH   1  13
ATOM     13  C   LIG    1       -2.774   2.884  -0.105  0.00  0.00    +0.120 C 
BRANCH  13  15
ATOM     14  O   LIG    1       -3.022   2.528  -2.425  0.00  0.00    -0.490 OA
ATOM     15  C   LIG    1       -3.047   3.332  -1.518  0.00  0.00    +0.510 C 
ATOM     16  N   LIG    1       -3.319   4.627  -1.773  0.00  0.00    -0.660 N 
ATOM     17  H   LIG    1       -3.416   5.256  -1.040  0.00  0.00    +0.420 HD
BRANCH  16  18
ATOM     18  C   LIG    1       -3.461   5.064  -3.091  0.00  0.00    +0.180 A 
ATOM     19  C   LIG    1       -2.724   4.480  -4.120  0.00  0.00    -0.040 A 
ATOM     20  C   LIG    1       -2.897   4.937  -5.410  0.00  0.00    +0.280 A 
ATOM     21  N   LIG    1       -3.738   5.920  -5.673  0.00  0.00    -0.490 NA
ATOM     22  C   LIG    1       -4.449   6.501  -4.725  0.00  0.00    +0.290 A 
ATOM     23  C   LIG    1       -4.338   6.099  -3.410  0.00  0.00    -0.060 A 
ENDBRANCH  16  18
ENDBRANCH  13  15
ENDBRANCH   1  13
TORSDOF 4
