REMARK  Name = ZINCrD00000c4Duc.0
REMARK                            x       y       z     vdW  Elec       q    Type
REMARK                         _______ _______ _______ _____ _____    ______ ____
ROOT
ATOM      1  C   LIG    1       -3.042   1.387   2.380  0.00  0.00    +0.200 C 
ATOM      2  C   LIG    1       -4.236   0.485   2.756  0.00  0.00    +0.040 C 
ATOM      3  C   LIG    1       -4.619   0.989   4.173  0.00  0.00    +0.030 C 
ATOM      4  C   LIG    1       -4.339   2.507   4.049  0.00  0.00    +0.270 C 
ATOM      5  N   LIG    1       -3.135   2.601   3.203  0.00  0.00    -0.600 N 
ATOM      6  C   LIG    1       -2.265   3.630   3.187  0.00  0.00    +0.510 C 
ATOM      7  O   LIG    1       -1.366   3.651   2.372  0.00  0.00    -0.520 OA
ENDROOT
BRANCH   6   8
ATOM      8  C   LIG    1       -2.407   4.753   4.181  0.00  0.00    +0.110 C 
ATOM      9  C   LIG    1       -1.576   5.945   3.715  0.00  0.00    +0.040 C 
ATOM     10  C   LIG    1       -0.158   5.487   3.364  0.00  0.00    +0.130 C 
ATOM     11  S   LIG    1        0.637   4.835   4.862  0.00  0.00    -0.260 S 
ATOM     12  C   LIG    1       -0.571   3.603   5.434  0.00  0.00    +0.110 C 
ATOM     13  C   LIG    1       -1.942   4.273   5.552  0.00  0.00    +0.080 C 
BRANCH   8  14
ATOM     14  O   LIG    1       -3.781   5.141   4.259  0.00  0.00    -0.360 OA
BRANCH  14  15
ATOM     15  C   LIG    1       -4.367   5.462   2.996  0.00  0.00    +0.150 C 
ATOM     16  C   LIG    1       -5.822   5.887   3.202  0.00  0.00    +0.050 C 
ENDBRANCH  14  15
ENDBRANCH   8  14
ENDBRANCH   6   8
BRANCH   1  17
ATOM     17  C   LIG    1       -3.116   1.756   0.897  0.00  0.00    +0.280 C 
BRANCH  17  19
ATOM     18  C   LIG    1       -3.884  -0.169  -0.385  0.00  0.00    +0.520 C 
ATOM     19  N   LIG    1       -2.855   0.566   0.084  0.00  0.00    -0.610 N 
ATOM     20  C   LIG    1       -1.477   0.174  -0.220  0.00  0.00    +0.280 C 
ATOM     21  O   LIG    1       -5.024   0.205  -0.212  0.00  0.00    -0.530 OA
BRANCH  18  22
ATOM     22  C   LIG    1       -3.616  -1.451  -1.131  0.00  0.00    -0.010 C 
BRANCH  22  23
ATOM     23  C   LIG    1       -4.758  -1.718  -2.112  0.00  0.00    +0.040 C 
ATOM     24  C   LIG    1       -4.750  -0.651  -3.208  0.00  0.00    +0.020 C 
ENDBRANCH  22  23
BRANCH  22  25
ATOM     25  C   LIG    1       -3.517  -2.608  -0.135  0.00  0.00    +0.070 C 
BRANCH  25  27
ATOM     26  C   LIG    1       -2.076  -4.548  -0.483  0.00  0.00    +0.010 C 
ATOM     27  C   LIG    1       -3.128  -3.868  -0.866  0.00  0.00    -0.050 C 
ENDBRANCH  25  27
ENDBRANCH  22  25
ENDBRANCH  18  22
ENDBRANCH  17  19
ENDBRANCH   1  17
TORSDOF 9
