REMARK  Name = ZINCpk00000xI8mz.0
REMARK                            x       y       z     vdW  Elec       q    Type
REMARK                         _______ _______ _______ _____ _____    ______ ____
ROOT
ATOM      1  C   LIG    1       -0.816   3.040   4.614  0.00  0.00    +0.620 C 
ATOM      2  N   LIG    1        0.405   2.905   5.169  0.00  0.00    -0.600 N 
ATOM      3  C   LIG    1        0.622   3.182   6.598  0.00  0.00    +0.280 C 
ATOM      4  C   LIG    1        1.818   4.132   6.729  0.00  0.00    +0.150 C 
ATOM      5  O   LIG    1        2.930   3.592   6.011  0.00  0.00    -0.370 OA
ATOM      6  C   LIG    1        2.710   3.459   4.605  0.00  0.00    +0.290 C 
ATOM      7  C   LIG    1        2.188   4.287   8.206  0.00  0.00    +0.080 C 
ATOM      8  C   LIG    1        1.558   2.469   4.366  0.00  0.00    +0.300 C 
ATOM      9  O   LIG    1       -1.731   3.508   5.263  0.00  0.00    -0.510 OA
ENDROOT
BRANCH   1  13
ATOM     10  N   LIG    1       -0.757   1.803   1.281  0.00  0.00    -0.130 N 
ATOM     11  N   LIG    1       -1.952   2.276   1.275  0.00  0.00    -0.280 NA
ATOM     12  C   LIG    1       -2.211   2.799   2.449  0.00  0.00    +0.070 A 
ATOM     13  C   LIG    1       -1.042   2.619   3.215  0.00  0.00    -0.050 A 
ATOM     14  C   LIG    1       -3.492   3.462   2.886  0.00  0.00    +0.190 C 
ATOM     15  N   LIG    1       -0.189   1.994   2.418  0.00  0.00    -0.250 NA
BRANCH  10  17
ATOM     16  C   LIG    1       -0.401  -0.364   0.205  0.00  0.00    +0.060 C 
ATOM     17  C   LIG    1       -0.123   1.139   0.139  0.00  0.00    +0.360 C 
ENDBRANCH  10  17
ENDBRANCH   1  13
BRANCH   6  18
ATOM     18  C   LIG    1        3.962   2.940   3.947  0.00  0.00    +0.190 A 
ATOM     19  N   LIG    1        4.503   3.385   2.838  0.00  0.00    -0.460 NA
ATOM     20  C   LIG    1        5.597   2.628   2.640  0.00  0.00    +0.200 A 
ATOM     21  N   LIG    1        5.661   1.774   3.616  0.00  0.00    -0.380 NA
ATOM     22  O   LIG    1        4.731   1.936   4.378  0.00  0.00    +0.100 OA
BRANCH  20  23
ATOM     23  C   LIG    1        6.568   2.747   1.494  0.00  0.00    +0.060 C 
ATOM     24  C   LIG    1        7.627   1.652   1.348  0.00  0.00    +0.050 C 
ATOM     25  C   LIG    1        8.029   3.047   1.834  0.00  0.00    +0.060 C 
ENDBRANCH  20  23
ENDBRANCH   6  18
TORSDOF 4
