REMARK  Name = ZINCpe000000Z50C.0
REMARK                            x       y       z     vdW  Elec       q    Type
REMARK                         _______ _______ _______ _____ _____    ______ ____
ROOT
ATOM      1  C   LIG    1       -3.199   2.164   0.063  0.00  0.00    +0.200 C 
ATOM      2  C   LIG    1       -2.562   0.950  -0.616  0.00  0.00    +0.260 C 
ATOM      3  O   LIG    1       -1.203   1.266  -0.940  0.00  0.00    -0.360 OA
ATOM      4  C   LIG    1       -0.372   1.411   0.214  0.00  0.00    +0.290 C 
ATOM      5  C   LIG    1       -1.032   2.332   1.203  0.00  0.00    +0.490 C 
ATOM      6  O   LIG    1       -0.365   2.802   2.100  0.00  0.00    -0.530 OA
ATOM      7  N   LIG    1       -2.329   2.651   1.130  0.00  0.00    -0.580 N 
ENDROOT
BRANCH   1   9
ATOM      8  O   LIG    1       -4.596   1.340   1.777  0.00  0.00    -0.510 OA
ATOM      9  C   LIG    1       -4.532   1.770   0.645  0.00  0.00    +0.510 C 
ATOM     10  N   LIG    1       -5.653   1.895  -0.093  0.00  0.00    -0.720 N 
ATOM     11  H   LIG    1       -5.601   2.239  -0.999  0.00  0.00    +0.410 HD
BRANCH  10  12
ATOM     12  C   LIG    1       -6.949   1.512   0.473  0.00  0.00    +0.280 C 
BRANCH  12  13
ATOM     13  C   LIG    1       -8.048   1.751  -0.564  0.00  0.00    +0.030 C 
BRANCH  13  14
ATOM     14  C   LIG    1       -9.402   1.351   0.027  0.00  0.00    +0.330 C 
BRANCH  14  15
ATOM     15  N   LIG    1      -10.455   1.580  -0.966  0.00  0.00    -0.380 N 
ATOM     16  C   LIG    1      -11.343   0.664  -1.406  0.00  0.00    +0.220 A 
ATOM     17  C   LIG    1      -12.143   1.270  -2.314  0.00  0.00    -0.120 A 
ATOM     18  C   LIG    1      -11.730   2.601  -2.432  0.00  0.00    +0.230 A 
ATOM     19  N   LIG    1      -10.722   2.789  -1.620  0.00  0.00    -0.300 NA
ENDBRANCH  14  15
ENDBRANCH  13  14
ENDBRANCH  12  13
ENDBRANCH  10  12
ENDBRANCH   1   9
BRANCH   7  20
ATOM     20  C   LIG    1       -2.898   3.523   2.161  0.00  0.00    +0.350 C 
BRANCH  20  21
ATOM     21  C   LIG    1       -2.769   4.962   1.730  0.00  0.00    -0.110 A 
ATOM     22  C   LIG    1       -1.699   5.720   2.167  0.00  0.00    +0.040 A 
ATOM     23  C   LIG    1       -1.578   7.038   1.768  0.00  0.00    +0.000 A 
ATOM     24  C   LIG    1       -2.532   7.600   0.940  0.00  0.00    +0.010 A 
ATOM     25  C   LIG    1       -3.604   6.843   0.507  0.00  0.00    +0.000 A 
ATOM     26  C   LIG    1       -3.723   5.524   0.902  0.00  0.00    +0.000 A 
ENDBRANCH  20  21
ENDBRANCH   7  20
TORSDOF 7
