REMARK  Name = ZINCrg000000rk7D.1
REMARK                            x       y       z     vdW  Elec       q    Type
REMARK                         _______ _______ _______ _____ _____    ______ ____
ROOT
ATOM      1  N   LIG    1        1.406   3.515  -0.051  0.00  0.00    -0.720 N 
ATOM      2  H   LIG    1        0.642   3.981  -0.426  0.00  0.00    +0.400 HD
ATOM      3  C   LIG    1        2.455   4.216   0.423  0.00  0.00    +0.560 C 
ATOM      4  O   LIG    1        3.412   3.633   0.893  0.00  0.00    -0.520 OA
ENDROOT
BRANCH   1   8
ATOM      5  N   LIG    1        0.706  -0.479  -1.196  0.00  0.00    -0.530 NA
ATOM      6  C   LIG    1        0.002  -0.004   0.002  0.00  0.00    +0.190 C 
ATOM      7  C   LIG    1       -0.019   1.526   0.010  0.00  0.00    +0.040 C 
ATOM      8  C   LIG    1        1.420   2.051  -0.001  0.00  0.00    +0.230 C 
ATOM      9  C   LIG    1        2.145   1.503  -1.232  0.00  0.00    +0.030 C 
ATOM     10  C   LIG    1        2.103  -0.026  -1.205  0.00  0.00    +0.180 C 
BRANCH   5  12
ATOM     11  C   LIG    1       -0.841  -2.366  -1.402  0.00  0.00    +0.050 C 
ATOM     12  C   LIG    1        0.626  -1.941  -1.309  0.00  0.00    +0.170 C 
BRANCH  12  13
ATOM     13  C   LIG    1        1.358  -2.390  -2.547  0.00  0.00    -0.040 A 
ATOM     14  C   LIG    1        1.263  -1.671  -3.728  0.00  0.00    -0.010 A 
ATOM     15  C   LIG    1        1.952  -2.111  -4.843  0.00  0.00    +0.250 A 
ATOM     16  N   LIG    1        2.685  -3.205  -4.793  0.00  0.00    -0.490 NA
ATOM     17  C   LIG    1        2.796  -3.917  -3.689  0.00  0.00    +0.260 A 
ATOM     18  C   LIG    1        2.139  -3.536  -2.534  0.00  0.00    -0.040 A 
ENDBRANCH  12  13
ENDBRANCH   5  12
ENDBRANCH   1   8
BRANCH   3  19
ATOM     19  C   LIG    1        2.441   5.693   0.372  0.00  0.00    -0.130 A 
ATOM     20  C   LIG    1        3.524   6.433   0.862  0.00  0.00    +0.130 A 
ATOM     21  C   LIG    1        3.462   7.814   0.790  0.00  0.00    +0.080 A 
ATOM     22  C   LIG    1        2.342   8.413   0.242  0.00  0.00    -0.430 A 
ATOM     23  N   LIG    1        1.336   7.690  -0.212  0.00  0.00    -0.390 NA
ATOM     24  C   LIG    1        1.350   6.374  -0.171  0.00  0.00    +0.280 A 
BRANCH  22  25
ATOM     25  S   LIG    1        2.258  10.171   0.149  0.00  0.00    +2.710 S 
ATOM     26  O   LIG    1        3.135  10.668   1.151  0.00  0.00    -0.950 OA
ATOM     27  O   LIG    1        0.878  10.504   0.089  0.00  0.00    -0.930 OA
BRANCH  25  28
ATOM     28  N   LIG    1        2.911  10.616  -1.306  0.00  0.00    -1.240 NA
ATOM     29  H   LIG    1        3.607  10.075  -1.712  0.00  0.00    +0.420 HD
ATOM     30  H   LIG    1        2.598  11.418  -1.753  0.00  0.00    +0.430 HD
ENDBRANCH  25  28
ENDBRANCH  22  25
ENDBRANCH   3  19
TORSDOF 6
