REMARK  Name = ZINCvU0000000GeM.0
REMARK                            x       y       z     vdW  Elec       q    Type
REMARK                         _______ _______ _______ _____ _____    ______ ____
ROOT
ATOM      1  C   LIG    1       -3.125   2.849  -2.759  0.00  0.00    +0.160 A 
ATOM      2  N   LIG    1       -3.793   2.836  -3.890  0.00  0.00    -0.280 NA
ATOM      3  N   LIG    1       -3.997   1.626  -4.270  0.00  0.00    -0.250 NA
ATOM      4  C   LIG    1       -3.466   0.789  -3.406  0.00  0.00    +0.270 A 
ATOM      5  N   LIG    1       -2.897   1.548  -2.408  0.00  0.00    -0.450 N 
ENDROOT
BRANCH   5   6
ATOM      6  C   LIG    1       -2.188   1.063  -1.221  0.00  0.00    +0.250 C 
ATOM      7  C   LIG    1       -0.753   1.593  -1.232  0.00  0.00    +0.020 C 
ATOM      8  C   LIG    1       -0.013   1.086   0.008  0.00  0.00    +0.040 C 
ATOM      9  C   LIG    1       -0.729   1.579   1.267  0.00  0.00    +0.010 C 
ATOM     10  C   LIG    1       -2.164   1.050   1.278  0.00  0.00    +0.040 C 
ATOM     11  C   LIG    1       -2.904   1.556   0.038  0.00  0.00    +0.020 C 
ENDBRANCH   5   6
BRANCH   4  12
ATOM     12  C   LIG    1       -3.482  -0.680  -3.487  0.00  0.00    +0.030 A 
ATOM     13  C   LIG    1       -4.276  -1.428  -4.303  0.00  0.00    +0.030 A 
ATOM     14  C   LIG    1       -3.959  -2.777  -4.053  0.00  0.00    -0.050 A 
ATOM     15  C   LIG    1       -2.998  -2.788  -3.107  0.00  0.00    +0.200 A 
ATOM     16  O   LIG    1       -2.708  -1.520  -2.772  0.00  0.00    -0.180 OA
ENDBRANCH   4  12
BRANCH   1  17
ATOM     17  S   LIG    1       -2.619   4.278  -1.861  0.00  0.00    +0.060 S 
BRANCH  17  18
ATOM     18  C   LIG    1       -3.276   5.576  -2.938  0.00  0.00    +0.260 C 
BRANCH  18  22
ATOM     19  C   LIG    1       -2.023   8.764  -1.850  0.00  0.00    +0.220 A 
ATOM     20  N   LIG    1       -3.165   8.670  -1.220  0.00  0.00    -0.360 NA
ATOM     21  O   LIG    1       -3.709   7.622  -1.498  0.00  0.00    +0.100 OA
ATOM     22  C   LIG    1       -2.953   6.926  -2.353  0.00  0.00    +0.190 A 
ATOM     23  N   LIG    1       -1.877   7.636  -2.582  0.00  0.00    -0.450 NA
BRANCH  19  28
ATOM     24  C   LIG    1        1.702  13.149  -1.550  0.00  0.00    +0.110 C 
ATOM     25  C   LIG    1        0.727  12.002  -1.629  0.00  0.00    -0.100 A 
ATOM     26  C   LIG    1        1.010  10.910  -2.428  0.00  0.00    +0.050 A 
ATOM     27  C   LIG    1        0.123   9.855  -2.500  0.00  0.00    +0.060 A 
ATOM     28  C   LIG    1       -1.065   9.895  -1.773  0.00  0.00    -0.000 A 
ATOM     29  C   LIG    1       -1.347  10.996  -0.968  0.00  0.00    +0.030 A 
ATOM     30  C   LIG    1       -0.450  12.046  -0.899  0.00  0.00    +0.100 A 
ATOM     31  F   LIG    1       -0.722  13.115  -0.120  0.00  0.00    -0.130 F 
ENDBRANCH  19  28
ENDBRANCH  18  22
ENDBRANCH  17  18
ENDBRANCH   1  17
TORSDOF 6
