REMARK  Name = ZINCbw0000000HpR.1
REMARK                            x       y       z     vdW  Elec       q    Type
REMARK                         _______ _______ _______ _____ _____    ______ ____
ROOT
ATOM      1  C   LIG    1       -1.293   1.792   0.018  0.00  0.00    -0.210 A 
ATOM      2  C   LIG    1       -1.317   3.196   0.026  0.00  0.00    +0.200 A 
ATOM      3  C   LIG    1       -2.534   3.862   0.035  0.00  0.00    +0.000 A 
ATOM      4  C   LIG    1       -3.716   3.147   0.037  0.00  0.00    +0.120 A 
ATOM      5  C   LIG    1       -3.699   1.761   0.029  0.00  0.00    -0.120 A 
ATOM      6 BR   LIG    1       -5.328   0.801   0.030  0.00  0.00    -0.010 Br
ATOM      7  C   LIG    1       -2.500   1.080   0.014  0.00  0.00    +0.040 A 
ATOM      8 CL   LIG    1       -2.486  -0.656  -0.003  0.00  0.00    -0.020 Cl
ENDROOT
BRANCH   1  10
ATOM      9  O   LIG    1        1.030   1.697   0.001  0.00  0.00    -0.430 OA
ATOM     10  C   LIG    1       -0.013   1.076   0.008  0.00  0.00    +0.490 C 
ENDBRANCH   1  10
BRANCH   2  11
ATOM     11  O   LIG    1       -0.157   3.898   0.024  0.00  0.00    -0.470 OA
ATOM     12  H   LIG    1        0.176   4.106  -0.859  0.00  0.00    +0.410 HD
ENDBRANCH   2  11
TORSDOF 2
