REMARK  Name = ZINCbw0000000Hpr.0
REMARK                            x       y       z     vdW  Elec       q    Type
REMARK                         _______ _______ _______ _____ _____    ______ ____
ROOT
ATOM      1  C   LIG    1        1.285  -0.722  -0.014  0.00  0.00    -0.070 A 
ATOM      2  C   LIG    1        2.489  -0.009  -0.028  0.00  0.00    +0.050 A 
ATOM      3  C   LIG    1        3.688  -0.689  -0.038  0.00  0.00    +0.050 A 
ATOM      4  C   LIG    1        3.703  -2.074  -0.046  0.00  0.00    -0.080 A 
ATOM      5  C   LIG    1        2.514  -2.787  -0.037  0.00  0.00    +0.050 A 
ATOM      6 BR   LIG    1        5.353  -2.997  -0.068  0.00  0.00    -0.040 Br
ATOM      7  C   LIG    1        1.308  -2.121  -0.022  0.00  0.00    +0.050 A 
ENDROOT
BRANCH   1   9
ATOM      8  C   LIG    1       -0.016   1.350   0.009  0.00  0.00    -0.120 C 
ATOM      9  C   LIG    1        0.002  -0.004   0.002  0.00  0.00    +0.120 C 
BRANCH   8  11
ATOM     10  O   LIG    1       -1.263   3.252   0.026  0.00  0.00    -0.460 OA
ATOM     11  C   LIG    1       -1.247   2.038   0.019  0.00  0.00    +0.450 C 
ENDBRANCH   8  11
ENDBRANCH   1   9
TORSDOF 2
