REMARK  Name = ZINCrH00000No4Tp.0
REMARK                            x       y       z     vdW  Elec       q    Type
REMARK                         _______ _______ _______ _____ _____    ______ ____
ROOT
ATOM      1  C   LIG    1        3.679   1.916  -0.023  0.00  0.00    +0.390 C 
ENDROOT
BRANCH   1   2
ATOM      2  C   LIG    1        4.775   1.063   0.563  0.00  0.00    -0.130 A 
ATOM      3  C   LIG    1        4.673  -0.314   0.526  0.00  0.00    +0.060 A 
ATOM      4  C   LIG    1        5.679  -1.096   1.064  0.00  0.00    +0.020 A 
ATOM      5  C   LIG    1        6.786  -0.502   1.638  0.00  0.00    +0.060 A 
ATOM      6  C   LIG    1        6.890   0.876   1.675  0.00  0.00    -0.010 A 
ATOM      7  C   LIG    1        5.887   1.660   1.132  0.00  0.00    +0.110 A 
ATOM      8  F   LIG    1        5.990   3.007   1.163  0.00  0.00    -0.140 F 
ENDBRANCH   1   2
BRANCH   1  14
ATOM      9  C   LIG    1        4.663   4.683  -1.012  0.00  0.00    +0.330 C 
ATOM     10  N   LIG    1        4.461   3.500  -1.852  0.00  0.00    -0.440 N 
ATOM     11  C   LIG    1        4.674   3.416  -3.202  0.00  0.00    +0.130 A 
ATOM     12  C   LIG    1        4.361   2.159  -3.569  0.00  0.00    +0.140 A 
ATOM     13  N   LIG    1        3.973   1.491  -2.472  0.00  0.00    -0.470 NA
ATOM     14  C   LIG    1        4.033   2.287  -1.440  0.00  0.00    +0.190 A 
ENDBRANCH   1  14
BRANCH   1  15
ATOM     15  N   LIG    1        2.420   1.166  -0.015  0.00  0.00    -0.710 N 
ATOM     16  H   LIG    1        2.433   0.196  -0.020  0.00  0.00    +0.410 HD
ATOM     17  C   LIG    1        1.244   1.824   0.000  0.00  0.00    +0.560 C 
ATOM     18  O   LIG    1        1.227   3.041   0.007  0.00  0.00    -0.540 OA
BRANCH  17  19
ATOM     19  C   LIG    1       -0.013   1.076   0.008  0.00  0.00    -0.050 C 
ATOM     20  C   LIG    1       -1.191   1.735   0.017  0.00  0.00    +0.130 C 
BRANCH  20  21
ATOM     21  C   LIG    1       -2.453   0.983   0.019  0.00  0.00    -0.140 A 
ATOM     22  C   LIG    1       -2.667  -0.038  -0.917  0.00  0.00    +0.140 A 
ATOM     23  C   LIG    1       -3.856  -0.742  -0.904  0.00  0.00    -0.010 A 
ATOM     24  C   LIG    1       -4.837  -0.436   0.022  0.00  0.00    +0.100 A 
ATOM     25  C   LIG    1       -4.637   0.573   0.947  0.00  0.00    -0.010 A 
ATOM     26  F   LIG    1       -1.713  -0.335  -1.826  0.00  0.00    -0.120 F 
ATOM     27  C   LIG    1       -3.453   1.286   0.953  0.00  0.00    +0.150 A 
ATOM     28  F   LIG    1       -3.260   2.271   1.857  0.00  0.00    -0.120 F 
ENDBRANCH  20  21
ENDBRANCH  17  19
ENDBRANCH   1  15
TORSDOF 5
