REMARK  Name = ZINCrH000004pB3o.0
REMARK                            x       y       z     vdW  Elec       q    Type
REMARK                         _______ _______ _______ _____ _____    ______ ____
ROOT
ATOM      1  C   LIG    1       -0.630   2.228  -0.486  0.00  0.00    -0.060 A 
ATOM      2  C   LIG    1        0.313   1.274  -0.150  0.00  0.00    -0.010 A 
ATOM      3  C   LIG    1        1.661   1.567  -0.242  0.00  0.00    +0.030 A 
ATOM      4  C   LIG    1        2.071   2.816  -0.665  0.00  0.00    +0.020 A 
ATOM      5  C   LIG    1        1.127   3.779  -0.998  0.00  0.00    +0.140 A 
ATOM      6  C   LIG    1       -0.227   3.482  -0.905  0.00  0.00    +0.020 A 
ENDROOT
BRANCH   5   7
ATOM      7  N   LIG    1        1.538   5.045  -1.426  0.00  0.00    -0.660 N 
ATOM      8  H   LIG    1        1.021   5.830  -1.187  0.00  0.00    +0.410 HD
ATOM      9  C   LIG    1        2.654   5.174  -2.172  0.00  0.00    +0.580 C 
ATOM     10  O   LIG    1        3.351   4.203  -2.398  0.00  0.00    -0.490 OA
BRANCH   9  11
ATOM     11  C   LIG    1        3.028   6.491  -2.713  0.00  0.00    -0.130 A 
ATOM     12  C   LIG    1        3.673   7.432  -1.920  0.00  0.00    +0.120 A 
ATOM     13  C   LIG    1        4.016   8.670  -2.471  0.00  0.00    +0.000 A 
ATOM     14  C   LIG    1        3.724   8.970  -3.756  0.00  0.00    +0.320 A 
ATOM     15  N   LIG    1        3.089   8.084  -4.573  0.00  0.00    -0.270 N 
ATOM     16  N   LIG    1        2.684   8.155  -5.912  0.00  0.00    -0.300 NA
ATOM     17  C   LIG    1        2.105   7.022  -6.242  0.00  0.00    +0.320 A 
ATOM     18  C   LIG    1        2.109   6.176  -5.140  0.00  0.00    -0.260 A 
ATOM     19 BR   LIG    1        1.400   4.424  -5.074  0.00  0.00    +0.000 Br
ATOM     20  C   LIG    1        2.726   6.847  -4.101  0.00  0.00    +0.160 A 
ENDBRANCH   9  11
ENDBRANCH   5   7
BRANCH   1  22
ATOM     21  C   LIG    1       -2.311   0.810   0.658  0.00  0.00    +0.000 C 
ATOM     22  C   LIG    1       -2.098   1.903  -0.391  0.00  0.00    +0.220 C 
BRANCH  22  23
ATOM     23  N   LIG    1       -2.842   3.108  -0.002  0.00  0.00    -0.530 NA
ATOM     24  C   LIG    1       -2.484   3.531   1.360  0.00  0.00    +0.150 C 
ATOM     25  C   LIG    1       -3.236   4.820   1.702  0.00  0.00    +0.220 C 
ATOM     26  O   LIG    1       -4.642   4.599   1.556  0.00  0.00    -0.380 OA
ATOM     27  C   LIG    1       -5.026   4.187   0.241  0.00  0.00    +0.220 C 
ATOM     28  C   LIG    1       -4.292   2.891  -0.116  0.00  0.00    +0.150 C 
ENDBRANCH  22  23
ENDBRANCH   1  22
TORSDOF 4
