REMARK  Name = ZINCpk00000y6vt4.0
REMARK                            x       y       z     vdW  Elec       q    Type
REMARK                         _______ _______ _______ _____ _____    ______ ____
ROOT
ATOM      1  O   LIG    1       -6.281  -5.518   0.947  0.00  0.00    -0.520 OA
ATOM      2  C   LIG    1       -6.323  -4.704   0.048  0.00  0.00    +0.510 C 
ATOM      3  N   LIG    1       -5.282  -3.873  -0.157  0.00  0.00    -0.610 N 
ATOM      4  C   LIG    1       -5.201  -2.841  -1.208  0.00  0.00    +0.260 C 
ATOM      5  C   LIG    1       -3.684  -2.619  -1.429  0.00  0.00    +0.020 C 
ATOM      6  C   LIG    1       -3.135  -2.754   0.016  0.00  0.00    +0.250 C 
ATOM      7  C   LIG    1       -4.041  -3.844   0.629  0.00  0.00    +0.260 C 
ENDROOT
BRANCH   6   8
ATOM      8  N   LIG    1       -1.737  -3.191   0.001  0.00  0.00    -0.690 N 
ATOM      9  H   LIG    1       -1.524  -4.137  -0.006  0.00  0.00    +0.420 HD
BRANCH   8  10
ATOM     10  C   LIG    1       -0.714  -2.247  -0.004  0.00  0.00    +0.420 A 
ATOM     11  N   LIG    1       -1.010  -0.969   0.006  0.00  0.00    -0.350 NA
ATOM     12  N   LIG    1        0.002  -0.004   0.002  0.00  0.00    -0.250 N 
ATOM     13  C   LIG    1       -0.016   1.358   0.009  0.00  0.00    +0.170 A 
ATOM     14  C   LIG    1        1.272   1.777  -0.001  0.00  0.00    +0.200 A 
ATOM     15  N   LIG    1        2.066   0.706  -0.014  0.00  0.00    -0.460 NA
ATOM     16  C   LIG    1        1.317  -0.389  -0.013  0.00  0.00    +0.140 A 
ATOM     17  C   LIG    1        1.634  -1.762  -0.023  0.00  0.00    +0.180 A 
ATOM     18  C   LIG    1        0.627  -2.675  -0.018  0.00  0.00    -0.050 A 
ENDBRANCH   8  10
ENDBRANCH   6   8
BRANCH   2  19
ATOM     19  C   LIG    1       -7.539  -4.623  -0.839  0.00  0.00    +0.270 C 
BRANCH  19  20
ATOM     20  C   LIG    1       -8.216  -3.292  -0.643  0.00  0.00    -0.120 A 
ATOM     21  C   LIG    1       -9.046  -3.092   0.445  0.00  0.00    +0.020 A 
ATOM     22  C   LIG    1       -9.663  -1.869   0.627  0.00  0.00    +0.020 A 
ATOM     23  C   LIG    1       -9.459  -0.848  -0.283  0.00  0.00    +0.020 A 
ATOM     24  C   LIG    1       -8.633  -1.050  -1.374  0.00  0.00    +0.010 A 
ATOM     25  C   LIG    1       -8.012  -2.272  -1.554  0.00  0.00    +0.020 A 
ENDBRANCH  19  20
BRANCH  19  26
ATOM     26  O   LIG    1       -8.446  -5.674  -0.500  0.00  0.00    -0.530 OA
ATOM     27  H   LIG    1       -8.758  -5.644   0.414  0.00  0.00    +0.380 HD
ENDBRANCH  19  26
ENDBRANCH   2  19
TORSDOF 5
