REMARK  Name = ZINCrH000004rePf.0
REMARK                            x       y       z     vdW  Elec       q    Type
REMARK                         _______ _______ _______ _____ _____    ______ ____
ROOT
ATOM      1  C   LIG    1       -4.479  -0.216   3.039  0.00  0.00    -0.060 A 
ATOM      2  N   LIG    1       -3.837   0.151   4.117  0.00  0.00    -0.210 NA
ATOM      3  N   LIG    1       -4.367  -0.169   5.218  0.00  0.00    -0.240 NA
ATOM      4  C   LIG    1       -5.483  -0.833   5.183  0.00  0.00    -0.000 A 
ATOM      5  S   LIG    1       -5.928  -1.083   3.548  0.00  0.00    +0.240 S 
ENDROOT
BRANCH   1   8
ATOM      6  N   LIG    1       -2.927   0.722   1.401  0.00  0.00    -0.700 N 
ATOM      7  H   LIG    1       -2.382   1.041   2.138  0.00  0.00    +0.410 HD
ATOM      8  C   LIG    1       -4.064   0.043   1.649  0.00  0.00    +0.600 C 
ATOM      9  O   LIG    1       -4.747  -0.357   0.726  0.00  0.00    -0.520 OA
BRANCH   6  10
ATOM     10  C   LIG    1       -2.514   0.980   0.019  0.00  0.00    +0.320 C 
BRANCH  10  15
ATOM     11  C   LIG    1        2.451   3.937  -0.001  0.00  0.00    +0.090 C 
ATOM     12  C   LIG    1        1.156   3.165   0.008  0.00  0.00    -0.070 A 
ATOM     13  C   LIG    1        1.175   1.783   0.000  0.00  0.00    +0.010 A 
ATOM     14  C   LIG    1       -0.013   1.076   0.008  0.00  0.00    +0.040 A 
ATOM     15  C   LIG    1       -1.219   1.751   0.017  0.00  0.00    -0.120 A 
ATOM     16  C   LIG    1       -1.238   3.133   0.030  0.00  0.00    +0.040 A 
ATOM     17  C   LIG    1       -0.050   3.840   0.023  0.00  0.00    +0.010 A 
ENDBRANCH  10  15
ENDBRANCH   6  10
ENDBRANCH   1   8
BRANCH   4  18
ATOM     18  C   LIG    1       -6.258  -1.306   6.385  0.00  0.00    +0.330 C 
BRANCH  18  19
ATOM     19  N   LIG    1       -7.220  -0.271   6.786  0.00  0.00    -0.670 NA
ATOM     20  H   LIG    1       -7.828  -0.025   6.020  0.00  0.00    +0.350 HD
BRANCH  19  21
ATOM     21  C   LIG    1       -7.996  -0.698   7.958  0.00  0.00    +0.230 C 
ATOM     22  C   LIG    1       -9.191  -1.537   7.500  0.00  0.00    +0.010 C 
BRANCH  21  23
ATOM     23  C   LIG    1       -8.490   0.515   8.704  0.00  0.00    -0.040 A 
ATOM     24  C   LIG    1       -8.945   1.617   8.005  0.00  0.00    +0.020 A 
ATOM     25  C   LIG    1       -9.403   2.729   8.688  0.00  0.00    +0.040 A 
ATOM     26  C   LIG    1       -9.396   2.743  10.069  0.00  0.00    -0.030 A 
ATOM     27  C   LIG    1       -8.936   1.641  10.770  0.00  0.00    +0.100 A 
ATOM     28  F   LIG    1       -8.929   1.654  12.121  0.00  0.00    -0.140 F 
ATOM     29  C   LIG    1       -8.482   0.526  10.086  0.00  0.00    -0.020 A 
ENDBRANCH  21  23
ENDBRANCH  19  21
ENDBRANCH  18  19
ENDBRANCH   4  18
TORSDOF 7
