REMARK  Name = ZINCb70000003ZeT.0
REMARK                            x       y       z     vdW  Elec       q    Type
REMARK                         _______ _______ _______ _____ _____    ______ ____
ROOT
ATOM      1  C   LIG    1       -0.728   1.579   1.268  0.00  0.00    +0.100 C 
ATOM      2  C   LIG    1       -0.013   1.086   0.008  0.00  0.00    +0.170 C 
ATOM      3  C   LIG    1        1.423   1.615  -0.003  0.00  0.00    +0.080 C 
ATOM      4  C   LIG    1        1.397   3.146   0.006  0.00  0.00    +0.080 C 
ATOM      5  C   LIG    1        0.588   3.640  -1.196  0.00  0.00    -0.460 C 
ATOM      6  C   LIG    1       -0.817   3.036  -1.141  0.00  0.00    +0.290 C 
ATOM      7  N   LIG    1       -0.726   1.571  -1.179  0.00  0.00    -0.500 N 
ATOM      8  H   LIG    1       -1.655   1.178  -1.197  0.00  0.00    +0.440 HD
ATOM      9  H   LIG    1       -0.227   1.288  -2.009  0.00  0.00    +0.430 HD
ENDROOT
BRANCH   5  10
ATOM     10  S   LIG    1        0.471   5.449  -1.146  0.00  0.00    +2.430 S 
ATOM     11  O   LIG    1        1.751   5.994  -1.438  0.00  0.00    -0.910 OA
ATOM     12  O   LIG    1       -0.186   5.828   0.055  0.00  0.00    -0.910 OA
ATOM     13  C   LIG    1       -0.634   5.793  -2.543  0.00  0.00    -0.240 C 
ENDBRANCH   5  10
TORSDOF 1
