REMARK  Name = ZINCpe00000VVGya.0
REMARK                            x       y       z     vdW  Elec       q    Type
REMARK                         _______ _______ _______ _____ _____    ______ ____
ROOT
ATOM      1  C   LIG    1        2.567   0.035   1.227  0.00  0.00    +0.070 C 
ATOM      2  C   LIG    1        2.462   0.920  -0.017  0.00  0.00    +0.270 C 
ENDROOT
BRANCH   2   3
ATOM      3  N   LIG    1        3.562   1.887  -0.022  0.00  0.00    -0.530 N 
ATOM      4  C   LIG    1        4.439   1.890  -1.047  0.00  0.00    +0.600 A 
ATOM      5  C   LIG    1        5.497   2.825  -1.047  0.00  0.00    -0.160 A 
ATOM      6  C   LIG    1        5.609   3.719   0.011  0.00  0.00    +0.320 A 
ATOM      7  N   LIG    1        4.677   3.665   1.034  0.00  0.00    -0.510 N 
ATOM      8  C   LIG    1        4.772   4.598   2.160  0.00  0.00    +0.340 C 
ATOM      9  N   LIG    1        6.678   4.483  -0.229  0.00  0.00    -0.500 NA
ATOM     10  C   LIG    1        7.235   4.125  -1.358  0.00  0.00    +0.500 A 
ATOM     11  N   LIG    1        6.544   3.105  -1.903  0.00  0.00    -0.410 N 
ATOM     12  C   LIG    1        6.845   2.422  -3.163  0.00  0.00    +0.360 C 
ATOM     13  O   LIG    1        4.320   1.095  -1.962  0.00  0.00    -0.520 OA
ATOM     14  C   LIG    1        3.680   2.761   0.992  0.00  0.00    +0.720 A 
ATOM     15  O   LIG    1        2.868   2.732   1.897  0.00  0.00    -0.520 OA
ENDBRANCH   2   3
BRANCH   2  16
ATOM     16  C   LIG    1        1.147   1.655   0.000  0.00  0.00    +0.520 C 
ATOM     17  N   LIG    1       -0.011   0.966   0.007  0.00  0.00    -0.730 N 
ATOM     18  H   LIG    1        0.002  -0.004   0.002  0.00  0.00    +0.400 HD
ATOM     19  O   LIG    1        1.130   2.868   0.007  0.00  0.00    -0.510 OA
BRANCH  17  20
ATOM     20  C   LIG    1       -1.290   1.681   0.017  0.00  0.00    +0.230 C 
ATOM     21  C   LIG    1       -1.621   2.092   1.467  0.00  0.00    +0.020 C 
ATOM     22  C   LIG    1       -2.612   3.223   1.428  0.00  0.00    +0.000 C 
ATOM     23  C   LIG    1       -4.069   2.734   1.537  0.00  0.00    +0.000 C 
ATOM     24  C   LIG    1       -4.340   1.470   0.698  0.00  0.00    +0.000 C 
ATOM     25  C   LIG    1       -3.684   1.526  -0.655  0.00  0.00    +0.030 C 
ATOM     26  C   LIG    1       -2.313   0.825  -0.564  0.00  0.00    +0.010 C 
ENDBRANCH  17  20
ENDBRANCH   2  16
TORSDOF 3
