REMARK  Name = ZINCAx0000000ft6.0
REMARK                            x       y       z     vdW  Elec       q    Type
REMARK                         _______ _______ _______ _____ _____    ______ ____
ROOT
ATOM      1  N   LIG    1       -4.975  -1.773   0.071  0.00  0.00    -0.620 N 
ATOM      2  H   LIG    1       -5.327  -2.677   0.081  0.00  0.00    +0.420 HD
ATOM      3  C   LIG    1       -5.816  -0.721   0.075  0.00  0.00    +0.510 C 
ATOM      4  O   LIG    1       -5.375   0.408   0.062  0.00  0.00    -0.470 OA
ENDROOT
BRANCH   1   6
ATOM      5  C   LIG    1       -2.660  -2.567   0.046  0.00  0.00    -0.200 A 
ATOM      6  C   LIG    1       -3.609  -1.565   0.052  0.00  0.00    +0.040 A 
ATOM      7  S   LIG    1       -2.858  -0.034   0.038  0.00  0.00    +0.370 S 
ATOM      8  C   LIG    1       -1.256  -0.755   0.015  0.00  0.00    -0.330 A 
ATOM      9  C   LIG    1       -1.352  -2.099   0.025  0.00  0.00    +0.040 A 
ATOM     10  C   LIG    1       -0.152  -3.011   0.015  0.00  0.00    +0.130 C 
BRANCH   8  11
ATOM     11  C   LIG    1        0.001  -0.004  -0.006  0.00  0.00    +0.600 C 
ATOM     12  N   LIG    1       -0.018   1.344  -0.015  0.00  0.00    -0.620 N 
ATOM     13  C   LIG    1       -1.298   2.057  -0.010  0.00  0.00    +0.300 C 
ATOM     14  C   LIG    1        1.239   2.095  -0.036  0.00  0.00    +0.300 C 
ATOM     15  O   LIG    1        1.064  -0.597  -0.016  0.00  0.00    -0.520 OA
ENDBRANCH   8  11
BRANCH   5  16
ATOM     16  C   LIG    1       -3.001  -3.994   0.061  0.00  0.00    +0.530 C 
ATOM     17  O   LIG    1       -3.129  -4.577   1.120  0.00  0.00    -0.490 OA
BRANCH  16  18
ATOM     18  O   LIG    1       -3.173  -4.658  -1.100  0.00  0.00    -0.350 OA
BRANCH  18  20
ATOM     19  C   LIG    1       -3.664  -6.646  -2.418  0.00  0.00    +0.070 C 
ATOM     20  C   LIG    1       -3.509  -6.067  -1.010  0.00  0.00    +0.200 C 
ENDBRANCH  18  20
ENDBRANCH  16  18
ENDBRANCH   5  16
ENDBRANCH   1   6
BRANCH   3  21
ATOM     21  C   LIG    1       -7.306  -0.948   0.096  0.00  0.00    +0.290 C 
BRANCH  21  22
ATOM     22  O   LIG    1       -7.991   0.333   0.096  0.00  0.00    -0.320 OA
BRANCH  22  23
ATOM     23  C   LIG    1       -9.333   0.306   0.114  0.00  0.00    +0.480 C 
ATOM     24  O   LIG    1       -9.916  -0.752   0.129  0.00  0.00    -0.490 OA
BRANCH  23  25
ATOM     25  C   LIG    1      -10.112   1.596   0.116  0.00  0.00    +0.050 C 
ATOM     26  C   LIG    1       -9.791   2.435   1.375  0.00  0.00    +0.110 C 
ATOM     27  C   LIG    1      -11.114   3.067   1.747  0.00  0.00    +0.520 C 
ATOM     28  N   LIG    1      -12.121   2.432   1.123  0.00  0.00    -0.560 N 
ATOM     29  O   LIG    1      -11.247   4.008   2.499  0.00  0.00    -0.500 OA
ATOM     30  C   LIG    1      -11.623   1.329   0.292  0.00  0.00    +0.310 C 
BRANCH  28  31
ATOM     31  C   LIG    1      -13.471   2.778   1.249  0.00  0.00    +0.160 A 
ATOM     32  C   LIG    1      -13.857   3.757   2.155  0.00  0.00    +0.000 A 
ATOM     33  C   LIG    1      -15.190   4.100   2.273  0.00  0.00    +0.040 A 
ATOM     34  C   LIG    1      -16.141   3.461   1.499  0.00  0.00    -0.110 A 
ATOM     35  C   LIG    1      -15.760   2.482   0.600  0.00  0.00    +0.040 A 
ATOM     36  C   LIG    1      -17.595   3.833   1.636  0.00  0.00    +0.100 C 
ATOM     37  C   LIG    1      -14.429   2.139   0.473  0.00  0.00    -0.020 A 
ENDBRANCH  28  31
ENDBRANCH  23  25
ENDBRANCH  22  23
ENDBRANCH  21  22
ENDBRANCH   3  21
TORSDOF 10
