REMARK  Name = ZINCpe000027pGZd.0
REMARK                            x       y       z     vdW  Elec       q    Type
REMARK                         _______ _______ _______ _____ _____    ______ ____
ROOT
ATOM      1  C   LIG    1        0.063  -0.096   0.117  0.00  0.00    +0.420 A 
ATOM      2  C   LIG    1        0.981  -0.182  -0.942  0.00  0.00    -0.020 A 
ATOM      3  N   LIG    1        0.972  -0.763  -2.166  0.00  0.00    -0.440 NA
ATOM      4  C   LIG    1        2.106  -0.535  -2.763  0.00  0.00    +0.480 A 
ATOM      5  N   LIG    1        2.915   0.208  -1.956  0.00  0.00    -0.470 N 
ATOM      6  C   LIG    1        2.228   0.448  -0.793  0.00  0.00    +0.290 A 
ATOM      7  N   LIG    1        2.492   1.099   0.336  0.00  0.00    -0.510 NA
ATOM      8  C   LIG    1        1.600   1.153   1.303  0.00  0.00    +0.520 A 
ATOM      9  N   LIG    1        0.416   0.576   1.208  0.00  0.00    -0.560 NA
ENDROOT
BRANCH   1  10
ATOM     10  N   LIG    1       -1.181  -0.697   0.028  0.00  0.00    -0.460 N 
BRANCH  10  11
ATOM     11  C   LIG    1       -2.255   0.283   0.235  0.00  0.00    +0.150 C 
ATOM     12  C   LIG    1       -2.001   1.554  -0.613  0.00  0.00    +0.010 C 
ATOM     13  C   LIG    1       -3.423   2.153  -0.764  0.00  0.00    +0.020 C 
ATOM     14  C   LIG    1       -4.339   0.922  -0.929  0.00  0.00    -0.030 C 
ATOM     15  C   LIG    1       -5.668   1.156  -0.207  0.00  0.00    +0.000 C 
ATOM     16  C   LIG    1       -3.596  -0.267  -0.294  0.00  0.00    +0.050 C 
ENDBRANCH  10  11
BRANCH  10  17
ATOM     17  C   LIG    1       -1.296  -1.813   0.976  0.00  0.00    +0.220 C 
BRANCH  17  18
ATOM     18  C   LIG    1       -2.447  -2.726   0.552  0.00  0.00    +0.170 C 
BRANCH  18  20
ATOM     19  C   LIG    1       -3.197  -4.133  -1.239  0.00  0.00    +0.190 C 
ATOM     20  O   LIG    1       -2.177  -3.261  -0.746  0.00  0.00    -0.370 OA
ENDBRANCH  18  20
ENDBRANCH  17  18
ENDBRANCH  10  17
ENDBRANCH   1  10
BRANCH   5  21
ATOM     21  C   LIG    1        4.270   0.667  -2.273  0.00  0.00    +0.290 C 
BRANCH  21  22
ATOM     22  C   LIG    1        5.289  -0.321  -1.702  0.00  0.00    +0.200 C 
BRANCH  22  23
ATOM     23  O   LIG    1        5.212  -0.315  -0.276  0.00  0.00    -0.540 OA
ATOM     24  H   LIG    1        5.395   0.546   0.124  0.00  0.00    +0.380 HD
ENDBRANCH  22  23
BRANCH  22  25
ATOM     25  C   LIG    1        6.697   0.090  -2.139  0.00  0.00    +0.160 C 
BRANCH  25  26
ATOM     26  O   LIG    1        7.637  -0.895  -1.705  0.00  0.00    -0.560 OA
ATOM     27  H   LIG    1        8.552  -0.699  -1.948  0.00  0.00    +0.380 HD
ENDBRANCH  25  26
ENDBRANCH  22  25
ENDBRANCH  21  22
ENDBRANCH   5  21
TORSDOF 10
