REMARK  Name = ZINCpk000000nkZt.0
REMARK                            x       y       z     vdW  Elec       q    Type
REMARK                         _______ _______ _______ _____ _____    ______ ____
ROOT
ATOM      1  N   LIG    1       -0.410   7.191  -1.211  0.00  0.00    -0.730 N 
ATOM      2  H   LIG    1       -0.175   7.832  -0.522  0.00  0.00    +0.410 HD
ATOM      3  C   LIG    1       -0.356   5.870  -0.951  0.00  0.00    +0.500 C 
ATOM      4  O   LIG    1       -0.650   5.069  -1.813  0.00  0.00    -0.530 OA
ENDROOT
BRANCH   1   5
ATOM      5  C   LIG    1       -0.824   7.660  -2.536  0.00  0.00    +0.290 C 
BRANCH   5   6
ATOM      6  C   LIG    1       -0.800   9.190  -2.566  0.00  0.00    +0.200 C 
BRANCH   6   7
ATOM      7  O   LIG    1        0.544   9.648  -2.406  0.00  0.00    -0.310 OA
BRANCH   7  11
ATOM      8  C   LIG    1        1.144  13.730  -2.418  0.00  0.00    -0.100 A 
ATOM      9  C   LIG    1        2.220  12.874  -2.263  0.00  0.00    +0.050 A 
ATOM     10  C   LIG    1        2.021  11.507  -2.259  0.00  0.00    -0.020 A 
ATOM     11  C   LIG    1        0.742  10.993  -2.410  0.00  0.00    +0.120 A 
ATOM     12  C   LIG    1       -0.335  11.853  -2.571  0.00  0.00    -0.080 A 
ATOM     13  C   LIG    1       -0.132  13.219  -2.570  0.00  0.00    +0.050 A 
BRANCH   8  15
ATOM     14  C   LIG    1        2.303  15.595  -3.571  0.00  0.00    +0.040 C 
ATOM     15  C   LIG    1        1.364  15.221  -2.422  0.00  0.00    -0.030 C 
ATOM     16  C   LIG    1        1.988  15.648  -1.093  0.00  0.00    +0.040 C 
ATOM     17  C   LIG    1        0.022  15.933  -2.608  0.00  0.00    +0.030 C 
ENDBRANCH   8  15
ENDBRANCH   7  11
ENDBRANCH   6   7
ENDBRANCH   5   6
ENDBRANCH   1   5
BRANCH   3  18
ATOM     18  C   LIG    1        0.070   5.388   0.412  0.00  0.00    +0.350 C 
BRANCH  18  19
ATOM     19  N   LIG    1        0.046   3.923   0.441  0.00  0.00    -0.600 N 
ATOM     20  C   LIG    1       -1.178   3.228   0.844  0.00  0.00    +0.290 C 
ATOM     21  C   LIG    1       -1.330   1.945   0.019  0.00  0.00    +0.090 C 
ATOM     22  C   LIG    1       -0.014   1.208   0.009  0.00  0.00    +0.520 C 
ATOM     23  N   LIG    1        1.141   1.897   0.001  0.00  0.00    -0.670 N 
ATOM     24  H   LIG    1        1.982   1.419  -0.075  0.00  0.00    +0.430 HD
ATOM     25  O   LIG    1        0.002  -0.004   0.002  0.00  0.00    -0.500 OA
ATOM     26  C   LIG    1        1.149   3.237   0.098  0.00  0.00    +0.720 C 
ATOM     27  O   LIG    1        2.177   3.843  -0.130  0.00  0.00    -0.550 OA
ENDBRANCH  18  19
ENDBRANCH   3  18
TORSDOF 7
