REMARK  Name = ZINCnE000001QR1M.0
REMARK                            x       y       z     vdW  Elec       q    Type
REMARK                         _______ _______ _______ _____ _____    ______ ____
ROOT
ATOM      1  C   LIG    1        1.120   3.615   0.011  0.00  0.00    -0.030 A 
ATOM      2  C   LIG    1        2.223   4.436   0.011  0.00  0.00    +0.090 A 
ATOM      3  C   LIG    1        1.761   5.767   0.018  0.00  0.00    -0.260 A 
ATOM      4  C   LIG    1        0.384   5.734   0.030  0.00  0.00    +0.130 A 
ATOM      5  C   LIG    1       -0.184   7.075   0.044  0.00  0.00    -0.150 A 
ATOM      6  C   LIG    1        0.751   8.061   0.041  0.00  0.00    -0.150 A 
ATOM      7  C   LIG    1        0.428   9.533   0.053  0.00  0.00    +0.150 C 
ATOM      8  S   LIG    1        2.331   7.430   0.023  0.00  0.00    +0.140 S 
ATOM      9  N   LIG    1       -0.008   4.407   0.026  0.00  0.00    -0.520 N 
ATOM     10  H   LIG    1       -0.924   4.088   0.032  0.00  0.00    +0.420 HD
ENDROOT
BRANCH   1  13
ATOM     11  N   LIG    1       -0.018   1.461   0.010  0.00  0.00    -0.720 N 
ATOM     12  H   LIG    1       -0.864   1.934   0.017  0.00  0.00    +0.410 HD
ATOM     13  C   LIG    1        1.140   2.151   0.003  0.00  0.00    +0.600 C 
ATOM     14  O   LIG    1        2.202   1.556  -0.011  0.00  0.00    -0.540 OA
BRANCH  11  15
ATOM     15  C   LIG    1        0.002  -0.004   0.002  0.00  0.00    +0.330 C 
ATOM     16  C   LIG    1        0.148  -0.520   1.435  0.00  0.00    +0.040 C 
BRANCH  15  20
ATOM     17  C   LIG    1       -4.807   0.260  -1.194  0.00  0.00    +0.180 C 
ATOM     18  C   LIG    1       -3.442  -0.374  -1.113  0.00  0.00    +0.060 A 
ATOM     19  N   LIG    1       -2.406   0.171  -0.571  0.00  0.00    -0.470 NA
ATOM     20  C   LIG    1       -1.284  -0.521  -0.589  0.00  0.00    +0.070 A 
ATOM     21  C   LIG    1       -1.383  -1.720  -1.170  0.00  0.00    -0.080 A 
ATOM     22  S   LIG    1       -3.045  -1.922  -1.718  0.00  0.00    +0.120 S 
ENDBRANCH  15  20
ENDBRANCH  11  15
ENDBRANCH   1  13
BRANCH   5  23
ATOM     23  C   LIG    1       -1.626   7.335   0.058  0.00  0.00    +0.540 C 
ATOM     24  O   LIG    1       -2.040   8.488   0.069  0.00  0.00    -0.680 OA
ATOM     25  O   LIG    1       -2.417   6.401   0.060  0.00  0.00    -0.690 OA
ENDBRANCH   5  23
TORSDOF 4
