REMARK  Name = ZINCpk00001AZiFS.0
REMARK                            x       y       z     vdW  Elec       q    Type
REMARK                         _______ _______ _______ _____ _____    ______ ____
ROOT
ATOM      1  C   LIG    1       -1.571  -5.242  -0.704  0.00  0.00    +0.380 C 
ATOM      2  N   LIG    1       -0.395  -4.370  -0.644  0.00  0.00    -0.280 N 
ATOM      3  C   LIG    1       -0.213  -3.379   0.255  0.00  0.00    +0.170 A 
ATOM      4  C   LIG    1        0.985  -2.809  -0.015  0.00  0.00    -0.140 A 
ATOM      5  C   LIG    1        1.498  -3.515  -1.129  0.00  0.00    +0.000 A 
ATOM      6  N   LIG    1        0.611  -4.439  -1.440  0.00  0.00    -0.260 NA
ENDROOT
BRANCH   5   7
ATOM      7  C   LIG    1        2.784  -3.266  -1.810  0.00  0.00    +0.610 C 
ATOM      8  N   LIG    1        3.145  -4.023  -2.866  0.00  0.00    -0.720 N 
ATOM      9  H   LIG    1        2.560  -4.731  -3.177  0.00  0.00    +0.410 HD
ATOM     10  O   LIG    1        3.517  -2.378  -1.420  0.00  0.00    -0.510 OA
BRANCH   8  11
ATOM     11  C   LIG    1        4.421  -3.776  -3.542  0.00  0.00    +0.310 C 
BRANCH  11  12
ATOM     12  C   LIG    1        4.583  -4.751  -4.680  0.00  0.00    -0.050 C 
ATOM     13  C   LIG    1        4.813  -4.305  -5.907  0.00  0.00    +0.030 C 
BRANCH  13  14
ATOM     14  C   LIG    1        4.973  -5.261  -7.023  0.00  0.00    -0.060 A 
ATOM     15  C   LIG    1        4.887  -6.634  -6.787  0.00  0.00    +0.010 A 
ATOM     16  C   LIG    1        5.030  -7.521  -7.834  0.00  0.00    +0.000 A 
ATOM     17  C   LIG    1        5.271  -7.052  -9.113  0.00  0.00    +0.000 A 
ATOM     18  C   LIG    1        5.362  -5.693  -9.353  0.00  0.00    +0.000 A 
ATOM     19  C   LIG    1        5.215  -4.795  -8.316  0.00  0.00    +0.020 A 
ENDBRANCH  13  14
ENDBRANCH  11  12
ENDBRANCH   8  11
ENDBRANCH   5   7
BRANCH   4  20
ATOM     20  C   LIG    1        1.632  -1.659   0.714  0.00  0.00    +0.270 C 
BRANCH  20  21
ATOM     21  N   LIG    1        1.421  -0.418  -0.044  0.00  0.00    -0.500 NA
ATOM     22  C   LIG    1        0.002  -0.004   0.002  0.00  0.00    +0.160 C 
ATOM     23  C   LIG    1       -0.019   1.536   0.011  0.00  0.00    -0.020 C 
ATOM     24  C   LIG    1        1.468   1.960  -0.001  0.00  0.00    +0.170 C 
ATOM     25  C   LIG    1        2.191   0.705   0.550  0.00  0.00    +0.190 C 
BRANCH  24  26
ATOM     26  O   LIG    1        1.680   3.083   0.856  0.00  0.00    -0.560 OA
ATOM     27  H   LIG    1        1.187   3.874   0.598  0.00  0.00    +0.380 HD
ENDBRANCH  24  26
ENDBRANCH  20  21
ENDBRANCH   4  20
TORSDOF 7
