REMARK  Name = ZINCpk00000FjqmL.0
REMARK                            x       y       z     vdW  Elec       q    Type
REMARK                         _______ _______ _______ _____ _____    ______ ____
ROOT
ATOM      1  C   LIG    1        3.524   1.907  -0.021  0.00  0.00    +0.520 C 
ATOM      2  N   LIG    1        2.366   1.217  -0.014  0.00  0.00    -0.520 N 
ATOM      3  H   LIG    1        2.379   0.247  -0.019  0.00  0.00    +0.440 HD
ATOM      4  O   LIG    1        3.508   3.119  -0.015  0.00  0.00    -0.510 OA
ENDROOT
BRANCH   2   5
ATOM      5  N   LIG    1        1.143   1.901   0.001  0.00  0.00    -0.510 N 
ATOM      6  H   LIG    1        1.130   2.871   0.007  0.00  0.00    +0.430 HD
ATOM      7  C   LIG    1       -0.014   1.211   0.009  0.00  0.00    +0.570 C 
ATOM      8  O   LIG    1        0.002  -0.004   0.002  0.00  0.00    -0.520 OA
BRANCH   7   9
ATOM      9  C   LIG    1       -1.305   1.933   0.019  0.00  0.00    -0.130 A 
ATOM     10  C   LIG    1       -1.327   3.328   0.026  0.00  0.00    +0.110 A 
ATOM     11  C   LIG    1       -2.535   3.996   0.036  0.00  0.00    +0.040 A 
ATOM     12  C   LIG    1       -3.721   3.285   0.037  0.00  0.00    +0.130 A 
ATOM     13  C   LIG    1       -3.706   1.901   0.030  0.00  0.00    -0.050 A 
ATOM     14  C   LIG    1       -2.506   1.222   0.015  0.00  0.00    +0.180 A 
BRANCH  13  15
ATOM     15  N   LIG    1       -4.981   1.149   0.032  0.00  0.00    +0.020 N 
ATOM     16  O   LIG    1       -4.969  -0.069   0.025  0.00  0.00    -0.150 OA
ATOM     17  O   LIG    1       -6.042   1.747   0.039  0.00  0.00    -0.150 OA
ENDBRANCH  13  15
ENDBRANCH   7   9
ENDBRANCH   2   5
BRANCH   1  18
ATOM     18  C   LIG    1        4.839   1.171  -0.038  0.00  0.00    +0.280 C 
BRANCH  18  19
ATOM     19  O   LIG    1        5.930   2.130  -0.043  0.00  0.00    -0.320 OA
BRANCH  19  20
ATOM     20  C   LIG    1        7.177   1.633  -0.058  0.00  0.00    +0.500 C 
ATOM     21  O   LIG    1        7.351   0.438  -0.066  0.00  0.00    -0.470 OA
BRANCH  20  23
ATOM     22  C   LIG    1        8.178   3.867   0.723  0.00  0.00    +0.130 C 
ATOM     23  C   LIG    1        8.360   2.568  -0.064  0.00  0.00    -0.110 C 
ATOM     24  C   LIG    1        9.208   2.624  -1.336  0.00  0.00    +0.160 C 
ATOM     25  C   LIG    1        9.755   1.941  -0.081  0.00  0.00    +0.020 C 
ATOM     26 CL   LIG    1        9.859   0.141  -0.091  0.00  0.00    -0.050 Cl
ATOM     27 CL   LIG    1       11.060   2.790   0.828  0.00  0.00    -0.070 Cl
ENDBRANCH  20  23
ENDBRANCH  19  20
ENDBRANCH  18  19
ENDBRANCH   1  18
TORSDOF 7
