REMARK  Name = ZINCpk000000nudd.0
REMARK                            x       y       z     vdW  Elec       q    Type
REMARK                         _______ _______ _______ _____ _____    ______ ____
ROOT
ATOM      1  C   LIG    1        1.591   4.189   2.805  0.00  0.00    +0.220 C 
ATOM      2  C   LIG    1        2.042   3.153   3.876  0.00  0.00    +0.170 C 
ATOM      3  S   LIG    1        2.883   1.928   2.788  0.00  0.00    -0.240 S 
ATOM      4  C   LIG    1        1.757   2.188   1.361  0.00  0.00    +0.360 C 
ATOM      5  N   LIG    1        1.108   3.482   1.621  0.00  0.00    -0.610 N 
ATOM      6  C   LIG    1        0.144   3.981   0.822  0.00  0.00    +0.540 C 
ATOM      7  O   LIG    1       -0.292   5.095   1.022  0.00  0.00    -0.490 OA
ENDROOT
BRANCH   6   8
ATOM      8  C   LIG    1       -0.392   3.155  -0.319  0.00  0.00    +0.000 C 
ATOM      9  C   LIG    1        0.394   3.433  -1.621  0.00  0.00    +0.080 C 
ATOM     10  C   LIG    1       -0.401   4.519  -2.313  0.00  0.00    +0.520 C 
ATOM     11  N   LIG    1       -1.633   4.600  -1.781  0.00  0.00    -0.610 N 
ATOM     12  O   LIG    1        0.013   5.215  -3.215  0.00  0.00    -0.520 OA
ATOM     13  C   LIG    1       -1.818   3.611  -0.712  0.00  0.00    +0.290 C 
BRANCH  11  14
ATOM     14  C   LIG    1       -2.658   5.553  -2.212  0.00  0.00    +0.250 C 
ATOM     15  C   LIG    1       -2.938   5.382  -3.720  0.00  0.00    +0.020 C 
ATOM     16  C   LIG    1       -3.175   6.826  -4.228  0.00  0.00    +0.020 C 
ATOM     17  C   LIG    1       -2.143   7.648  -3.417  0.00  0.00    +0.010 C 
ATOM     18  C   LIG    1       -2.153   6.994  -2.020  0.00  0.00    +0.010 C 
ENDBRANCH  11  14
ENDBRANCH   6   8
BRANCH   1  21
ATOM     19  N   LIG    1        0.759   6.268   3.856  0.00  0.00    -0.720 N 
ATOM     20  H   LIG    1        1.670   6.600   3.847  0.00  0.00    +0.400 HD
ATOM     21  C   LIG    1        0.483   5.043   3.366  0.00  0.00    +0.530 C 
ATOM     22  O   LIG    1       -0.656   4.627   3.378  0.00  0.00    -0.520 OA
BRANCH  19  23
ATOM     23  C   LIG    1       -0.318   7.098   4.402  0.00  0.00    +0.270 C 
BRANCH  23  25
ATOM     24  C   LIG    1        0.808   9.212   3.692  0.00  0.00    +0.020 C 
ATOM     25  C   LIG    1        0.260   8.429   4.886  0.00  0.00    -0.030 C 
ATOM     26  C   LIG    1       -0.840   9.244   5.569  0.00  0.00    +0.030 C 
ENDBRANCH  23  25
ENDBRANCH  19  23
ENDBRANCH   1  21
TORSDOF 5
