REMARK  Name = ZINCrD00000hQ5P8.0
REMARK                            x       y       z     vdW  Elec       q    Type
REMARK                         _______ _______ _______ _____ _____    ______ ____
ROOT
ATOM      1  O   LIG    1        3.541   3.008  -0.117  0.00  0.00    -0.510 OA
ATOM      2  C   LIG    1        3.556   1.795  -0.124  0.00  0.00    +0.550 C 
ATOM      3  N   LIG    1        2.402   1.106  -0.015  0.00  0.00    -0.670 N 
ATOM      4  H   LIG    1        2.419   0.139   0.048  0.00  0.00    +0.410 HD
ENDROOT
BRANCH   3   5
ATOM      5  C   LIG    1        1.181   1.788   0.008  0.00  0.00    +0.160 A 
ATOM      6  C   LIG    1        0.059   1.225  -0.586  0.00  0.00    -0.020 A 
ATOM      7  C   LIG    1       -1.145   1.902  -0.566  0.00  0.00    +0.060 A 
ATOM      8  C   LIG    1       -1.236   3.134   0.055  0.00  0.00    -0.140 A 
ATOM      9  C   LIG    1       -0.121   3.698   0.647  0.00  0.00    +0.060 A 
ATOM     10  C   LIG    1        1.087   3.028   0.626  0.00  0.00    +0.020 A 
BRANCH   8  11
ATOM     11  C   LIG    1       -2.552   3.868   0.080  0.00  0.00    +0.360 C 
BRANCH  11  12
ATOM     12  N   LIG    1       -2.657   4.723  -1.105  0.00  0.00    -0.570 N 
ATOM     13  C   LIG    1       -3.197   4.237  -2.210  0.00  0.00    +0.530 C 
ATOM     14  C   LIG    1       -3.242   5.226  -3.354  0.00  0.00    +0.180 C 
ATOM     15  S   LIG    1       -2.486   6.722  -2.633  0.00  0.00    -0.120 S 
ATOM     16  O   LIG    1       -3.617   3.103  -2.299  0.00  0.00    -0.460 OA
ATOM     17  C   LIG    1       -2.212   5.980  -1.047  0.00  0.00    +0.550 C 
ATOM     18  O   LIG    1       -1.706   6.518  -0.081  0.00  0.00    -0.430 OA
ENDBRANCH  11  12
ENDBRANCH   8  11
ENDBRANCH   3   5
BRANCH   2  19
ATOM     19  C   LIG    1        4.864   1.058  -0.253  0.00  0.00    -0.050 C 
ATOM     20  C   LIG    1        5.595   1.146  -1.594  0.00  0.00    +0.080 C 
ATOM     21  C   LIG    1        6.138   1.896  -0.375  0.00  0.00    +0.050 C 
BRANCH  21  22
ATOM     22  C   LIG    1        7.389   1.359   0.272  0.00  0.00    -0.040 A 
ATOM     23  C   LIG    1        7.900   0.137  -0.122  0.00  0.00    +0.000 A 
ATOM     24  C   LIG    1        9.048  -0.358   0.469  0.00  0.00    +0.030 A 
ATOM     25  C   LIG    1        9.685   0.367   1.457  0.00  0.00    -0.020 A 
ATOM     26  C   LIG    1        9.174   1.595   1.854  0.00  0.00    +0.110 A 
ATOM     27  C   LIG    1        8.027   2.092   1.254  0.00  0.00    +0.000 A 
BRANCH  26  28
ATOM     28  O   LIG    1        9.800   2.310   2.825  0.00  0.00    -0.500 OA
ATOM     29  H   LIG    1       10.472   2.921   2.493  0.00  0.00    +0.390 HD
ENDBRANCH  26  28
ENDBRANCH  21  22
ENDBRANCH   2  19
TORSDOF 6
