REMARK  Name = ZINCrH00000No4Wd.0
REMARK                            x       y       z     vdW  Elec       q    Type
REMARK                         _______ _______ _______ _____ _____    ______ ____
ROOT
ATOM      1  C   LIG    1       -0.017   1.344  -0.022  0.00  0.00    +0.220 A 
ATOM      2  N   LIG    1        1.226   1.754  -0.047  0.00  0.00    -0.360 NA
ATOM      3  O   LIG    1        1.984   0.807  -0.070  0.00  0.00    +0.090 OA
ATOM      4  C   LIG    1        1.282  -0.340  -0.062  0.00  0.00    +0.210 A 
ATOM      5  N   LIG    1        0.002  -0.004  -0.031  0.00  0.00    -0.460 NA
ENDROOT
BRANCH   1  10
ATOM      6  C   LIG    1       -2.227   4.391   0.037  0.00  0.00    +0.190 A 
ATOM      7  C   LIG    1       -3.487   3.808   0.056  0.00  0.00    -0.010 A 
ATOM      8  C   LIG    1       -3.617   2.432   0.049  0.00  0.00    +0.050 A 
ATOM      9  C   LIG    1       -2.494   1.630   0.024  0.00  0.00    +0.040 A 
ATOM     10  C   LIG    1       -1.225   2.206   0.005  0.00  0.00    +0.000 A 
ATOM     11  C   LIG    1       -1.094   3.591   0.018  0.00  0.00    +0.050 A 
BRANCH   6  18
ATOM     12  O   LIG    1        0.136   5.911   0.227  0.00  0.00    -0.560 OA
ATOM     13  C   LIG    1       -0.946   6.459   0.138  0.00  0.00    +0.700 C 
ATOM     14  N   LIG    1       -1.091   7.790   0.123  0.00  0.00    -0.730 N 
ATOM     15  H   LIG    1       -0.369   8.435   0.181  0.00  0.00    +0.440 HD
ATOM     16  C   LIG    1       -2.520   8.118   0.005  0.00  0.00    +0.270 C 
ATOM     17  C   LIG    1       -3.211   6.743  -0.055  0.00  0.00    +0.260 C 
ATOM     18  N   LIG    1       -2.099   5.785   0.045  0.00  0.00    -0.570 N 
ENDBRANCH   6  18
ENDBRANCH   1  10
BRANCH   4  19
ATOM     19  C   LIG    1        1.829  -1.698  -0.083  0.00  0.00    +0.100 C 
ATOM     20  C   LIG    1        3.163  -1.888  -0.114  0.00  0.00    +0.090 C 
BRANCH  20  21
ATOM     21  C   LIG    1        3.712  -3.253  -0.135  0.00  0.00    -0.080 A 
ATOM     22  C   LIG    1        2.853  -4.356  -0.117  0.00  0.00    +0.060 A 
ATOM     23  C   LIG    1        3.374  -5.633  -0.141  0.00  0.00    +0.050 A 
ATOM     24  C   LIG    1        4.744  -5.827  -0.173  0.00  0.00    +0.040 A 
ATOM     25  C   LIG    1        5.604  -4.741  -0.186  0.00  0.00    +0.070 A 
ATOM     26  F   LIG    1        6.940  -4.940  -0.216  0.00  0.00    -0.120 F 
ATOM     27  C   LIG    1        5.097  -3.454  -0.167  0.00  0.00    +0.090 A 
ATOM     28  F   LIG    1        5.936  -2.395  -0.179  0.00  0.00    -0.120 F 
ENDBRANCH  20  21
ENDBRANCH   4  19
TORSDOF 4
