REMARK  Name = ZINCrH00000tj123.0
REMARK                            x       y       z     vdW  Elec       q    Type
REMARK                         _______ _______ _______ _____ _____    ______ ____
ROOT
ATOM      1  C   LIG    1       -0.115   1.283   0.229  0.00  0.00    -0.240 A 
ATOM      2  C   LIG    1       -0.191  -0.095   0.108  0.00  0.00    +0.300 A 
ATOM      3  N   LIG    1        1.026  -0.599   0.379  0.00  0.00    -0.300 N 
ATOM      4  N   LIG    1        1.910   0.441   0.680  0.00  0.00    -0.270 NA
ATOM      5  C   LIG    1        1.273   1.587   0.604  0.00  0.00    +0.180 A 
ENDROOT
BRANCH   5   6
ATOM      6  C   LIG    1        1.845   2.932   0.849  0.00  0.00    -0.030 A 
ATOM      7  C   LIG    1        1.406   4.025   0.102  0.00  0.00    +0.050 A 
ATOM      8  C   LIG    1        1.941   5.275   0.331  0.00  0.00    +0.040 A 
ATOM      9  C   LIG    1        2.917   5.451   1.303  0.00  0.00    +0.070 A 
ATOM     10  O   LIG    1        3.436   6.693   1.507  0.00  0.00    -0.300 OA
ATOM     11  C   LIG    1        4.137   6.903   2.738  0.00  0.00    +0.230 C 
ATOM     12  C   LIG    1        5.089   5.720   2.958  0.00  0.00    +0.230 C 
ATOM     13  O   LIG    1        4.308   4.521   3.014  0.00  0.00    -0.300 OA
ATOM     14  C   LIG    1        3.357   4.364   2.053  0.00  0.00    +0.050 A 
ATOM     15  C   LIG    1        2.820   3.108   1.830  0.00  0.00    +0.060 A 
ENDBRANCH   5   6
BRANCH   3  16
ATOM     16  C   LIG    1        1.357  -1.959   0.362  0.00  0.00    +0.140 A 
ATOM     17  C   LIG    1        0.391  -2.907   0.052  0.00  0.00    +0.000 A 
ATOM     18  C   LIG    1        0.723  -4.247   0.030  0.00  0.00    +0.050 A 
ATOM     19  C   LIG    1        2.013  -4.647   0.328  0.00  0.00    +0.010 A 
ATOM     20  C   LIG    1        2.976  -3.706   0.642  0.00  0.00    +0.040 A 
ATOM     21  C   LIG    1        2.652  -2.364   0.660  0.00  0.00    +0.030 A 
ENDBRANCH   3  16
BRANCH   1  23
ATOM     22  C   LIG    1       -2.335   1.862  -0.661  0.00  0.00    -0.040 C 
ATOM     23  C   LIG    1       -1.198   2.243   0.020  0.00  0.00    +0.290 C 
BRANCH  22  25
ATOM     24  N   LIG    1       -4.342   3.459  -0.804  0.00  0.00    -0.390 NA
ATOM     25  C   LIG    1       -3.454   2.752  -0.741  0.00  0.00    +0.260 C 
ENDBRANCH  22  25
BRANCH  22  26
ATOM     26  C   LIG    1       -2.397   0.577  -1.290  0.00  0.00    +0.260 C 
ATOM     27  N   LIG    1       -2.446  -0.443  -1.788  0.00  0.00    -0.410 NA
ENDBRANCH  22  26
ENDBRANCH   1  23
TORSDOF 5
