REMARK  Name = ZINCpe000000WwEi.0
REMARK                            x       y       z     vdW  Elec       q    Type
REMARK                         _______ _______ _______ _____ _____    ______ ____
ROOT
ATOM      1  C   LIG    1        0.535  -1.451   1.767  0.00  0.00    +0.570 C 
ATOM      2  N   LIG    1        0.571  -0.129   1.511  0.00  0.00    -0.610 N 
ATOM      3  C   LIG    1       -0.312   0.461   0.495  0.00  0.00    +0.280 C 
ATOM      4  C   LIG    1       -1.123   1.588   1.145  0.00  0.00    +0.290 C 
ATOM      5  N   LIG    1       -0.202   2.468   1.877  0.00  0.00    -0.600 N 
ATOM      6  C   LIG    1        0.681   1.879   2.894  0.00  0.00    +0.270 C 
ATOM      7  C   LIG    1       -0.167   3.790   1.622  0.00  0.00    +0.510 C 
ATOM      8  O   LIG    1       -0.961   4.279   0.847  0.00  0.00    -0.520 OA
ATOM      9  C   LIG    1        1.492   0.751   2.244  0.00  0.00    +0.270 C 
ATOM     10  O   LIG    1       -0.300  -2.152   1.230  0.00  0.00    -0.520 OA
ENDROOT
BRANCH   1  15
ATOM     11  C   LIG    1        2.038  -3.616   4.449  0.00  0.00    +0.130 A 
ATOM     12  C   LIG    1        3.352  -3.169   4.448  0.00  0.00    -0.060 A 
ATOM     13  C   LIG    1        3.747  -2.169   3.579  0.00  0.00    +0.050 A 
ATOM     14  C   LIG    1        2.839  -1.611   2.703  0.00  0.00    +0.000 A 
ATOM     15  C   LIG    1        1.513  -2.050   2.700  0.00  0.00    -0.090 A 
ATOM     16  C   LIG    1        1.116  -3.059   3.578  0.00  0.00    +0.040 A 
BRANCH  11  18
ATOM     17  C   LIG    1        2.658  -5.128   6.175  0.00  0.00    +0.250 C 
ATOM     18  O   LIG    1        1.655  -4.600   5.305  0.00  0.00    -0.310 OA
ENDBRANCH  11  18
ENDBRANCH   1  15
BRANCH   7  19
ATOM     19  C   LIG    1        0.860   4.662   2.299  0.00  0.00    +0.270 C 
ATOM     20  C   LIG    1        0.273   6.056   2.529  0.00  0.00    +0.090 C 
BRANCH  19  21
ATOM     21  N   LIG    1        2.049   4.766   1.450  0.00  0.00    -0.380 N 
ATOM     22  C   LIG    1        2.242   5.629   0.436  0.00  0.00    +0.490 A 
ATOM     23  N   LIG    1        3.428   5.404  -0.067  0.00  0.00    -0.540 NA
ATOM     24  C   LIG    1        4.016   4.405   0.590  0.00  0.00    +0.430 A 
ATOM     25  N   LIG    1        3.211   3.981   1.528  0.00  0.00    -0.320 NA
ENDBRANCH  19  21
ENDBRANCH   7  19
TORSDOF 4
