REMARK  Name = ZINCtV00000L6ji7.1
REMARK                            x       y       z     vdW  Elec       q    Type
REMARK                         _______ _______ _______ _____ _____    ______ ____
ROOT
ATOM      1  C   LIG    1        1.454   5.768  -0.198  0.00  0.00    +0.060 C 
ATOM      2  C   LIG    1        0.577   6.981   0.107  0.00  0.00    +0.020 C 
ATOM      3  C   LIG    1       -0.554   7.029  -0.928  0.00  0.00    +0.020 C 
ATOM      4  C   LIG    1       -1.480   5.841  -0.671  0.00  0.00    +0.090 C 
ATOM      5  C   LIG    1       -0.693   4.567  -0.554  0.00  0.00    -0.250 C 
ATOM      6  C   LIG    1       -1.442   3.250  -0.691  0.00  0.00    +0.350 C 
ATOM      7  N   LIG    1       -0.646   2.028  -0.568  0.00  0.00    -0.460 N 
ATOM      8  N   LIG    1       -0.924   0.661  -0.626  0.00  0.00    -0.490 N 
ATOM      9  H   LIG    1       -1.789   0.250  -0.779  0.00  0.00    +0.450 HD
ATOM     10  C   LIG    1        0.260   0.018  -0.425  0.00  0.00    +0.620 A 
ATOM     11  N   LIG    1        1.209   0.897  -0.255  0.00  0.00    -0.520 NA
ATOM     12  C   LIG    1        0.710   2.150  -0.333  0.00  0.00    +0.560 A 
ATOM     13  N   LIG    1        1.264   3.330  -0.230  0.00  0.00    -0.570 NA
ATOM     14  C   LIG    1        0.615   4.521  -0.334  0.00  0.00    +0.190 C 
ENDROOT
BRANCH   6  15
ATOM     15  C   LIG    1       -2.520   3.213   0.362  0.00  0.00    -0.110 A 
ATOM     16  C   LIG    1       -2.231   2.733   1.627  0.00  0.00    +0.020 A 
ATOM     17  C   LIG    1       -3.212   2.702   2.597  0.00  0.00    +0.020 A 
ATOM     18  C   LIG    1       -4.499   3.144   2.297  0.00  0.00    -0.040 A 
ATOM     19  C   LIG    1       -4.786   3.621   1.019  0.00  0.00    +0.020 A 
ATOM     20  C   LIG    1       -3.796   3.653   0.059  0.00  0.00    +0.030 A 
BRANCH  18  21
ATOM     21  C   LIG    1       -5.560   3.106   3.333  0.00  0.00    -0.050 A 
ATOM     22  C   LIG    1       -6.846   3.553   3.034  0.00  0.00    +0.020 A 
ATOM     23  C   LIG    1       -7.830   3.512   4.001  0.00  0.00    +0.010 A 
ATOM     24  C   LIG    1       -7.540   3.037   5.268  0.00  0.00    +0.000 A 
ATOM     25  C   LIG    1       -6.264   2.597   5.571  0.00  0.00    +0.010 A 
ATOM     26  C   LIG    1       -5.273   2.630   4.611  0.00  0.00    +0.010 A 
ENDBRANCH  18  21
ENDBRANCH   6  15
BRANCH   1  28
ATOM     27  C   LIG    1        3.478   4.506   0.543  0.00  0.00    +0.030 C 
ATOM     28  C   LIG    1        2.460   5.577   0.939  0.00  0.00    -0.050 C 
ATOM     29  C   LIG    1        1.722   5.136   2.204  0.00  0.00    +0.020 C 
ATOM     30  C   LIG    1        3.186   6.897   1.205  0.00  0.00    +0.000 C 
ENDBRANCH   1  28
TORSDOF 3
