REMARK  Name = ZINCrg000000nLlk.0
REMARK                            x       y       z     vdW  Elec       q    Type
REMARK                         _______ _______ _______ _____ _____    ______ ____
ROOT
ATOM      1  N   LIG    1        1.202   2.974   0.023  0.00  0.00    -0.540 N 
ATOM      2  C   LIG    1        1.141   1.633  -0.001  0.00  0.00    +0.710 A 
ATOM      3  N   LIG    1       -0.025   0.966  -0.011  0.00  0.00    -0.660 N 
ATOM      4  H   LIG    1       -0.022  -0.004  -0.029  0.00  0.00    +0.430 HD
ATOM      5  C   LIG    1       -1.201   1.627  -0.002  0.00  0.00    +0.580 A 
ATOM      6  C   LIG    1       -1.181   3.096   0.029  0.00  0.00    -0.440 A 
ATOM      7  O   LIG    1       -2.255   1.020  -0.015  0.00  0.00    -0.510 OA
ATOM      8  O   LIG    1        2.178   0.999  -0.014  0.00  0.00    -0.530 OA
ATOM      9  C   LIG    1        0.070   3.736   0.038  0.00  0.00    +0.550 A 
ENDROOT
BRANCH   9  10
ATOM     10  N   LIG    1        0.151   5.094   0.062  0.00  0.00    -0.800 N 
ATOM     11  H   LIG    1       -0.580   5.618   0.427  0.00  0.00    +0.440 HD
ATOM     12  H   LIG    1        0.939   5.539  -0.287  0.00  0.00    +0.410 HD
ENDBRANCH   9  10
BRANCH   6  13
ATOM     13  C   LIG    1       -2.381   3.840   0.045  0.00  0.00    +0.440 C 
ATOM     14  O   LIG    1       -2.345   5.051  -0.042  0.00  0.00    -0.480 OA
BRANCH  13  15
ATOM     15  C   LIG    1       -3.705   3.131   0.168  0.00  0.00    +0.220 C 
BRANCH  15  16
ATOM     16  N   LIG    1       -4.792   4.120   0.160  0.00  0.00    -0.520 NA
ATOM     17  C   LIG    1       -4.738   4.971   1.356  0.00  0.00    +0.180 C 
BRANCH  16  18
ATOM     18  C   LIG    1       -6.100   3.463   0.040  0.00  0.00    +0.210 C 
BRANCH  18  19
ATOM     19  C   LIG    1       -7.179   4.518  -0.215  0.00  0.00    +0.190 C 
BRANCH  19  20
ATOM     20  O   LIG    1       -6.949   5.137  -1.482  0.00  0.00    -0.300 OA
BRANCH  20  21
ATOM     21  C   LIG    1       -7.824   6.105  -1.863  0.00  0.00    +0.140 A 
ATOM     22  C   LIG    1       -8.885   6.446  -1.038  0.00  0.00    -0.100 A 
ATOM     23  C   LIG    1       -9.770   7.434  -1.425  0.00  0.00    +0.040 A 
ATOM     24  C   LIG    1       -9.606   8.073  -2.640  0.00  0.00    -0.040 A 
ATOM     25  C   LIG    1       -8.552   7.731  -3.467  0.00  0.00    -0.050 A 
ATOM     26  C   LIG    1       -8.375   8.430  -4.790  0.00  0.00    +0.090 C 
ATOM     27  C   LIG    1       -7.661   6.748  -3.082  0.00  0.00    -0.020 A 
ENDBRANCH  20  21
ENDBRANCH  19  20
ENDBRANCH  18  19
ENDBRANCH  16  18
ENDBRANCH  15  16
ENDBRANCH  13  15
ENDBRANCH   6  13
BRANCH   1  28
ATOM     28  C   LIG    1        2.511   3.632   0.032  0.00  0.00    +0.310 C 
BRANCH  28  30
ATOM     29  C   LIG    1        4.331   4.574  -1.397  0.00  0.00    +0.040 C 
ATOM     30  C   LIG    1        2.964   3.887  -1.407  0.00  0.00    +0.000 C 
ENDBRANCH  28  30
ENDBRANCH   1  28
TORSDOF 10
