REMARK  Name = ZINCkj000005grY1.0
REMARK                            x       y       z     vdW  Elec       q    Type
REMARK                         _______ _______ _______ _____ _____    ______ ____
ROOT
ATOM      1  N   LIG    1       -0.573   2.509   1.058  0.00  0.00    -1.120 NA
ATOM      2  H   LIG    1       -1.133   3.280   0.875  0.00  0.00    +0.430 HD
ENDROOT
BRANCH   1   3
ATOM      3  S   LIG    1       -0.248   2.075   2.623  0.00  0.00    +2.720 S 
ATOM      4  O   LIG    1       -0.498   0.679   2.713  0.00  0.00    -0.940 OA
ATOM      5  O   LIG    1       -0.895   3.035   3.448  0.00  0.00    -0.930 OA
BRANCH   3   6
ATOM      6  C   LIG    1        1.482   2.288   2.875  0.00  0.00    -0.810 A 
ATOM      7  C   LIG    1        2.092   3.416   3.311  0.00  0.00    +0.240 A 
ATOM      8  N   LIG    1        3.418   3.171   3.369  0.00  0.00    -0.340 N 
ATOM      9  N   LIG    1        3.630   1.850   2.956  0.00  0.00    -0.260 NA
ATOM     10  C   LIG    1        4.452   4.119   3.790  0.00  0.00    +0.390 C 
ATOM     11 CL   LIG    1        1.308   4.910   3.723  0.00  0.00    +0.040 Cl
ATOM     12  C   LIG    1        2.470   1.320   2.665  0.00  0.00    +0.160 A 
ATOM     13  C   LIG    1        2.238  -0.089   2.184  0.00  0.00    +0.180 C 
ENDBRANCH   3   6
ENDBRANCH   1   3
BRANCH   1  14
ATOM     14  C   LIG    1       -0.015   1.728  -0.049  0.00  0.00    +0.290 C 
BRANCH  14  15
ATOM     15  C   LIG    1       -0.745   2.087  -1.345  0.00  0.00    +0.260 C 
BRANCH  15  16
ATOM     16  N   LIG    1       -0.186   1.305  -2.455  0.00  0.00    -0.380 N 
ATOM     17  C   LIG    1       -0.448  -0.123  -2.228  0.00  0.00    +0.320 C 
ATOM     18  H   LIG    1        0.810   1.459  -2.508  0.00  0.00    +0.420 HD
BRANCH  16  19
ATOM     19  C   LIG    1       -0.814   1.724  -3.715  0.00  0.00    +0.160 C 
ATOM     20  C   LIG    1       -2.300   1.360  -3.690  0.00  0.00    +0.090 C 
BRANCH  19  22
ATOM     21  C   LIG    1        1.334   1.436  -4.959  0.00  0.00    +0.030 C 
ATOM     22  C   LIG    1       -0.134   1.011  -4.886  0.00  0.00    +0.050 C 
ENDBRANCH  19  22
ENDBRANCH  16  19
ENDBRANCH  15  16
ENDBRANCH  14  15
ENDBRANCH   1  14
TORSDOF 7
