REMARK  Name = ZINCkj000005grY1.1
REMARK                            x       y       z     vdW  Elec       q    Type
REMARK                         _______ _______ _______ _____ _____    ______ ____
ROOT
ATOM      1  N   LIG    1       -4.225   0.982  -2.526  0.00  0.00    -1.120 NA
ATOM      2  H   LIG    1       -4.505   0.270  -1.929  0.00  0.00    +0.430 HD
ENDROOT
BRANCH   1   3
ATOM      3  S   LIG    1       -5.323   1.688  -3.544  0.00  0.00    +2.720 S 
ATOM      4  O   LIG    1       -5.165   3.092  -3.392  0.00  0.00    -0.940 OA
ATOM      5  O   LIG    1       -6.557   1.017  -3.332  0.00  0.00    -0.930 OA
BRANCH   3   6
ATOM      6  C   LIG    1       -4.826   1.308  -5.191  0.00  0.00    -0.810 A 
ATOM      7  C   LIG    1       -5.212   0.227  -5.911  0.00  0.00    +0.240 A 
ATOM      8  N   LIG    1       -4.614   0.303  -7.119  0.00  0.00    -0.340 N 
ATOM      9  N   LIG    1       -3.836   1.468  -7.142  0.00  0.00    -0.260 NA
ATOM     10  C   LIG    1       -4.753  -0.663  -8.211  0.00  0.00    +0.390 C 
ATOM     11 CL   LIG    1       -6.282  -1.030  -5.376  0.00  0.00    +0.040 Cl
ATOM     12  C   LIG    1       -3.969   2.072  -5.990  0.00  0.00    +0.160 A 
ATOM     13  C   LIG    1       -3.308   3.367  -5.590  0.00  0.00    +0.180 C 
ENDBRANCH   3   6
ENDBRANCH   1   3
BRANCH   1  14
ATOM     14  C   LIG    1       -2.831   1.431  -2.525  0.00  0.00    +0.290 C 
BRANCH  14  15
ATOM     15  C   LIG    1       -2.126   0.906  -1.273  0.00  0.00    +0.260 C 
BRANCH  15  16
ATOM     16  N   LIG    1       -0.728   1.358  -1.272  0.00  0.00    -0.380 N 
ATOM     17  C   LIG    1       -0.016   0.748  -2.403  0.00  0.00    +0.330 C 
ATOM     18  H   LIG    1       -0.699   2.362  -1.359  0.00  0.00    +0.430 HD
BRANCH  16  19
ATOM     19  C   LIG    1       -0.084   0.956  -0.014  0.00  0.00    +0.160 C 
ATOM     20  C   LIG    1       -0.765   1.667   1.157  0.00  0.00    +0.080 C 
BRANCH  19  22
ATOM     21  C   LIG    1        2.092   0.818   1.205  0.00  0.00    +0.060 C 
ATOM     22  C   LIG    1        1.396   1.340  -0.053  0.00  0.00    +0.030 C 
ENDBRANCH  19  22
ENDBRANCH  16  19
ENDBRANCH  15  16
ENDBRANCH  14  15
ENDBRANCH   1  14
TORSDOF 7
