REMARK  Name = ZINCqH0000033kcR.0
REMARK                            x       y       z     vdW  Elec       q    Type
REMARK                         _______ _______ _______ _____ _____    ______ ____
ROOT
ATOM      1  N   LIG    1        0.847   6.051  -1.358  0.00  0.00    -0.610 N 
ATOM      2  C   LIG    1        2.029   6.062  -2.005  0.00  0.00    +0.500 C 
ATOM      3  O   LIG    1        3.030   5.669  -1.444  0.00  0.00    -0.510 OA
ENDROOT
BRANCH   1   5
ATOM      4  C   LIG    1       -0.531   8.026  -1.786  0.00  0.00    +0.020 C 
ATOM      5  C   LIG    1       -0.363   6.526  -2.035  0.00  0.00    +0.270 C 
ENDBRANCH   1   5
BRANCH   2   6
ATOM      6  C   LIG    1        2.107   6.562  -3.424  0.00  0.00    +0.320 C 
BRANCH   6   7
ATOM      7  N   LIG    1        3.490   6.472  -3.898  0.00  0.00    -0.470 N 
ATOM      8  C   LIG    1        4.427   7.463  -3.781  0.00  0.00    +0.090 A 
ATOM      9  C   LIG    1        5.591   7.056  -4.313  0.00  0.00    -0.050 A 
ATOM     10  C   LIG    1        5.380   5.699  -4.821  0.00  0.00    -0.100 A 
ATOM     11  C   LIG    1        6.193   4.768  -5.470  0.00  0.00    +0.050 A 
ATOM     12  C   LIG    1        5.681   3.551  -5.824  0.00  0.00    -0.030 A 
ATOM     13  C   LIG    1        4.360   3.232  -5.542  0.00  0.00    +0.020 A 
ATOM     14  C   LIG    1        3.541   4.136  -4.902  0.00  0.00    -0.020 A 
ATOM     15  C   LIG    1        4.189   8.808  -3.147  0.00  0.00    +0.140 C 
ATOM     16  C   LIG    1        4.040   5.380  -4.532  0.00  0.00    +0.110 A 
ENDBRANCH   6   7
ENDBRANCH   2   6
BRANCH   1  17
ATOM     17  C   LIG    1        0.771   5.565   0.022  0.00  0.00    +0.350 C 
BRANCH  17  18
ATOM     18  C   LIG    1        0.496   4.083   0.018  0.00  0.00    -0.100 A 
ATOM     19  C   LIG    1       -0.808   3.624   0.028  0.00  0.00    +0.040 A 
ATOM     20  C   LIG    1       -1.065   2.265   0.019  0.00  0.00    +0.040 A 
ATOM     21  C   LIG    1       -0.016   1.361   0.009  0.00  0.00    +0.040 A 
ATOM     22  O   LIG    1        0.002  -0.004   0.002  0.00  0.00    -0.310 OA
ATOM     23  C   LIG    1        1.336  -0.373   0.399  0.00  0.00    +0.430 C 
ATOM     24  O   LIG    1        2.139   0.749  -0.014  0.00  0.00    -0.310 OA
ATOM     25  C   LIG    1        1.297   1.824  -0.001  0.00  0.00    +0.030 A 
ATOM     26  C   LIG    1        1.548   3.186   0.004  0.00  0.00    +0.060 A 
ENDBRANCH  17  18
ENDBRANCH   1  17
TORSDOF 5
