REMARK  Name = ZINCvU0000000A7F.0
REMARK                            x       y       z     vdW  Elec       q    Type
REMARK                         _______ _______ _______ _____ _____    ______ ____
ROOT
ATOM      1  C   LIG    1        1.632   3.291  -0.493  0.00  0.00    +0.220 A 
ATOM      2  C   LIG    1        0.636   3.999  -1.151  0.00  0.00    -0.030 A 
ATOM      3  C   LIG    1        0.901   5.258  -1.654  0.00  0.00    +0.040 A 
ATOM      4  C   LIG    1        2.166   5.811  -1.509  0.00  0.00    +0.100 A 
ATOM      5  C   LIG    1        3.165   5.101  -0.855  0.00  0.00    +0.080 A 
ATOM      6  C   LIG    1        2.899   3.844  -0.348  0.00  0.00    -0.090 A 
ATOM      7 CL   LIG    1        4.146   2.957   0.470  0.00  0.00    -0.070 Cl
ENDROOT
BRANCH   4   8
ATOM      8  N   LIG    1        2.436   7.087  -2.023  0.00  0.00    -0.670 N 
ATOM      9  H   LIG    1        1.740   7.763  -2.034  0.00  0.00    +0.410 HD
ATOM     10  C   LIG    1        3.662   7.375  -2.504  0.00  0.00    +0.520 C 
ATOM     11  O   LIG    1        4.503   6.505  -2.579  0.00  0.00    -0.510 OA
BRANCH  10  12
ATOM     12  C   LIG    1        3.987   8.778  -2.946  0.00  0.00    +0.000 C 
ATOM     13  C   LIG    1        5.432   8.833  -3.450  0.00  0.00    +0.040 C 
ATOM     14  C   LIG    1        5.736  10.247  -3.954  0.00  0.00    +0.040 C 
ATOM     15  C   LIG    1        4.739  10.616  -5.055  0.00  0.00    +0.190 C 
ATOM     16  N   LIG    1        3.372  10.549  -4.523  0.00  0.00    -0.470 N 
ATOM     17  C   LIG    1        3.042   9.189  -4.077  0.00  0.00    +0.230 C 
BRANCH  16  18
ATOM     18  C   LIG    1        2.451  11.004  -5.459  0.00  0.00    +0.260 A 
ATOM     19  C   LIG    1        2.585  12.276  -6.010  0.00  0.00    +0.210 A 
ATOM     20  N   LIG    1        1.708  12.704  -6.898  0.00  0.00    -0.420 NA
ATOM     21  C   LIG    1        0.703  11.927  -7.266  0.00  0.00    +0.190 A 
ATOM     22  C   LIG    1        0.567  10.664  -6.722  0.00  0.00    +0.250 A 
ATOM     23  N   LIG    1        1.444  10.226  -5.834  0.00  0.00    -0.480 NA
ENDBRANCH  16  18
ENDBRANCH  10  12
ENDBRANCH   4   8
BRANCH   1  24
ATOM     24  N   LIG    1        1.362   2.017   0.020  0.00  0.00    -0.740 N 
ATOM     25  H   LIG    1        2.059   1.520   0.477  0.00  0.00    +0.400 HD
BRANCH  24  27
ATOM     26  C   LIG    1       -0.875   1.921   1.003  0.00  0.00    +0.040 C 
ATOM     27  C   LIG    1        0.027   1.433  -0.132  0.00  0.00    +0.280 C 
BRANCH  27  28
ATOM     28  C   LIG    1        0.127  -0.070  -0.084  0.00  0.00    -0.090 A 
ATOM     29  C   LIG    1        0.990  -0.677   0.809  0.00  0.00    +0.010 A 
ATOM     30  C   LIG    1        1.079  -2.055   0.857  0.00  0.00    +0.000 A 
ATOM     31  C   LIG    1        0.311  -2.827   0.004  0.00  0.00    +0.000 A 
ATOM     32  C   LIG    1       -0.548  -2.220  -0.893  0.00  0.00    +0.000 A 
ATOM     33  C   LIG    1       -0.639  -0.841  -0.937  0.00  0.00    +0.010 A 
ENDBRANCH  27  28
ENDBRANCH  24  27
ENDBRANCH   1  24
TORSDOF 6
