REMARK  Name = ZINCb70000002rbD.0
REMARK                            x       y       z     vdW  Elec       q    Type
REMARK                         _______ _______ _______ _____ _____    ______ ____
ROOT
ATOM      1  N   LIG    1       -1.394   3.968   0.037  0.00  0.00    -0.540 NA
ATOM      2  C   LIG    1       -0.732   3.481  -1.182  0.00  0.00    +0.210 C 
ATOM      3  C   LIG    1       -0.728   1.951  -1.180  0.00  0.00    +0.280 C 
ATOM      4  N   LIG    1       -0.018   1.465   0.010  0.00  0.00    -0.390 N 
ATOM      5  C   LIG    1       -0.705   1.938   1.219  0.00  0.00    +0.280 C 
ATOM      6  C   LIG    1        0.002  -0.004   0.002  0.00  0.00    +0.320 C 
ATOM      7  H   LIG    1        0.929   1.814   0.003  0.00  0.00    +0.420 HD
ATOM      8  C   LIG    1       -0.709   3.468   1.237  0.00  0.00    +0.230 C 
ENDROOT
BRANCH   1  10
ATOM      9  C   LIG    1       -1.931   5.914   1.423  0.00  0.00    +0.090 C 
ATOM     10  C   LIG    1       -1.469   5.435   0.045  0.00  0.00    +0.290 C 
BRANCH  10  11
ATOM     11  C   LIG    1       -2.429   5.883  -0.977  0.00  0.00    +0.190 C 
ATOM     12  N   LIG    1       -3.170   6.229  -1.766  0.00  0.00    -0.390 NA
ENDBRANCH  10  11
ENDBRANCH   1  10
TORSDOF 2
