REMARK  Name = ZINC65000000000j.0
REMARK                            x       y       z     vdW  Elec       q    Type
REMARK                         _______ _______ _______ _____ _____    ______ ____
ROOT
ATOM      1  C   LIG    1       -1.202   2.262   0.020  0.00  0.00    +0.350 C 
ATOM      2  N   LIG    1       -0.017   1.400   0.010  0.00  0.00    -0.390 N 
ATOM      3  C   LIG    1        1.268   1.796  -0.000  0.00  0.00    +0.470 A 
ATOM      4  N   LIG    1        2.022   0.727  -0.013  0.00  0.00    -0.550 NA
ATOM      5  C   LIG    1        1.258  -0.365  -0.012  0.00  0.00    +0.420 A 
ATOM      6  N   LIG    1        0.002  -0.004   0.002  0.00  0.00    -0.320 NA
ENDROOT
TORSDOF 0
