REMARK  Name = ZINCrH00000tj1hM.0
REMARK                            x       y       z     vdW  Elec       q    Type
REMARK                         _______ _______ _______ _____ _____    ______ ____
ROOT
ATOM      1  O   LIG    1       -0.820   1.260  -1.166  0.00  0.00    -0.330 OA
ENDROOT
BRANCH   1   3
ATOM      2  C   LIG    1        1.314   1.837  -0.144  0.00  0.00    +0.070 C 
ATOM      3  C   LIG    1       -0.008   1.085   0.025  0.00  0.00    +0.190 C 
BRANCH   3   4
ATOM      4  C   LIG    1       -0.746   1.630   1.220  0.00  0.00    +0.530 C 
ATOM      5  N   LIG    1       -0.319   1.340   2.466  0.00  0.00    -0.550 N 
ATOM      6  C   LIG    1        0.899   0.591   2.783  0.00  0.00    +0.270 C 
ATOM      7  C   LIG    1        0.947   0.529   4.318  0.00  0.00    +0.100 C 
ATOM      8  C   LIG    1       -0.295   1.266   4.767  0.00  0.00    -0.140 A 
ATOM      9  C   LIG    1       -0.784   1.529   6.032  0.00  0.00    +0.050 A 
ATOM     10  C   LIG    1       -1.963   2.235   6.188  0.00  0.00    -0.010 A 
ATOM     11  C   LIG    1       -2.651   2.679   5.073  0.00  0.00    +0.040 A 
ATOM     12  C   LIG    1       -2.165   2.420   3.809  0.00  0.00    +0.010 A 
ATOM     13  C   LIG    1       -0.977   1.706   3.644  0.00  0.00    +0.140 A 
ATOM     14  O   LIG    1       -1.725   2.328   1.062  0.00  0.00    -0.490 OA
ENDBRANCH   3   4
ENDBRANCH   1   3
BRANCH   1  15
ATOM     15  C   LIG    1       -0.665   0.352  -2.150  0.00  0.00    +0.510 C 
ATOM     16  O   LIG    1        0.127  -0.560  -2.017  0.00  0.00    -0.490 OA
BRANCH  15  17
ATOM     17  C   LIG    1       -1.456   0.466  -3.389  0.00  0.00    -0.150 A 
ATOM     18  C   LIG    1       -2.370   1.510  -3.541  0.00  0.00    +0.120 A 
ATOM     19  C   LIG    1       -3.107   1.621  -4.700  0.00  0.00    -0.020 A 
ATOM     20  C   LIG    1       -2.951   0.688  -5.713  0.00  0.00    +0.100 A 
ATOM     21  C   LIG    1       -2.059  -0.351  -5.570  0.00  0.00    -0.190 A 
ATOM     22  C   LIG    1       -1.687  -1.506  -6.480  0.00  0.00    +0.020 C 
ATOM     23  C   LIG    1       -0.755  -1.040  -7.601  0.00  0.00    +0.050 C 
ATOM     24  C   LIG    1       -0.949  -2.455  -5.507  0.00  0.00    +0.160 C 
ATOM     25  C   LIG    1        0.219  -3.151  -6.209  0.00  0.00    +0.070 C 
ATOM     26  O   LIG    1       -0.470  -1.557  -4.490  0.00  0.00    -0.270 OA
ATOM     27  C   LIG    1       -1.296  -0.481  -4.417  0.00  0.00    +0.180 A 
ENDBRANCH  15  17
ENDBRANCH   1  15
TORSDOF 4
