REMARK  Name = ZINCpe000000SRas.0
REMARK                            x       y       z     vdW  Elec       q    Type
REMARK                         _______ _______ _______ _____ _____    ______ ____
ROOT
ATOM      1  N   LIG    1        7.170   1.359   0.619  0.00  0.00    -0.530 NA
ATOM      2  C   LIG    1        7.050  -0.097   0.776  0.00  0.00    +0.180 C 
ATOM      3  C   LIG    1        6.084  -0.643  -0.281  0.00  0.00    +0.300 C 
ATOM      4  N   LIG    1        4.818   0.099  -0.185  0.00  0.00    -0.610 N 
ATOM      5  C   LIG    1        4.871   1.569  -0.203  0.00  0.00    +0.280 C 
ATOM      6  C   LIG    1        3.641  -0.550  -0.089  0.00  0.00    +0.560 C 
ATOM      7  O   LIG    1        3.622  -1.761   0.019  0.00  0.00    -0.530 OA
ATOM      8  C   LIG    1        5.885   2.028   0.857  0.00  0.00    +0.170 C 
ENDROOT
BRANCH   6   9
ATOM      9  C   LIG    1        2.373   0.210  -0.115  0.00  0.00    -0.120 A 
ATOM     10  C   LIG    1        1.272  -0.238   0.615  0.00  0.00    +0.080 A 
ATOM     11  C   LIG    1        0.092   0.476   0.587  0.00  0.00    +0.040 A 
ATOM     12  C   LIG    1       -0.001   1.635  -0.164  0.00  0.00    -0.090 A 
ATOM     13  C   LIG    1        1.087   2.085  -0.890  0.00  0.00    +0.020 A 
ATOM     14  C   LIG    1        2.273   1.380  -0.870  0.00  0.00    +0.040 A 
BRANCH  12  15
ATOM     15  C   LIG    1       -1.295   2.406  -0.195  0.00  0.00    +0.380 C 
BRANCH  15  16
ATOM     16  N   LIG    1       -1.300   3.396   0.885  0.00  0.00    -0.380 N 
ATOM     17  C   LIG    1       -1.493   4.721   0.763  0.00  0.00    +0.470 A 
ATOM     18  N   LIG    1       -1.425   5.252   1.956  0.00  0.00    -0.550 NA
ATOM     19  C   LIG    1       -1.183   4.304   2.860  0.00  0.00    +0.420 A 
ATOM     20  N   LIG    1       -1.098   3.150   2.253  0.00  0.00    -0.310 NA
ENDBRANCH  15  16
ENDBRANCH  12  15
ENDBRANCH   6   9
BRANCH   1  21
ATOM     21  C   LIG    1        8.215   1.898   1.499  0.00  0.00    +0.150 C 
BRANCH  21  23
ATOM     22  C   LIG    1        9.641   2.134  -0.539  0.00  0.00    +0.070 C 
ATOM     23  C   LIG    1        9.591   1.606   0.896  0.00  0.00    +0.130 C 
ATOM     24  C   LIG    1       10.671   2.297   1.731  0.00  0.00    +0.020 C 
BRANCH  23  25
ATOM     25  O   LIG    1        9.820   0.196   0.894  0.00  0.00    -0.550 OA
ATOM     26  H   LIG    1        9.803  -0.207   1.773  0.00  0.00    +0.370 HD
ENDBRANCH  23  25
ENDBRANCH  21  23
ENDBRANCH   1  21
TORSDOF 6
