REMARK  Name = ZINCpk000005Ik4H.0
REMARK                            x       y       z     vdW  Elec       q    Type
REMARK                         _______ _______ _______ _____ _____    ______ ____
ROOT
ATOM      1  C   LIG    1       -0.665   2.241  -3.558  0.00  0.00    +0.560 C 
ATOM      2  N   LIG    1       -1.399   3.150  -2.885  0.00  0.00    -0.600 N 
ATOM      3  C   LIG    1       -2.602   2.694  -2.136  0.00  0.00    +0.280 C 
ATOM      4  C   LIG    1       -2.692   3.457  -0.798  0.00  0.00    +0.280 C 
ATOM      5  N   LIG    1       -1.410   3.646  -0.178  0.00  0.00    -0.600 N 
ATOM      6  C   LIG    1       -0.614   4.861  -0.473  0.00  0.00    +0.310 C 
ATOM      7  C   LIG    1        0.033   4.742  -1.789  0.00  0.00    +0.130 C 
ATOM      8  C   LIG    1       -0.928   2.715   0.669  0.00  0.00    +0.520 C 
ATOM      9  O   LIG    1        0.156   2.871   1.189  0.00  0.00    -0.530 OA
ATOM     10  C   LIG    1       -0.994   4.526  -2.913  0.00  0.00    +0.260 C 
ATOM     11  O   LIG    1       -0.869   1.054  -3.393  0.00  0.00    -0.520 OA
ENDROOT
BRANCH   1  15
ATOM     12  C   LIG    1        1.278   2.291  -8.152  0.00  0.00    +0.110 C 
ATOM     13  C   LIG    1        1.324   2.713  -6.706  0.00  0.00    -0.120 A 
ATOM     14  C   LIG    1        0.344   2.290  -5.834  0.00  0.00    +0.100 A 
ATOM     15  C   LIG    1        0.385   2.687  -4.496  0.00  0.00    -0.130 A 
ATOM     16  C   LIG    1        1.425   3.503  -4.046  0.00  0.00    +0.060 A 
ATOM     17  C   LIG    1        2.403   3.916  -4.926  0.00  0.00    +0.000 A 
ATOM     18  C   LIG    1        2.355   3.523  -6.254  0.00  0.00    +0.120 A 
ATOM     19  F   LIG    1        3.316   3.930  -7.112  0.00  0.00    -0.130 F 
ENDBRANCH   1  15
BRANCH   7  20
ATOM     20  O   LIG    1        0.768   5.938  -2.056  0.00  0.00    -0.550 OA
ATOM     21  H   LIG    1        1.225   5.937  -2.908  0.00  0.00    +0.380 HD
ENDBRANCH   7  20
BRANCH   8  22
ATOM     22  C   LIG    1       -1.737   1.479   0.969  0.00  0.00    +0.060 C 
BRANCH  22  23
ATOM     23  C   LIG    1       -0.968   0.593   1.951  0.00  0.00    +0.060 C 
BRANCH  23  24
ATOM     24  C   LIG    1       -1.789  -0.662   2.256  0.00  0.00    +0.190 C 
BRANCH  24  25
ATOM     25  C   LIG    1       -1.050  -1.515   3.201  0.00  0.00    +0.200 C 
ATOM     26  N   LIG    1       -0.479  -2.173   3.930  0.00  0.00    -0.430 NA
ENDBRANCH  24  25
ENDBRANCH  23  24
ENDBRANCH  22  23
ENDBRANCH   8  22
TORSDOF 6
