REMARK  Name = ZINCb70000002u55.0
REMARK                            x       y       z     vdW  Elec       q    Type
REMARK                         _______ _______ _______ _____ _____    ______ ____
ROOT
ATOM      1  C   LIG    1       -0.014   1.211   0.009  0.00  0.00    +0.670 C 
ATOM      2  N   LIG    1       -1.191   1.869   0.018  0.00  0.00    -0.610 N 
ATOM      3  C   LIG    1       -1.355   3.330   0.033  0.00  0.00    +0.280 C 
ATOM      4  C   LIG    1       -2.871   3.620   0.010  0.00  0.00    +0.070 C 
ATOM      5  C   LIG    1       -3.468   2.315  -0.580  0.00  0.00    +0.170 C 
ATOM      6  C   LIG    1       -2.525   1.243   0.021  0.00  0.00    +0.310 C 
ATOM      7  O   LIG    1        0.002  -0.004   0.002  0.00  0.00    -0.550 OA
ENDROOT
BRANCH   5   8
ATOM      8  N   LIG    1       -4.850   2.116  -0.125  0.00  0.00    -0.630 N 
ATOM      9  H   LIG    1       -5.180   1.214  -0.435  0.00  0.00    +0.440 HD
ATOM     10  H   LIG    1       -5.439   2.840  -0.510  0.00  0.00    +0.440 HD
ATOM     11  H   LIG    1       -4.882   2.158   0.882  0.00  0.00    +0.440 HD
ENDBRANCH   5   8
BRANCH   1  12
ATOM     12  O   LIG    1        1.142   1.900   0.001  0.00  0.00    -0.360 OA
BRANCH  12  14
ATOM     13  C   LIG    1        3.571   2.074  -0.021  0.00  0.00    +0.070 C 
ATOM     14  C   LIG    1        2.371   1.126  -0.015  0.00  0.00    +0.240 C 
ENDBRANCH  12  14
ENDBRANCH   1  12
TORSDOF 3
