REMARK  Name = ZINCrH00000tj10U.0
REMARK                            x       y       z     vdW  Elec       q    Type
REMARK                         _______ _______ _______ _____ _____    ______ ____
ROOT
ATOM      1  C   LIG    1       -1.494   2.814   0.692  0.00  0.00    +0.180 C 
ATOM      2  C   LIG    1       -2.805   3.332   1.239  0.00  0.00    +0.050 C 
ATOM      3  C   LIG    1       -3.608   3.771  -0.021  0.00  0.00    +0.040 C 
ATOM      4  C   LIG    1       -2.786   3.292  -1.242  0.00  0.00    +0.060 C 
ATOM      5  C   LIG    1       -0.774   1.604   1.270  0.00  0.00    +0.050 C 
ATOM      6  C   LIG    1       -0.013   1.086   0.008  0.00  0.00    +0.240 C 
ATOM      7  N   LIG    1       -0.765   1.596  -1.182  0.00  0.00    -0.410 N 
ATOM      8  C   LIG    1       -1.971   2.166  -0.662  0.00  0.00    +0.110 C 
ENDROOT
BRANCH   7   9
ATOM      9  C   LIG    1       -1.043   0.571  -2.068  0.00  0.00    +0.260 A 
ATOM     10  N   LIG    1       -0.182  -0.202  -2.695  0.00  0.00    -0.530 NA
ATOM     11  C   LIG    1       -0.680  -1.119  -3.492  0.00  0.00    +0.300 A 
ATOM     12  N   LIG    1       -1.975  -1.184  -3.609  0.00  0.00    -0.470 NA
ATOM     13  S   LIG    1       -2.592   0.035  -2.599  0.00  0.00    +0.190 S 
BRANCH  11  14
ATOM     14  C   LIG    1        0.218  -2.060  -4.253  0.00  0.00    +0.090 C 
ATOM     15  C   LIG    1       -0.055  -1.942  -5.767  0.00  0.00    +0.030 C 
ATOM     16  C   LIG    1        0.087  -3.393  -6.292  0.00  0.00    +0.020 C 
ATOM     17  C   LIG    1       -0.542  -4.232  -5.152  0.00  0.00    +0.020 C 
ATOM     18  C   LIG    1       -0.092  -3.515  -3.862  0.00  0.00    +0.030 C 
ENDBRANCH  11  14
ENDBRANCH   7   9
BRANCH   1  20
ATOM     19  C   LIG    1       -0.037   4.594   1.494  0.00  0.00    +0.600 C 
ATOM     20  N   LIG    1       -0.557   3.914   0.453  0.00  0.00    -0.710 N 
ATOM     21  H   LIG    1       -0.311   4.153  -0.454  0.00  0.00    +0.400 HD
ATOM     22  O   LIG    1       -0.346   4.295   2.632  0.00  0.00    -0.520 OA
BRANCH  19  25
ATOM     23  C   LIG    1        1.321   6.360   3.709  0.00  0.00    +0.120 C 
ATOM     24  C   LIG    1        1.503   6.478   2.218  0.00  0.00    -0.070 A 
ATOM     25  C   LIG    1        0.901   5.696   1.255  0.00  0.00    -0.070 A 
ATOM     26  N   LIG    1        1.337   6.142   0.027  0.00  0.00    -0.540 N 
ATOM     27  H   LIG    1        1.073   5.778  -0.833  0.00  0.00    +0.410 HD
ATOM     28  C   LIG    1        2.194   7.173   0.220  0.00  0.00    +0.200 A 
ATOM     29  C   LIG    1        2.317   7.398   1.550  0.00  0.00    -0.070 A 
ENDBRANCH  19  25
ENDBRANCH   1  20
TORSDOF 4
