REMARK  Name = ZINCqH0000004Mis.0
REMARK                            x       y       z     vdW  Elec       q    Type
REMARK                         _______ _______ _______ _____ _____    ______ ____
ROOT
ATOM      1  N   LIG    1        3.731   1.889  -0.281  0.00  0.00    -0.740 N 
ATOM      2  H   LIG    1        3.946   1.021   0.097  0.00  0.00    +0.400 HD
ATOM      3  C   LIG    1        2.444   2.270  -0.405  0.00  0.00    +0.730 C 
ATOM      4  N   LIG    1        1.456   1.446  -0.004  0.00  0.00    -0.660 N 
ATOM      5  C   LIG    1        1.413   0.097   0.596  0.00  0.00    +0.280 C 
ATOM      6  C   LIG    1        0.002  -0.004   0.002  0.00  0.00    -0.080 C 
ATOM      7  C   LIG    1       -0.033  -0.612  -1.399  0.00  0.00    +0.030 C 
ATOM      8  C   LIG    1        0.102  -2.134  -1.282  0.00  0.00    +0.210 C 
ATOM      9  O   LIG    1       -0.915  -2.634  -0.413  0.00  0.00    -0.380 OA
ATOM     10  C   LIG    1       -0.827  -2.159   0.932  0.00  0.00    +0.210 C 
ATOM     11  C   LIG    1       -1.017  -0.638   0.947  0.00  0.00    +0.020 C 
ATOM     12  C   LIG    1       -0.019   1.530   0.011  0.00  0.00    +0.310 C 
ATOM     13  O   LIG    1        2.175   3.357  -0.878  0.00  0.00    -0.570 OA
ENDROOT
BRANCH  12  14
ATOM     14  C   LIG    1       -0.606   2.137  -1.238  0.00  0.00    -0.090 A 
ATOM     15  C   LIG    1        0.165   2.247  -2.381  0.00  0.00    +0.050 A 
ATOM     16  C   LIG    1       -0.375   2.800  -3.527  0.00  0.00    +0.000 A 
ATOM     17  C   LIG    1       -1.682   3.251  -3.528  0.00  0.00    +0.010 A 
ATOM     18  C   LIG    1       -2.450   3.145  -2.384  0.00  0.00    +0.000 A 
ATOM     19  C   LIG    1       -1.912   2.588  -1.239  0.00  0.00    +0.010 A 
ENDBRANCH  12  14
BRANCH   1  20
ATOM     20  C   LIG    1        4.805   2.784  -0.717  0.00  0.00    +0.380 C 
BRANCH  20  23
ATOM     21  C   LIG    1        7.897   1.582   0.780  0.00  0.00    +0.050 A 
ATOM     22  N   LIG    1        6.762   2.190   0.688  0.00  0.00    -0.460 NA
ATOM     23  C   LIG    1        6.138   2.126  -0.471  0.00  0.00    +0.050 A 
ATOM     24  C   LIG    1        6.788   1.435  -1.413  0.00  0.00    -0.060 A 
ATOM     25  S   LIG    1        8.291   0.842  -0.710  0.00  0.00    +0.140 S 
BRANCH  21  27
ATOM     26  C   LIG    1        8.371   0.317   2.859  0.00  0.00    +0.040 C 
ATOM     27  C   LIG    1        8.754   1.537   2.019  0.00  0.00    +0.140 C 
ENDBRANCH  21  27
ENDBRANCH  20  23
ENDBRANCH   1  20
TORSDOF 4
