REMARK  Name = ZINCnE000001Hb9K.0
REMARK                            x       y       z     vdW  Elec       q    Type
REMARK                         _______ _______ _______ _____ _____    ______ ____
ROOT
ATOM      1  C   LIG    1       -3.750  -1.084   0.015  0.00  0.00    +0.220 C 
ENDROOT
BRANCH   1   2
ATOM      2  N   LIG    1       -2.489  -0.339   0.013  0.00  0.00    -0.740 N 
ATOM      3  H   LIG    1       -1.644  -0.816   0.006  0.00  0.00    +0.390 HD
ATOM      4  C   LIG    1       -2.502   1.008   0.020  0.00  0.00    +0.570 C 
ATOM      5  O   LIG    1       -3.561   1.606   0.028  0.00  0.00    -0.510 OA
BRANCH   4   6
ATOM      6  C   LIG    1       -1.231   1.758   0.017  0.00  0.00    -0.300 A 
ATOM      7  C   LIG    1       -0.013   1.076   0.008  0.00  0.00    +0.070 A 
ATOM      8  C   LIG    1        1.171   1.782   0.000  0.00  0.00    -0.170 A 
ATOM      9  C   LIG    1        1.159   3.167   0.007  0.00  0.00    +0.060 A 
ATOM     10  C   LIG    1       -0.039   3.855   0.022  0.00  0.00    -0.170 A 
ATOM     11 CL   LIG    1       -0.042   5.591   0.031  0.00  0.00    -0.110 Cl
ATOM     12  C   LIG    1       -1.240   3.160   0.030  0.00  0.00    +0.310 A 
ATOM     13  O   LIG    1       -2.418   3.834   0.044  0.00  0.00    -0.650 OA
ENDBRANCH   4   6
ENDBRANCH   1   2
BRANCH   1  15
ATOM     14  C   LIG    1       -4.587   0.133   2.030  0.00  0.00    +0.030 C 
ATOM     15  C   LIG    1       -4.246  -1.242   1.454  0.00  0.00    -0.020 C 
ENDBRANCH   1  15
BRANCH   1  16
ATOM     16  C   LIG    1       -3.528  -2.466  -0.603  0.00  0.00    +0.260 C 
BRANCH  16  17
ATOM     17  C   LIG    1       -4.847  -3.185  -0.713  0.00  0.00    -0.140 A 
ATOM     18  C   LIG    1       -5.241  -4.062   0.280  0.00  0.00    +0.050 A 
ATOM     19  C   LIG    1       -6.455  -4.718   0.182  0.00  0.00    +0.000 A 
ATOM     20  C   LIG    1       -7.270  -4.506  -0.914  0.00  0.00    +0.040 A 
ATOM     21  C   LIG    1       -6.875  -3.634  -1.911  0.00  0.00    -0.010 A 
ATOM     22  C   LIG    1       -5.663  -2.972  -1.811  0.00  0.00    +0.110 A 
ATOM     23  F   LIG    1       -5.276  -2.119  -2.785  0.00  0.00    -0.130 F 
ENDBRANCH  16  17
BRANCH  16  24
ATOM     24  O   LIG    1       -2.641  -3.221   0.226  0.00  0.00    -0.550 OA
ATOM     25  H   LIG    1       -2.967  -3.360   1.126  0.00  0.00    +0.370 HD
ENDBRANCH  16  24
ENDBRANCH   1  16
TORSDOF 6
