REMARK  Name = ZINCqH0000035DQi.0
REMARK                            x       y       z     vdW  Elec       q    Type
REMARK                         _______ _______ _______ _____ _____    ______ ____
ROOT
ATOM      1  C   LIG    1        0.085  -2.766   0.087  0.00  0.00    +0.510 C 
ATOM      2  N   LIG    1        1.237  -2.073  -0.019  0.00  0.00    -0.670 N 
ATOM      3  H   LIG    1        2.080  -2.545  -0.108  0.00  0.00    +0.410 HD
ATOM      4  O   LIG    1       -0.976  -2.179   0.098  0.00  0.00    -0.480 OA
ENDROOT
BRANCH   2   5
ATOM      5  C   LIG    1        1.216  -0.674   0.001  0.00  0.00    +0.150 A 
ATOM      6  C   LIG    1        0.171  -0.009   0.621  0.00  0.00    +0.020 A 
ATOM      7  C   LIG    1        0.152   1.372   0.638  0.00  0.00    +0.030 A 
ATOM      8  C   LIG    1        1.172   2.080   0.036  0.00  0.00    -0.020 A 
ATOM      9  C   LIG    1        2.221   1.418  -0.590  0.00  0.00    -0.060 A 
ATOM     10  C   LIG    1        3.292   2.257  -1.238  0.00  0.00    +0.080 C 
ATOM     11  C   LIG    1        4.551   1.427  -1.479  0.00  0.00    +0.020 C 
ATOM     12  C   LIG    1        4.151   0.143  -2.215  0.00  0.00    +0.020 C 
ATOM     13  C   LIG    1        3.363  -0.740  -1.249  0.00  0.00    +0.070 C 
ATOM     14  C   LIG    1        2.248   0.043  -0.605  0.00  0.00    -0.100 A 
ENDBRANCH   2   5
BRANCH   1  15
ATOM     15  C   LIG    1        0.117  -4.269   0.191  0.00  0.00    +0.240 C 
BRANCH  15  16
ATOM     16  O   LIG    1       -1.219  -4.767   0.292  0.00  0.00    -0.270 OA
BRANCH  16  22
ATOM     17  C   LIG    1       -2.646  -6.665   0.496  0.00  0.00    +0.090 A 
ATOM     18  C   LIG    1       -2.801  -8.032   0.599  0.00  0.00    +0.030 A 
ATOM     19  C   LIG    1       -1.673  -8.863   0.602  0.00  0.00    -0.170 A 
ATOM     20  C   LIG    1       -0.395  -8.301   0.500  0.00  0.00    +0.080 A 
ATOM     21  C   LIG    1       -0.250  -6.936   0.391  0.00  0.00    -0.050 A 
ATOM     22  C   LIG    1       -1.369  -6.112   0.394  0.00  0.00    +0.130 A 
BRANCH  19  23
ATOM     23  C   LIG    1       -1.831 -10.318   0.712  0.00  0.00    +0.400 C 
ATOM     24  O   LIG    1       -2.939 -10.803   0.801  0.00  0.00    -0.460 OA
ATOM     25  C   LIG    1       -0.616 -11.210   0.715  0.00  0.00    +0.080 C 
ENDBRANCH  19  23
BRANCH  17  27
ATOM     26  C   LIG    1       -5.015  -6.488   0.601  0.00  0.00    +0.250 C 
ATOM     27  O   LIG    1       -3.739  -5.855   0.493  0.00  0.00    -0.300 OA
ENDBRANCH  17  27
ENDBRANCH  16  22
ENDBRANCH  15  16
ENDBRANCH   1  15
TORSDOF 6
