REMARK  Name = ZINCzw00000005ba.0
REMARK                            x       y       z     vdW  Elec       q    Type
REMARK                         _______ _______ _______ _____ _____    ______ ____
ROOT
ATOM      1  C   LIG    1       -4.580   1.318  -8.546  0.00  0.00    +0.180 C 
ATOM      2  C   LIG    1       -4.756  -0.053  -7.890  0.00  0.00    +0.120 C 
ENDROOT
BRANCH   1   3
ATOM      3  C   LIG    1       -4.063   2.300  -7.527  0.00  0.00    +0.500 C 
ATOM      4  N   LIG    1       -2.882   2.079  -6.916  0.00  0.00    -0.640 N 
ATOM      5  H   LIG    1       -2.332   1.326  -7.184  0.00  0.00    +0.420 HD
ATOM      6  O   LIG    1       -4.709   3.291  -7.256  0.00  0.00    -0.510 OA
BRANCH   4   7
ATOM      7  C   LIG    1       -2.451   2.933  -5.896  0.00  0.00    +0.100 A 
ATOM      8  C   LIG    1       -1.097   3.192  -5.731  0.00  0.00    +0.060 A 
ATOM      9  C   LIG    1       -0.674   4.036  -4.723  0.00  0.00    +0.040 A 
ATOM     10  C   LIG    1       -1.598   4.623  -3.878  0.00  0.00    +0.130 A 
ATOM     11  C   LIG    1       -2.947   4.367  -4.039  0.00  0.00    -0.660 A 
ATOM     12  C   LIG    1       -3.376   3.520  -5.042  0.00  0.00    +0.130 A 
BRANCH  11  13
ATOM     13  S   LIG    1       -4.120   5.117  -2.959  0.00  0.00    +2.690 S 
ATOM     14  O   LIG    1       -5.275   4.289  -2.985  0.00  0.00    -0.950 OA
ATOM     15  O   LIG    1       -3.419   5.436  -1.765  0.00  0.00    -0.940 OA
BRANCH  13  16
ATOM     16  N   LIG    1       -4.563   6.559  -3.641  0.00  0.00    -1.000 NA
ATOM     17  C   LIG    1       -5.703   6.640  -4.569  0.00  0.00    +0.260 C 
ATOM     18  C   LIG    1       -6.625   7.773  -4.104  0.00  0.00    +0.220 C 
ATOM     19  O   LIG    1       -5.857   8.967  -3.936  0.00  0.00    -0.370 OA
ATOM     20  C   LIG    1       -4.843   8.874  -2.934  0.00  0.00    +0.220 C 
ATOM     21  C   LIG    1       -3.829   7.798  -3.338  0.00  0.00    +0.270 C 
ENDBRANCH  13  16
ENDBRANCH  11  13
ENDBRANCH   4   7
ENDBRANCH   1   3
BRANCH   1  22
ATOM     22  N   LIG    1       -5.875   1.784  -9.062  0.00  0.00    -0.500 N 
ATOM     23  H   LIG    1       -5.777   2.722  -9.420  0.00  0.00    +0.430 HD
ATOM     24  H   LIG    1       -6.555   1.778  -8.316  0.00  0.00    +0.430 HD
BRANCH  22  25
ATOM     25  C   LIG    1       -6.322   0.892 -10.139  0.00  0.00    +0.370 C 
BRANCH  25  32
ATOM     26  C   LIG    1       -6.752   2.950 -12.510  0.00  0.00    +0.160 C 
ATOM     27  C   LIG    1       -7.841   2.277 -11.715  0.00  0.00    +0.110 A 
ATOM     28  N   LIG    1       -9.128   2.443 -11.885  0.00  0.00    -0.270 NA
ATOM     29  N   LIG    1       -9.799   1.644 -10.950  0.00  0.00    -0.300 N 
ATOM     30  C   LIG    1       -8.869   0.991 -10.218  0.00  0.00    +0.150 A 
ATOM     31  C   LIG    1       -9.140   0.018  -9.099  0.00  0.00    +0.160 C 
ATOM     32  C   LIG    1       -7.650   1.369 -10.668  0.00  0.00    -0.320 A 
BRANCH  29  33
ATOM     33  C   LIG    1      -11.189   1.538 -10.803  0.00  0.00    +0.120 A 
ATOM     34  C   LIG    1      -12.005   1.471 -11.924  0.00  0.00    +0.030 A 
ATOM     35  C   LIG    1      -13.373   1.360 -11.776  0.00  0.00    +0.040 A 
ATOM     36  C   LIG    1      -13.933   1.328 -10.512  0.00  0.00    +0.040 A 
ATOM     37  C   LIG    1      -13.124   1.400  -9.393  0.00  0.00    +0.040 A 
ATOM     38  C   LIG    1      -11.754   1.504  -9.534  0.00  0.00    +0.010 A 
ENDBRANCH  29  33
ENDBRANCH  25  32
ENDBRANCH  22  25
ENDBRANCH   1  22
TORSDOF 8
