REMARK  Name = ZINCpk00000KfKyx.0
REMARK                            x       y       z     vdW  Elec       q    Type
REMARK                         _______ _______ _______ _____ _____    ______ ____
ROOT
ATOM      1  C   LIG    1       -4.750   1.958   0.759  0.00  0.00    +0.290 C 
ATOM      2  C   LIG    1       -5.945   2.913   0.770  0.00  0.00    +0.040 C 
ATOM      3  C   LIG    1       -6.351   3.239  -0.669  0.00  0.00    +0.040 C 
ATOM      4  C   LIG    1       -5.176   3.900  -1.393  0.00  0.00    +0.030 C 
ATOM      5  C   LIG    1       -3.981   2.945  -1.404  0.00  0.00    +0.030 C 
ATOM      6  C   LIG    1       -3.575   2.619   0.035  0.00  0.00    +0.180 C 
ENDROOT
BRANCH   1   9
ATOM      7  C   LIG    1       -3.958   1.778   4.274  0.00  0.00    -0.090 A 
ATOM      8  C   LIG    1       -4.407   2.482   3.193  0.00  0.00    +0.310 A 
ATOM      9  N   LIG    1       -4.362   1.646   2.136  0.00  0.00    -0.350 N 
ATOM     10  N   LIG    1       -3.865   0.422   2.608  0.00  0.00    -0.040 NA
ATOM     11  N   LIG    1       -3.638   0.536   3.870  0.00  0.00    -0.180 NA
BRANCH   7  12
ATOM     12  C   LIG    1       -3.838   2.294   5.650  0.00  0.00    +0.560 C 
ATOM     13  O   LIG    1       -4.159   3.439   5.899  0.00  0.00    -0.500 OA
BRANCH  12  15
ATOM     14  C   LIG    1       -3.284   2.070   7.961  0.00  0.00    +0.290 C 
ATOM     15  O   LIG    1       -3.374   1.495   6.631  0.00  0.00    -0.340 OA
ENDBRANCH  12  15
ENDBRANCH   7  12
ENDBRANCH   1   9
BRANCH   6  16
ATOM     16  O   LIG    1       -2.442   1.712   0.024  0.00  0.00    -0.340 OA
BRANCH  16  17
ATOM     17  C   LIG    1       -1.214   2.268   0.020  0.00  0.00    +0.550 C 
ATOM     18  O   LIG    1       -1.094   3.477   0.026  0.00  0.00    -0.520 OA
BRANCH  17  19
ATOM     19  C   LIG    1       -0.017   1.409   0.010  0.00  0.00    -0.290 A 
ATOM     20  C   LIG    1        1.297   1.834  -0.001  0.00  0.00    +0.170 A 
ATOM     21  N   LIG    1        2.073   0.739  -0.014  0.00  0.00    -0.360 N 
ATOM     22  N   LIG    1        1.248  -0.391  -0.012  0.00  0.00    -0.300 NA
ATOM     23  C   LIG    1        3.538   0.729  -0.028  0.00  0.00    +0.360 C 
ATOM     24  C   LIG    1        1.772   3.264   0.002  0.00  0.00    +0.170 C 
ATOM     25  C   LIG    1        0.002  -0.004   0.002  0.00  0.00    +0.310 A 
ENDBRANCH  17  19
ENDBRANCH  16  17
ENDBRANCH   6  16
TORSDOF 6
