REMARK  Name = ZINCrg00000bHyp8.0
REMARK                            x       y       z     vdW  Elec       q    Type
REMARK                         _______ _______ _______ _____ _____    ______ ____
ROOT
ATOM      1  C   LIG    1        2.262   5.345  -0.213  0.00  0.00    +0.590 C 
ATOM      2  N   LIG    1        1.676   4.197   0.182  0.00  0.00    -0.630 N 
ATOM      3  C   LIG    1        2.087   3.068   1.039  0.00  0.00    +0.310 C 
ATOM      4  C   LIG    1        0.584   2.831   1.269  0.00  0.00    +0.100 C 
ATOM      5  C   LIG    1        0.366   3.565  -0.067  0.00  0.00    +0.270 C 
ATOM      6  O   LIG    1        3.346   5.660   0.236  0.00  0.00    -0.530 OA
ENDROOT
BRANCH   1  11
ATOM      7  C   LIG    1       -0.385   8.743  -4.037  0.00  0.00    +0.090 C 
ATOM      8  C   LIG    1        0.308   7.856  -3.036  0.00  0.00    -0.140 A 
ATOM      9  C   LIG    1       -0.214   6.611  -2.740  0.00  0.00    +0.050 A 
ATOM     10  C   LIG    1        0.418   5.790  -1.829  0.00  0.00    -0.020 A 
ATOM     11  C   LIG    1        1.585   6.220  -1.194  0.00  0.00    -0.090 A 
ATOM     12  C   LIG    1        2.113   7.477  -1.492  0.00  0.00    -0.010 A 
ATOM     13  C   LIG    1        1.472   8.291  -2.413  0.00  0.00    +0.210 A 
BRANCH  13  14
ATOM     14  N   LIG    1        1.997   9.551  -2.715  0.00  0.00    -0.880 N 
ATOM     15  H   LIG    1        1.549  10.121  -3.359  0.00  0.00    +0.400 HD
ATOM     16  H   LIG    1        2.809   9.855  -2.280  0.00  0.00    +0.400 HD
ENDBRANCH  13  14
ENDBRANCH   1  11
BRANCH   4  17
ATOM     17  O   LIG    1        0.058   3.525   2.402  0.00  0.00    -0.530 OA
ATOM     18  H   LIG    1       -0.892   3.402   2.532  0.00  0.00    +0.380 HD
ENDBRANCH   4  17
BRANCH   4  19
ATOM     19  C   LIG    1        0.181   1.355   1.233  0.00  0.00    +0.030 C 
BRANCH  19  20
ATOM     20  C   LIG    1       -1.341   1.240   1.346  0.00  0.00    +0.250 C 
BRANCH  20  21
ATOM     21  N   LIG    1       -1.727  -0.173   1.312  0.00  0.00    -0.730 N 
ATOM     22  H   LIG    1       -1.047  -0.860   1.228  0.00  0.00    +0.400 HD
ATOM     23  C   LIG    1       -3.027  -0.519   1.398  0.00  0.00    +0.480 C 
ATOM     24  O   LIG    1       -3.877   0.340   1.503  0.00  0.00    -0.530 OA
BRANCH  23  25
ATOM     25  C   LIG    1       -3.424  -1.972   1.363  0.00  0.00    +0.220 C 
BRANCH  25  26
ATOM     26  O   LIG    1       -4.849  -2.077   1.351  0.00  0.00    -0.530 OA
ATOM     27  H   LIG    1       -5.279  -1.682   2.122  0.00  0.00    +0.380 HD
ENDBRANCH  25  26
BRANCH  25  28
ATOM     28  C   LIG    1       -2.871  -2.682   2.600  0.00  0.00    +0.010 C 
BRANCH  28  29
ATOM     29  C   LIG    1       -3.132  -4.185   2.486  0.00  0.00    -0.060 C 
ATOM     30  C   LIG    1       -4.637  -4.434   2.371  0.00  0.00    +0.030 C 
ATOM     31  C   LIG    1       -2.591  -4.893   3.729  0.00  0.00    +0.020 C 
ATOM     32  C   LIG    1       -2.429  -4.731   1.241  0.00  0.00    +0.020 C 
ENDBRANCH  28  29
ENDBRANCH  25  28
ENDBRANCH  23  25
ENDBRANCH  20  21
ENDBRANCH  19  20
ENDBRANCH   4  19
TORSDOF 10
