REMARK  Name = ZINCqH0000007sQy.0
REMARK                            x       y       z     vdW  Elec       q    Type
REMARK                         _______ _______ _______ _____ _____    ______ ____
ROOT
ATOM      1  N   LIG    1        1.295  -1.868   2.912  0.00  0.00    -0.740 N 
ATOM      2  H   LIG    1        2.187  -1.495   2.995  0.00  0.00    +0.400 HD
ATOM      3  C   LIG    1        0.449  -1.389   1.979  0.00  0.00    +0.710 C 
ATOM      4  N   LIG    1        0.872  -0.461   1.098  0.00  0.00    -0.630 N 
ATOM      5  C   LIG    1        2.217   0.128   1.205  0.00  0.00    +0.230 C 
ATOM      6  C   LIG    1        2.082   1.654   1.155  0.00  0.00    +0.220 C 
ATOM      7  O   LIG    1        1.318   2.021   0.003  0.00  0.00    -0.370 OA
ATOM      8  C   LIG    1       -0.024   1.527   0.009  0.00  0.00    +0.150 C 
ATOM      9  C   LIG    1        0.003  -0.006   0.001  0.00  0.00    +0.290 C 
ATOM     10  O   LIG    1       -0.697  -1.793   1.932  0.00  0.00    -0.570 OA
ENDROOT
BRANCH   8  11
ATOM     11  C   LIG    1       -0.759   2.032  -1.234  0.00  0.00    -0.060 C 
ATOM     12  C   LIG    1       -0.036   1.542  -2.489  0.00  0.00    +0.040 C 
ATOM     13  C   LIG    1       -0.786   3.562  -1.224  0.00  0.00    +0.030 C 
ATOM     14  C   LIG    1       -2.193   1.497  -1.230  0.00  0.00    +0.040 C 
ENDBRANCH   8  11
BRANCH   1  15
ATOM     15  C   LIG    1        0.869  -2.952   3.800  0.00  0.00    +0.320 C 
BRANCH  15  19
ATOM     16  C   LIG    1        4.299  -5.091   5.186  0.00  0.00    +0.150 A 
ATOM     17  C   LIG    1        3.144  -5.778   4.841  0.00  0.00    -0.010 A 
ATOM     18  C   LIG    1        2.037  -5.085   4.393  0.00  0.00    +0.100 A 
ATOM     19  C   LIG    1        2.078  -3.707   4.288  0.00  0.00    -0.160 A 
ATOM     20  C   LIG    1        3.230  -3.020   4.626  0.00  0.00    +0.080 A 
ATOM     21  C   LIG    1        4.338  -3.708   5.080  0.00  0.00    -0.070 A 
BRANCH  16  23
ATOM     22  C   LIG    1        6.543  -4.999   5.964  0.00  0.00    +0.240 C 
ATOM     23  O   LIG    1        5.389  -5.771   5.627  0.00  0.00    -0.310 OA
ENDBRANCH  16  23
ENDBRANCH  15  19
BRANCH  15  24
ATOM     24  C   LIG    1        0.116  -2.366   4.995  0.00  0.00    +0.440 C 
ATOM     25  F   LIG    1        0.958  -1.494   5.695  0.00  0.00    -0.180 F 
ATOM     26  F   LIG    1       -0.291  -3.401   5.844  0.00  0.00    -0.180 F 
ATOM     27  F   LIG    1       -1.007  -1.665   4.542  0.00  0.00    -0.170 F 
ENDBRANCH  15  24
ENDBRANCH   1  15
TORSDOF 5
