REMARK  Name = ZINCvU00000006o5.0
REMARK                            x       y       z     vdW  Elec       q    Type
REMARK                         _______ _______ _______ _____ _____    ______ ____
ROOT
ATOM      1  C   LIG    1        0.130  -0.042   3.245  0.00  0.00    -0.030 C 
ATOM      2  C   LIG    1       -0.871  -0.600   2.231  0.00  0.00    +0.040 C 
ATOM      3  C   LIG    1       -0.522  -0.075   0.834  0.00  0.00    +0.280 C 
ATOM      4  N   LIG    1       -0.466   1.393   0.882  0.00  0.00    -0.610 N 
ATOM      5  C   LIG    1        0.397   2.034   1.883  0.00  0.00    +0.280 C 
ATOM      6  C   LIG    1       -1.187   2.136   0.019  0.00  0.00    +0.560 C 
ATOM      7  O   LIG    1       -1.833   1.595  -0.857  0.00  0.00    -0.510 OA
ATOM      8  C   LIG    1        0.038   1.485   3.267  0.00  0.00    +0.040 C 
ENDROOT
BRANCH   6   9
ATOM      9  C   LIG    1       -1.192   3.605   0.139  0.00  0.00    -0.110 A 
ATOM     10  C   LIG    1        0.011   4.315   0.137  0.00  0.00    +0.060 A 
ATOM     11  C   LIG    1       -0.001   5.688   0.249  0.00  0.00    +0.000 A 
ATOM     12  C   LIG    1       -1.202   6.372   0.362  0.00  0.00    +0.050 A 
ATOM     13  C   LIG    1       -2.399   5.686   0.365  0.00  0.00    -0.010 A 
ATOM     14  C   LIG    1       -2.408   4.301   0.248  0.00  0.00    -0.050 A 
BRANCH  14  15
ATOM     15  S   LIG    1       -3.935   3.422   0.245  0.00  0.00    -0.050 S 
BRANCH  15  16
ATOM     16  C   LIG    1       -5.167   4.743   0.406  0.00  0.00    +0.190 C 
BRANCH  16  17
ATOM     17  C   LIG    1       -6.549   4.143   0.418  0.00  0.00    -0.010 A 
ATOM     18  C   LIG    1       -7.220   3.737   1.511  0.00  0.00    -0.030 A 
ATOM     19  C   LIG    1       -8.469   3.246   1.065  0.00  0.00    -0.070 A 
ATOM     20  C   LIG    1       -8.483   3.373  -0.274  0.00  0.00    +0.190 A 
ATOM     21  O   LIG    1       -7.317   3.917  -0.660  0.00  0.00    -0.170 OA
ENDBRANCH  16  17
ENDBRANCH  15  16
ENDBRANCH  14  15
ENDBRANCH   6   9
BRANCH   1  22
ATOM     22  C   LIG    1       -0.190  -0.584   4.615  0.00  0.00    +0.410 C 
ATOM     23  O   LIG    1       -1.318  -0.945   4.877  0.00  0.00    -0.450 OA
BRANCH  22  27
ATOM     24  C   LIG    1        2.852  -0.846   7.551  0.00  0.00    +0.160 A 
ATOM     25  C   LIG    1        1.559  -1.260   7.853  0.00  0.00    -0.020 A 
ATOM     26  C   LIG    1        0.571  -1.177   6.907  0.00  0.00    +0.120 A 
ATOM     27  C   LIG    1        0.865  -0.674   5.633  0.00  0.00    -0.210 A 
ATOM     28  C   LIG    1        2.169  -0.264   5.332  0.00  0.00    +0.110 A 
ATOM     29  C   LIG    1        3.149  -0.346   6.288  0.00  0.00    -0.080 A 
BRANCH  24  31
ATOM     30  C   LIG    1        5.131  -0.488   8.114  0.00  0.00    +0.240 C 
ATOM     31  O   LIG    1        3.826  -0.930   8.491  0.00  0.00    -0.310 OA
ENDBRANCH  24  31
ENDBRANCH  22  27
ENDBRANCH   1  22
TORSDOF 7
