REMARK  Name = ZINC9p0000002CxP.0
REMARK                            x       y       z     vdW  Elec       q    Type
REMARK                         _______ _______ _______ _____ _____    ______ ____
ROOT
ATOM      1  C   LIG    1       -1.239   3.133   0.031  0.00  0.00    -0.170 A 
ATOM      2  C   LIG    1       -1.219   1.751   0.017  0.00  0.00    +0.060 A 
ATOM      3  C   LIG    1       -0.013   1.076   0.008  0.00  0.00    +0.040 A 
ATOM      4  C   LIG    1        1.175   1.783   0.000  0.00  0.00    +0.090 A 
ATOM      5  C   LIG    1        1.156   3.166   0.008  0.00  0.00    -0.090 A 
ATOM      6 BR   LIG    1        2.780   4.134  -0.002  0.00  0.00    -0.020 Br
ATOM      7  C   LIG    1       -0.051   3.841   0.023  0.00  0.00    +0.070 A 
ENDROOT
BRANCH   1   8
ATOM      8  C   LIG    1       -2.554   3.868   0.047  0.00  0.00    +0.330 C 
BRANCH   8   9
ATOM      9  N   LIG    1       -2.995   4.114  -1.332  0.00  0.00    -0.640 N 
ATOM     10  H   LIG    1       -2.304   4.672  -1.812  0.00  0.00    +0.440 HD
ATOM     11  H   LIG    1       -3.876   4.606  -1.321  0.00  0.00    +0.440 HD
ATOM     12  H   LIG    1       -3.107   3.233  -1.812  0.00  0.00    +0.440 HD
ENDBRANCH   8   9
ENDBRANCH   1   8
TORSDOF 2
