REMARK  Name = ZINCrD00000F5LrH.0
REMARK                            x       y       z     vdW  Elec       q    Type
REMARK                         _______ _______ _______ _____ _____    ______ ____
ROOT
ATOM      1  O   LIG    1       -5.269   8.976  -0.459  0.00  0.00    -0.210 OA
ENDROOT
BRANCH   1   4
ATOM      2  C   LIG    1       -6.507  10.814   1.180  0.00  0.00    +0.110 C 
ATOM      3  C   LIG    1       -6.583  10.917  -0.321  0.00  0.00    +0.190 C 
ATOM      4  N   LIG    1       -5.990  10.037  -1.061  0.00  0.00    -0.340 NA
BRANCH   3   5
ATOM      5  C   LIG    1       -7.334  12.022  -0.948  0.00  0.00    -0.050 A 
ATOM      6  C   LIG    1       -7.975  12.973  -0.152  0.00  0.00    +0.060 A 
ATOM      7  C   LIG    1       -8.677  14.003  -0.740  0.00  0.00    +0.020 A 
ATOM      8  C   LIG    1       -8.749  14.101  -2.124  0.00  0.00    +0.070 A 
ATOM      9  O   LIG    1       -9.450  15.124  -2.683  0.00  0.00    -0.300 OA
ATOM     10  C   LIG    1       -9.192  15.404  -4.063  0.00  0.00    +0.230 C 
ATOM     11  C   LIG    1       -9.193  14.076  -4.831  0.00  0.00    +0.230 C 
ATOM     12  O   LIG    1       -8.168  13.240  -4.281  0.00  0.00    -0.310 OA
ATOM     13  C   LIG    1       -8.111  13.156  -2.924  0.00  0.00    +0.040 A 
ATOM     14  C   LIG    1       -7.401  12.122  -2.339  0.00  0.00    +0.080 A 
ENDBRANCH   3   5
ENDBRANCH   1   4
BRANCH   1  15
ATOM     15  C   LIG    1       -4.666   8.080  -1.394  0.00  0.00    +0.240 C 
BRANCH  15  16
ATOM     16  C   LIG    1       -3.929   6.997  -0.648  0.00  0.00    +0.520 C 
ATOM     17  N   LIG    1       -3.279   6.033  -1.329  0.00  0.00    -0.670 N 
ATOM     18  H   LIG    1       -3.220   6.077  -2.296  0.00  0.00    +0.410 HD
ATOM     19  O   LIG    1       -3.922   6.994   0.564  0.00  0.00    -0.500 OA
BRANCH  17  20
ATOM     20  C   LIG    1       -2.689   4.967  -0.641  0.00  0.00    +0.150 A 
ATOM     21  C   LIG    1       -3.271   4.482   0.523  0.00  0.00    +0.020 A 
ATOM     22  C   LIG    1       -2.684   3.431   1.199  0.00  0.00    +0.030 A 
ATOM     23  C   LIG    1       -1.518   2.857   0.721  0.00  0.00    -0.110 A 
ATOM     24  C   LIG    1       -0.691   1.712   1.274  0.00  0.00    +0.080 C 
ATOM     25  C   LIG    1        0.678   1.831   0.572  0.00  0.00    +0.030 C 
ATOM     26  C   LIG    1        0.319   2.548  -0.747  0.00  0.00    +0.080 C 
ATOM     27  C   LIG    1       -0.936   3.338  -0.439  0.00  0.00    -0.080 A 
ATOM     28  C   LIG    1       -1.520   4.391  -1.119  0.00  0.00    -0.010 A 
ENDBRANCH  17  20
ENDBRANCH  15  16
ENDBRANCH   1  15
TORSDOF 5
