REMARK  Name = ZINCrH000004qCXb.0
REMARK                            x       y       z     vdW  Elec       q    Type
REMARK                         _______ _______ _______ _____ _____    ______ ____
ROOT
ATOM      1  N   LIG    1        0.560   3.906   4.833  0.00  0.00    -0.740 N 
ATOM      2  H   LIG    1        0.356   4.494   4.088  0.00  0.00    +0.400 HD
ATOM      3  C   LIG    1        1.262   4.371   5.885  0.00  0.00    +0.730 C 
ATOM      4  N   LIG    1        1.680   5.652   5.904  0.00  0.00    -0.660 N 
ATOM      5  C   LIG    1        1.577   6.812   5.004  0.00  0.00    +0.270 C 
ATOM      6  C   LIG    1        2.873   7.335   5.624  0.00  0.00    -0.080 C 
ATOM      7  C   LIG    1        2.885   8.841   5.872  0.00  0.00    +0.020 C 
ATOM      8  C   LIG    1        3.197   9.558   4.553  0.00  0.00    +0.210 C 
ATOM      9  O   LIG    1        4.421   9.050   4.017  0.00  0.00    -0.380 OA
ATOM     10  C   LIG    1        4.383   7.663   3.674  0.00  0.00    +0.210 C 
ATOM     11  C   LIG    1        4.141   6.833   4.940  0.00  0.00    +0.040 C 
ATOM     12  C   LIG    1        2.435   6.506   6.835  0.00  0.00    +0.310 C 
ATOM     13  O   LIG    1        1.518   3.635   6.818  0.00  0.00    -0.570 OA
ENDROOT
BRANCH  12  14
ATOM     14  C   LIG    1        3.572   5.791   7.519  0.00  0.00    -0.090 A 
ATOM     15  C   LIG    1        4.088   4.631   6.972  0.00  0.00    +0.040 A 
ATOM     16  C   LIG    1        5.134   3.978   7.596  0.00  0.00    +0.000 A 
ATOM     17  C   LIG    1        5.657   4.479   8.774  0.00  0.00    +0.010 A 
ATOM     18  C   LIG    1        5.137   5.636   9.324  0.00  0.00    +0.000 A 
ATOM     19  C   LIG    1        4.095   6.292   8.697  0.00  0.00    +0.010 A 
ENDBRANCH  12  14
BRANCH   1  20
ATOM     20  C   LIG    1        0.106   2.514   4.813  0.00  0.00    +0.340 C 
BRANCH  20  24
ATOM     21  C   LIG    1       -0.013   1.086   0.008  0.00  0.00    +0.130 C 
ATOM     22  C   LIG    1       -0.718   1.572   1.248  0.00  0.00    +0.130 A 
ATOM     23  C   LIG    1        0.008   1.803   2.401  0.00  0.00    -0.020 A 
ATOM     24  C   LIG    1       -0.650   2.251   3.536  0.00  0.00    -0.060 A 
ATOM     25  C   LIG    1       -2.021   2.450   3.468  0.00  0.00    -0.020 A 
ATOM     26  C   LIG    1       -2.680   2.197   2.280  0.00  0.00    +0.130 A 
ATOM     27  C   LIG    1       -4.170   2.410   2.196  0.00  0.00    +0.130 C 
ATOM     28  N   LIG    1       -2.020   1.777   1.219  0.00  0.00    -0.480 NA
ENDBRANCH  20  24
ENDBRANCH   1  20
TORSDOF 3
