REMARK  Name = ZINCrD000000A00u.1
REMARK                            x       y       z     vdW  Elec       q    Type
REMARK                         _______ _______ _______ _____ _____    ______ ____
ROOT
ATOM      1  C   LIG    1        1.605  -4.698  -2.221  0.00  0.00    +0.490 C 
ATOM      2  N   LIG    1        2.631  -4.547  -1.359  0.00  0.00    -0.580 N 
ATOM      3  O   LIG    1        0.487  -4.356  -1.899  0.00  0.00    -0.520 OA
ENDROOT
BRANCH   2   4
ATOM      4  C   LIG    1        2.377  -4.086   0.008  0.00  0.00    +0.190 C 
ATOM      5  C   LIG    1        0.940  -4.169   0.526  0.00  0.00    +0.030 C 
ATOM      6  C   LIG    1        1.552  -2.810   0.182  0.00  0.00    +0.020 C 
ENDBRANCH   2   4
BRANCH   1   7
ATOM      7  C   LIG    1        1.848  -5.293  -3.584  0.00  0.00    +0.200 C 
BRANCH   7   8
ATOM      8  N   LIG    1        0.623  -5.953  -4.055  0.00  0.00    -0.800 NA
ATOM      9  H   LIG    1       -0.140  -5.295  -4.120  0.00  0.00    +0.350 HD
ATOM     10  H   LIG    1        0.380  -6.731  -3.461  0.00  0.00    +0.340 HD
ENDBRANCH   7   8
BRANCH   7  11
ATOM     11  C   LIG    1        2.238  -4.183  -4.562  0.00  0.00    +0.190 C 
BRANCH  11  12
ATOM     12  O   LIG    1        2.504  -4.751  -5.846  0.00  0.00    -0.350 OA
BRANCH  12  13
ATOM     13  C   LIG    1        2.879  -3.795  -6.839  0.00  0.00    +0.220 C 
BRANCH  13  14
ATOM     14  C   LIG    1        3.135  -4.501  -8.146  0.00  0.00    -0.090 A 
ATOM     15  C   LIG    1        4.404  -4.959  -8.447  0.00  0.00    +0.020 A 
ATOM     16  C   LIG    1        4.637  -5.611  -9.644  0.00  0.00    +0.000 A 
ATOM     17  C   LIG    1        3.603  -5.796 -10.543  0.00  0.00    +0.010 A 
ATOM     18  C   LIG    1        2.336  -5.332 -10.244  0.00  0.00    +0.000 A 
ATOM     19  C   LIG    1        2.102  -4.685  -9.045  0.00  0.00    +0.020 A 
ENDBRANCH  13  14
ENDBRANCH  12  13
ENDBRANCH  11  12
ENDBRANCH   7  11
ENDBRANCH   1   7
BRANCH   2  20
ATOM     20  C   LIG    1        3.999  -4.843  -1.791  0.00  0.00    +0.410 C 
BRANCH  20  21
ATOM     21  C   LIG    1        4.311  -6.291  -1.514  0.00  0.00    +0.060 A 
ATOM     22  N   LIG    1        4.101  -7.244  -2.342  0.00  0.00    -0.450 NA
ATOM     23  C   LIG    1        4.428  -8.493  -1.961  0.00  0.00    +0.080 A 
ATOM     24  C   LIG    1        4.306  -9.709  -2.662  0.00  0.00    +0.080 A 
ATOM     25  C   LIG    1        4.701 -10.879  -2.087  0.00  0.00    +0.030 A 
ATOM     26  C   LIG    1        5.231 -10.897  -0.805  0.00  0.00    +0.050 A 
ATOM     27  C   LIG    1        5.362  -9.724  -0.097  0.00  0.00    +0.050 A 
ATOM     28  C   LIG    1        4.963  -8.518  -0.668  0.00  0.00    -0.180 A 
ATOM     29  S   LIG    1        4.988  -6.867  -0.057  0.00  0.00    +0.120 S 
ENDBRANCH  20  21
ENDBRANCH   2  20
TORSDOF 9
