REMARK  Name = ZINCrH000004teQY.0
REMARK                            x       y       z     vdW  Elec       q    Type
REMARK                         _______ _______ _______ _____ _____    ______ ____
ROOT
ATOM      1  C   LIG    1       -1.336   5.609   2.296  0.00  0.00    +0.260 A 
ATOM      2  N   LIG    1       -1.607   4.416   2.757  0.00  0.00    -0.320 NA
ATOM      3  N   LIG    1       -1.098   4.255   3.925  0.00  0.00    -0.030 NA
ATOM      4  N   LIG    1       -0.481   5.325   4.293  0.00  0.00    -0.060 NA
ATOM      5  N   LIG    1       -0.614   6.249   3.241  0.00  0.00    -0.330 N 
ENDROOT
BRANCH   5   6
ATOM      6  C   LIG    1       -0.105   7.555   3.185  0.00  0.00    +0.150 A 
ATOM      7  C   LIG    1        0.481   8.024   2.018  0.00  0.00    +0.050 A 
ATOM      8  C   LIG    1        0.977   9.312   1.964  0.00  0.00    +0.100 A 
ATOM      9  C   LIG    1        0.899  10.131   3.075  0.00  0.00    -0.170 A 
ATOM     10  C   LIG    1        0.320   9.665   4.241  0.00  0.00    +0.100 A 
ATOM     11  C   LIG    1       -0.182   8.380   4.299  0.00  0.00    +0.060 A 
BRANCH   9  12
ATOM     12  C   LIG    1        1.446  11.533   3.016  0.00  0.00    +0.510 C 
ATOM     13  F   LIG    1        0.716  12.356   3.879  0.00  0.00    -0.170 F 
ATOM     14  F   LIG    1        1.342  12.020   1.708  0.00  0.00    -0.170 F 
ATOM     15  F   LIG    1        2.790  11.526   3.405  0.00  0.00    -0.170 F 
ENDBRANCH   9  12
ENDBRANCH   5   6
BRANCH   1  16
ATOM     16  C   LIG    1       -1.756   6.168   0.961  0.00  0.00    +0.350 C 
BRANCH  16  26
ATOM     17  F   LIG    1       -2.424   7.631  -4.994  0.00  0.00    -0.140 F 
ATOM     18  C   LIG    1       -2.011   7.179  -3.790  0.00  0.00    +0.080 A 
ATOM     19  C   LIG    1       -2.324   7.883  -2.639  0.00  0.00    +0.010 A 
ATOM     20  C   LIG    1       -1.903   7.417  -1.412  0.00  0.00    +0.010 A 
ATOM     21  C   LIG    1       -1.152   6.244  -1.320  0.00  0.00    +0.110 A 
ATOM     22  C   LIG    1       -0.841   5.544  -2.473  0.00  0.00    -0.080 A 
ATOM     23  C   LIG    1       -0.048   4.261  -2.439  0.00  0.00    +0.090 C 
ATOM     24  C   LIG    1        0.645   4.120  -1.082  0.00  0.00    +0.040 C 
ATOM     25  C   LIG    1       -0.391   4.415   0.010  0.00  0.00    +0.190 C 
ATOM     26  N   LIG    1       -0.744   5.834  -0.050  0.00  0.00    -0.490 N 
ATOM     27  C   LIG    1       -1.270   6.015  -3.704  0.00  0.00    +0.010 A 
ENDBRANCH  16  26
ENDBRANCH   1  16
TORSDOF 4
