REMARK  Name = ZINCqH0000038TP0.0
REMARK                            x       y       z     vdW  Elec       q    Type
REMARK                         _______ _______ _______ _____ _____    ______ ____
ROOT
ATOM      1  N   LIG    1        4.069  -0.216   1.364  0.00  0.00    -0.530 NA
ATOM      2  C   LIG    1        3.932  -1.370   0.464  0.00  0.00    +0.150 C 
ATOM      3  C   LIG    1        3.584  -0.874  -0.943  0.00  0.00    +0.230 C 
ATOM      4  O   LIG    1        2.391  -0.088  -0.884  0.00  0.00    -0.380 OA
ATOM      5  C   LIG    1        2.490   1.044  -0.016  0.00  0.00    +0.220 C 
ATOM      6  C   LIG    1        2.826   0.568   1.399  0.00  0.00    +0.170 C 
ENDROOT
BRANCH   5   7
ATOM      7  C   LIG    1        1.176   1.782   0.000  0.00  0.00    -0.070 A 
ATOM      8  C   LIG    1       -0.013   1.076   0.008  0.00  0.00    +0.030 A 
ATOM      9  C   LIG    1       -1.220   1.750   0.017  0.00  0.00    +0.020 A 
ATOM     10  C   LIG    1       -1.242   3.131   0.031  0.00  0.00    -0.010 A 
ATOM     11  C   LIG    1       -0.050   3.842   0.023  0.00  0.00    +0.100 A 
ATOM     12  C   LIG    1        1.160   3.164   0.007  0.00  0.00    +0.000 A 
BRANCH  11  13
ATOM     13  O   LIG    1       -0.069   5.201   0.029  0.00  0.00    -0.500 OA
ATOM     14  H   LIG    1       -0.083   5.598  -0.852  0.00  0.00    +0.390 HD
ENDBRANCH  11  13
ENDBRANCH   5   7
BRANCH   1  15
ATOM     15  C   LIG    1        4.459  -0.646   2.714  0.00  0.00    +0.260 C 
BRANCH  15  19
ATOM     16  C   LIG    1        8.271  -3.898   2.583  0.00  0.00    +0.350 C 
ATOM     17  N   LIG    1        7.504  -2.650   2.617  0.00  0.00    -0.380 N 
ATOM     18  C   LIG    1        6.159  -2.545   2.655  0.00  0.00    +0.230 A 
ATOM     19  C   LIG    1        5.849  -1.228   2.674  0.00  0.00    -0.230 A 
ATOM     20  C   LIG    1        7.045  -0.503   2.656  0.00  0.00    +0.110 A 
ATOM     21  N   LIG    1        8.038  -1.355   2.622  0.00  0.00    -0.290 NA
BRANCH  20  22
ATOM     22  C   LIG    1        7.168   0.998   2.673  0.00  0.00    +0.090 C 
ATOM     23  C   LIG    1        7.900   1.464   1.413  0.00  0.00    +0.020 C 
ATOM     24  C   LIG    1        8.025   2.989   1.430  0.00  0.00    +0.000 C 
ATOM     25  C   LIG    1        8.814   3.422   2.668  0.00  0.00    +0.000 C 
ATOM     26  C   LIG    1        8.083   2.956   3.928  0.00  0.00    +0.000 C 
ATOM     27  C   LIG    1        7.957   1.431   3.910  0.00  0.00    +0.020 C 
ENDBRANCH  20  22
ENDBRANCH  15  19
ENDBRANCH   1  15
TORSDOF 5
