REMARK  Name = ZINCkj000005lon7.0
REMARK                            x       y       z     vdW  Elec       q    Type
REMARK                         _______ _______ _______ _____ _____    ______ ____
ROOT
ATOM      1  C   LIG    1       -0.728   1.579   1.268  0.00  0.00    -0.020 C 
ATOM      2  C   LIG    1       -2.163   1.047   1.275  0.00  0.00    +0.050 C 
ATOM      3  C   LIG    1       -2.870   1.498  -0.006  0.00  0.00    +0.070 C 
ATOM      4  C   LIG    1       -2.076   1.008  -1.219  0.00  0.00    +0.240 C 
ATOM      5  N   LIG    1       -0.722   1.571  -1.182  0.00  0.00    -0.380 N 
ATOM      6  H   LIG    1       -0.779   2.578  -1.151  0.00  0.00    +0.420 HD
ATOM      7  C   LIG    1       -0.013   1.086   0.008  0.00  0.00    +0.280 C 
ENDROOT
BRANCH   1   8
ATOM      8  C   LIG    1        0.011   1.069   2.507  0.00  0.00    +0.290 C 
BRANCH   8   9
ATOM      9  N   LIG    1       -0.602   1.638   3.710  0.00  0.00    -1.130 NA
ATOM     10  H   LIG    1       -1.205   2.394   3.635  0.00  0.00    +0.420 HD
BRANCH   9  11
ATOM     11  S   LIG    1       -0.266   0.990   5.196  0.00  0.00    +2.800 S 
ATOM     12  O   LIG    1       -0.432  -0.415   5.069  0.00  0.00    -0.970 OA
ATOM     13  O   LIG    1       -0.976   1.774   6.145  0.00  0.00    -0.970 OA
BRANCH  11  14
ATOM     14  N   LIG    1        1.344   1.246   5.489  0.00  0.00    -1.260 NA
ATOM     15  H   LIG    1        1.971   1.286   4.751  0.00  0.00    +0.410 HD
ATOM     16  H   LIG    1        1.659   1.356   6.400  0.00  0.00    +0.430 HD
ENDBRANCH  11  14
ENDBRANCH   9  11
ENDBRANCH   8   9
ENDBRANCH   1   8
BRANCH   5  17
ATOM     17  C   LIG    1        0.011   1.162  -2.388  0.00  0.00    +0.330 C 
BRANCH  17  18
ATOM     18  C   LIG    1       -0.646   1.762  -3.603  0.00  0.00    -0.150 A 
ATOM     19  C   LIG    1       -0.247   3.003  -4.063  0.00  0.00    +0.050 A 
ATOM     20  C   LIG    1       -0.850   3.555  -5.178  0.00  0.00    +0.050 A 
ATOM     21  C   LIG    1       -1.852   2.866  -5.834  0.00  0.00    +0.070 A 
ATOM     22  C   LIG    1       -2.252   1.623  -5.375  0.00  0.00    -0.040 A 
ATOM     23 CL   LIG    1       -3.511   0.757  -6.198  0.00  0.00    -0.040 Cl
ATOM     24  C   LIG    1       -1.645   1.070  -4.262  0.00  0.00    +0.050 A 
ENDBRANCH  17  18
ENDBRANCH   5  17
TORSDOF 6
