REMARK  Name = ZINCkj000005lon7.1
REMARK                            x       y       z     vdW  Elec       q    Type
REMARK                         _______ _______ _______ _____ _____    ______ ____
ROOT
ATOM      1  C   LIG    1       -0.019   1.526   0.010  0.00  0.00    +0.010 C 
ATOM      2  C   LIG    1        1.420   2.051  -0.001  0.00  0.00    +0.060 C 
ATOM      3  C   LIG    1        2.149   1.487  -1.223  0.00  0.00    +0.060 C 
ATOM      4  C   LIG    1        2.090  -0.042  -1.186  0.00  0.00    +0.250 C 
ATOM      5  N   LIG    1        0.689  -0.481  -1.204  0.00  0.00    -0.390 N 
ATOM      6  H   LIG    1        0.231  -0.107  -2.021  0.00  0.00    +0.420 HD
ATOM      7  C   LIG    1        0.002  -0.004   0.002  0.00  0.00    +0.280 C 
ENDROOT
BRANCH   1   8
ATOM      8  C   LIG    1       -0.757   2.034  -1.230  0.00  0.00    +0.260 C 
BRANCH   8   9
ATOM      9  N   LIG    1       -0.881   3.492  -1.161  0.00  0.00    -1.120 NA
ATOM     10  H   LIG    1       -0.721   3.954  -0.323  0.00  0.00    +0.430 HD
BRANCH   9  11
ATOM     11  S   LIG    1       -1.295   4.352  -2.514  0.00  0.00    +2.800 S 
ATOM     12  O   LIG    1       -0.450   3.889  -3.558  0.00  0.00    -0.980 OA
ATOM     13  O   LIG    1       -1.365   5.715  -2.118  0.00  0.00    -0.970 OA
BRANCH  11  14
ATOM     14  N   LIG    1       -2.835   3.905  -2.927  0.00  0.00    -1.260 NA
ATOM     15  H   LIG    1       -3.152   3.011  -2.724  0.00  0.00    +0.410 HD
ATOM     16  H   LIG    1       -3.421   4.537  -3.372  0.00  0.00    +0.430 HD
ENDBRANCH  11  14
ENDBRANCH   9  11
ENDBRANCH   8   9
ENDBRANCH   1   8
BRANCH   5  17
ATOM     17  C   LIG    1        0.640  -1.949  -1.246  0.00  0.00    +0.320 C 
BRANCH  17  18
ATOM     18  C   LIG    1        1.236  -2.434  -2.542  0.00  0.00    -0.150 A 
ATOM     19  C   LIG    1        2.588  -2.708  -2.621  0.00  0.00    +0.050 A 
ATOM     20  C   LIG    1        3.136  -3.155  -3.809  0.00  0.00    +0.050 A 
ATOM     21  C   LIG    1        2.331  -3.327  -4.920  0.00  0.00    +0.070 A 
ATOM     22  C   LIG    1        0.977  -3.053  -4.841  0.00  0.00    -0.030 A 
ATOM     23 CL   LIG    1       -0.035  -3.269  -6.235  0.00  0.00    -0.040 Cl
ATOM     24  C   LIG    1        0.429  -2.612  -3.650  0.00  0.00    +0.050 A 
ENDBRANCH  17  18
ENDBRANCH   5  17
TORSDOF 6
