REMARK  Name = ZINCrD0000072aWW.2
REMARK                            x       y       z     vdW  Elec       q    Type
REMARK                         _______ _______ _______ _____ _____    ______ ____
ROOT
ATOM      1  N   LIG    1        4.928   1.115  -0.039  0.00  0.00    -0.720 N 
ATOM      2  H   LIG    1        4.941   0.145  -0.044  0.00  0.00    +0.410 HD
ATOM      3  C   LIG    1        3.751   1.773  -0.024  0.00  0.00    +0.520 C 
ATOM      4  O   LIG    1        3.735   2.985  -0.018  0.00  0.00    -0.530 OA
ENDROOT
BRANCH   1   5
ATOM      5  C   LIG    1        6.186   1.865  -0.047  0.00  0.00    +0.340 C 
BRANCH   5   6
ATOM      6  C   LIG    1        7.282   1.012   0.538  0.00  0.00    +0.280 A 
ATOM      7  N   LIG    1        7.731  -0.090   0.012  0.00  0.00    -0.470 NA
ATOM      8  C   LIG    1        8.715  -0.602   0.795  0.00  0.00    +0.060 A 
ATOM      9  C   LIG    1        9.522  -1.740   0.707  0.00  0.00    +0.090 A 
ATOM     10  C   LIG    1       10.457  -1.992   1.686  0.00  0.00    -0.040 A 
ATOM     11  C   LIG    1       10.604  -1.125   2.760  0.00  0.00    +0.050 A 
ATOM     12  C   LIG    1        9.816   0.001   2.862  0.00  0.00    +0.040 A 
ATOM     13 CL   LIG    1       11.459  -3.406   1.576  0.00  0.00    -0.060 Cl
ATOM     14  C   LIG    1        8.868   0.272   1.885  0.00  0.00    +0.060 A 
ATOM     15  N   LIG    1        7.951   1.286   1.691  0.00  0.00    -0.590 N 
ATOM     16  H   LIG    1        7.809   2.051   2.270  0.00  0.00    +0.430 HD
ENDBRANCH   5   6
BRANCH   5  18
ATOM     17  C   LIG    1        5.496   3.207  -2.038  0.00  0.00    +0.030 C 
ATOM     18  C   LIG    1        6.546   2.241  -1.486  0.00  0.00    +0.020 C 
ENDBRANCH   5  18
ENDBRANCH   1   5
BRANCH   3  19
ATOM     19  C   LIG    1        2.457   1.002  -0.016  0.00  0.00    +0.090 C 
BRANCH  19  20
ATOM     20  C   LIG    1        1.280   1.980   0.001  0.00  0.00    +0.100 C 
BRANCH  20  21
ATOM     21  C   LIG    1       -0.014   1.209   0.009  0.00  0.00    +0.510 C 
ATOM     22  N   LIG    1       -1.191   1.867   0.018  0.00  0.00    -0.630 N 
ATOM     23  H   LIG    1       -1.204   2.837   0.023  0.00  0.00    +0.430 HD
ATOM     24  O   LIG    1        0.002  -0.004   0.002  0.00  0.00    -0.470 OA
BRANCH  22  25
ATOM     25  C   LIG    1       -2.385   1.155   0.020  0.00  0.00    +0.220 A 
ATOM     26  N   LIG    1       -2.496  -0.139   0.014  0.00  0.00    -0.270 NA
ATOM     27  N   LIG    1       -3.660  -0.628   0.016  0.00  0.00    -0.230 NA
ATOM     28  C   LIG    1       -4.643   0.215   0.025  0.00  0.00    +0.010 A 
ATOM     29  C   LIG    1       -6.110  -0.129   0.029  0.00  0.00    +0.210 C 
ATOM     30  S   LIG    1       -3.956   1.840   0.038  0.00  0.00    +0.110 S 
ENDBRANCH  22  25
ENDBRANCH  20  21
ENDBRANCH  19  20
ENDBRANCH   3  19
TORSDOF 7
