REMARK  Name = ZINCnE000005ubFe.0
REMARK                            x       y       z     vdW  Elec       q    Type
REMARK                         _______ _______ _______ _____ _____    ______ ____
ROOT
ATOM      1  O   LIG    1       -0.999   1.633  -2.002  0.00  0.00    -0.520 OA
ATOM      2  C   LIG    1       -1.291   0.477  -2.223  0.00  0.00    +0.530 C 
ATOM      3  N   LIG    1       -2.091   0.171  -3.264  0.00  0.00    -0.720 N 
ATOM      4  H   LIG    1       -2.325  -0.753  -3.441  0.00  0.00    +0.400 HD
ENDROOT
BRANCH   2   5
ATOM      5  C   LIG    1       -0.760  -0.618  -1.335  0.00  0.00    -0.020 C 
ATOM      6  C   LIG    1        0.616  -0.214  -0.763  0.00  0.00    +0.030 C 
ATOM      7  C   LIG    1        0.608  -0.775   0.680  0.00  0.00    +0.000 C 
ATOM      8  C   LIG    1       -0.853  -0.530   1.133  0.00  0.00    +0.020 C 
ATOM      9  C   LIG    1       -1.694  -0.818  -0.128  0.00  0.00    -0.090 C 
BRANCH   9  10
ATOM     10  C   LIG    1       -2.852   0.143  -0.207  0.00  0.00    +0.490 C 
ATOM     11  O   LIG    1       -3.935  -0.240  -0.616  0.00  0.00    -0.690 OA
ATOM     12  O   LIG    1       -2.705   1.305   0.133  0.00  0.00    -0.680 OA
ENDBRANCH   9  10
ENDBRANCH   2   5
BRANCH   3  13
ATOM     13  C   LIG    1       -2.608   1.236  -4.128  0.00  0.00    +0.330 C 
BRANCH  13  14
ATOM     14  C   LIG    1       -3.470   0.633  -5.207  0.00  0.00    -0.060 A 
ATOM     15  C   LIG    1       -2.958   0.445  -6.477  0.00  0.00    +0.050 A 
ATOM     16  C   LIG    1       -3.747  -0.113  -7.465  0.00  0.00    +0.060 A 
ATOM     17  C   LIG    1       -5.052  -0.473  -7.188  0.00  0.00    -0.170 A 
ATOM     18  C   LIG    1       -5.567  -0.281  -5.920  0.00  0.00    +0.080 A 
ATOM     19  C   LIG    1       -4.777   0.272  -4.928  0.00  0.00    -0.030 A 
ATOM     20 CL   LIG    1       -5.423   0.513  -3.335  0.00  0.00    +0.010 Cl
BRANCH  17  21
ATOM     21  C   LIG    1       -5.913  -1.075  -8.268  0.00  0.00    +0.510 C 
ATOM     22  F   LIG    1       -6.845  -1.945  -7.691  0.00  0.00    -0.170 F 
ATOM     23  F   LIG    1       -5.107  -1.784  -9.166  0.00  0.00    -0.180 F 
ATOM     24  F   LIG    1       -6.587  -0.056  -8.950  0.00  0.00    -0.180 F 
ENDBRANCH  17  21
ENDBRANCH  13  14
ENDBRANCH   3  13
TORSDOF 5
