REMARK  Name = ZINCtV000002PQPO.0
REMARK                            x       y       z     vdW  Elec       q    Type
REMARK                         _______ _______ _______ _____ _____    ______ ____
ROOT
ATOM      1  C   LIG    1       -3.912   9.817   1.511  0.00  0.00    +0.170 A 
ATOM      2  N   LIG    1       -4.377  10.208   0.346  0.00  0.00    -0.280 NA
ATOM      3  N   LIG    1       -5.359  11.019   0.510  0.00  0.00    -0.260 NA
ATOM      4  C   LIG    1       -5.581  11.205   1.793  0.00  0.00    +0.270 A 
ATOM      5  N   LIG    1       -4.659  10.439   2.476  0.00  0.00    -0.420 N 
ENDROOT
BRANCH   5   6
ATOM      6  C   LIG    1       -4.517  10.322   3.865  0.00  0.00    +0.100 A 
ATOM      7  C   LIG    1       -5.532   9.753   4.623  0.00  0.00    +0.030 A 
ATOM      8  C   LIG    1       -5.387   9.635   5.992  0.00  0.00    +0.040 A 
ATOM      9  C   LIG    1       -4.236  10.091   6.608  0.00  0.00    +0.040 A 
ATOM     10  C   LIG    1       -3.225  10.662   5.857  0.00  0.00    +0.040 A 
ATOM     11  C   LIG    1       -3.363  10.779   4.487  0.00  0.00    +0.040 A 
ENDBRANCH   5   6
BRANCH   4  12
ATOM     12  C   LIG    1       -6.615  12.066   2.388  0.00  0.00    -0.140 A 
ATOM     13  C   LIG    1       -7.309  13.020   1.730  0.00  0.00    +0.080 A 
ATOM     14  C   LIG    1       -8.231  13.696   2.501  0.00  0.00    +0.010 A 
ATOM     15  C   LIG    1       -8.291  13.311   3.779  0.00  0.00    -0.040 A 
ATOM     16  S   LIG    1       -7.136  12.017   4.067  0.00  0.00    +0.150 S 
ENDBRANCH   4  12
BRANCH   1  17
ATOM     17  S   LIG    1       -2.573   8.704   1.782  0.00  0.00    +0.040 S 
BRANCH  17  18
ATOM     18  C   LIG    1       -2.125   8.329   0.069  0.00  0.00    +0.210 C 
BRANCH  18  21
ATOM     19  C   LIG    1       -0.070   5.323   0.032  0.00  0.00    +0.120 A 
ATOM     20  N   LIG    1       -1.141   6.064   0.046  0.00  0.00    -0.450 NA
ATOM     21  C   LIG    1       -0.966   7.366   0.052  0.00  0.00    +0.080 A 
ATOM     22  C   LIG    1        0.304   7.783   0.042  0.00  0.00    -0.040 A 
ATOM     23  S   LIG    1        1.351   6.365   0.032  0.00  0.00    +0.110 S 
BRANCH  19  27
ATOM     24  C   LIG    1       -0.013   1.076   0.008  0.00  0.00    +0.030 A 
ATOM     25  C   LIG    1       -1.222   1.748   0.017  0.00  0.00    +0.010 A 
ATOM     26  C   LIG    1       -1.247   3.128   0.031  0.00  0.00    +0.070 A 
ATOM     27  C   LIG    1       -0.050   3.845   0.024  0.00  0.00    -0.030 A 
ATOM     28  C   LIG    1        1.166   3.160   0.008  0.00  0.00    +0.030 A 
ATOM     29  C   LIG    1        1.178   1.781   0.000  0.00  0.00    +0.010 A 
ENDBRANCH  19  27
ENDBRANCH  18  21
ENDBRANCH  17  18
ENDBRANCH   1  17
TORSDOF 6
