REMARK  Name = ZINCrg00000fR8qG.0
REMARK                            x       y       z     vdW  Elec       q    Type
REMARK                         _______ _______ _______ _____ _____    ______ ____
ROOT
ATOM      1  C   LIG    1       -0.729   1.579   1.273  0.00  0.00    +0.200 C 
ATOM      2  C   LIG    1       -0.006   1.078   0.021  0.00  0.00    +0.070 C 
ENDROOT
BRANCH   1   5
ATOM      3  N   LIG    1        0.405   3.775   1.369  0.00  0.00    -0.670 N 
ATOM      4  H   LIG    1        1.242   3.304   1.506  0.00  0.00    +0.410 HD
ATOM      5  C   LIG    1       -0.749   3.086   1.273  0.00  0.00    +0.520 C 
ATOM      6  O   LIG    1       -1.804   3.678   1.186  0.00  0.00    -0.490 OA
BRANCH   3  11
ATOM      7  C   LIG    1       -0.670   7.289   1.687  0.00  0.00    -0.150 A 
ATOM      8  C   LIG    1        0.401   7.942   1.069  0.00  0.00    +0.050 A 
ATOM      9  C   LIG    1        1.454   7.210   0.560  0.00  0.00    +0.030 A 
ATOM     10  C   LIG    1        1.458   5.832   0.664  0.00  0.00    +0.020 A 
ATOM     11  C   LIG    1        0.397   5.171   1.272  0.00  0.00    +0.130 A 
ATOM     12  C   LIG    1       -0.667   5.895   1.786  0.00  0.00    +0.090 A 
BRANCH   7  14
ATOM     13  C   LIG    1       -1.796   9.569   2.120  0.00  0.00    +0.080 C 
ATOM     14  C   LIG    1       -1.796   8.066   2.230  0.00  0.00    +0.390 C 
ATOM     15  O   LIG    1       -2.723   7.497   2.765  0.00  0.00    -0.450 OA
ENDBRANCH   7  14
ENDBRANCH   3  11
ENDBRANCH   1   5
BRANCH   1  16
ATOM     16  O   LIG    1       -2.091   1.077   1.279  0.00  0.00    -0.320 OA
BRANCH  16  17
ATOM     17  C   LIG    1       -2.303  -0.105   1.879  0.00  0.00    +0.450 C 
ATOM     18  O   LIG    1       -1.379  -0.701   2.382  0.00  0.00    -0.490 OA
BRANCH  17  19
ATOM     19  C   LIG    1       -3.691  -0.690   1.924  0.00  0.00    +0.420 C 
BRANCH  19  20
ATOM     20  N   LIG    1       -3.657  -1.975   2.627  0.00  0.00    -0.570 N 
ATOM     21  C   LIG    1       -3.458  -3.154   2.027  0.00  0.00    +0.710 C 
ATOM     22  N   LIG    1       -3.469  -4.181   2.897  0.00  0.00    -0.720 N 
ATOM     23  H   LIG    1       -3.344  -5.120   2.687  0.00  0.00    +0.440 HD
ATOM     24  C   LIG    1       -3.714  -3.602   4.229  0.00  0.00    +0.120 C 
ATOM     25  C   LIG    1       -5.017  -4.142   4.823  0.00  0.00    +0.090 C 
ATOM     26  C   LIG    1       -2.538  -3.889   5.165  0.00  0.00    +0.090 C 
ATOM     27  O   LIG    1       -3.283  -3.283   0.832  0.00  0.00    -0.540 OA
ATOM     28  C   LIG    1       -3.828  -2.115   3.956  0.00  0.00    +0.530 C 
ATOM     29  O   LIG    1       -4.030  -1.236   4.766  0.00  0.00    -0.450 OA
ENDBRANCH  19  20
ENDBRANCH  17  19
ENDBRANCH  16  17
ENDBRANCH   1  16
TORSDOF 7
