REMARK  Name = ZINCpe00000gNfVk.0
REMARK                            x       y       z     vdW  Elec       q    Type
REMARK                         _______ _______ _______ _____ _____    ______ ____
ROOT
ATOM      1  O   LIG    1        3.697   7.509  -0.697  0.00  0.00    -0.590 OA
ATOM      2  C   LIG    1        3.442   6.763  -1.622  0.00  0.00    +0.710 C 
ATOM      3  N   LIG    1        3.570   7.196  -2.892  0.00  0.00    -0.730 N 
ATOM      4  H   LIG    1        3.367   6.601  -3.631  0.00  0.00    +0.410 HD
ATOM      5  N   LIG    1        3.033   5.502  -1.379  0.00  0.00    -0.740 N 
ATOM      6  H   LIG    1        2.829   4.907  -2.118  0.00  0.00    +0.400 HD
ENDROOT
BRANCH   3   7
ATOM      7  C   LIG    1        4.015   8.567  -3.156  0.00  0.00    +0.290 C 
BRANCH   7   8
ATOM      8  C   LIG    1        4.075   8.801  -4.667  0.00  0.00    +0.040 C 
BRANCH   8   9
ATOM      9  C   LIG    1        4.414  10.244  -4.939  0.00  0.00    -0.050 A 
ATOM     10  C   LIG    1        5.599  10.776  -4.467  0.00  0.00    +0.010 A 
ATOM     11  C   LIG    1        5.913  12.099  -4.719  0.00  0.00    +0.050 A 
ATOM     12  C   LIG    1        5.038  12.893  -5.435  0.00  0.00    -0.010 A 
ATOM     13  C   LIG    1        3.848  12.362  -5.905  0.00  0.00    +0.100 A 
ATOM     14  F   LIG    1        2.992  13.137  -6.605  0.00  0.00    -0.140 F 
ATOM     15  C   LIG    1        3.537  11.036  -5.655  0.00  0.00    +0.000 A 
ENDBRANCH   8   9
BRANCH   8  16
ATOM     16  C   LIG    1        5.149   7.901  -5.281  0.00  0.00    +0.180 C 
BRANCH  16  17
ATOM     17  O   LIG    1        4.769   6.532  -5.125  0.00  0.00    -0.580 OA
ATOM     18  H   LIG    1        5.406   5.903  -5.492  0.00  0.00    +0.390 HD
ENDBRANCH  16  17
ENDBRANCH   8  16
ENDBRANCH   7   8
ENDBRANCH   3   7
BRANCH   5  19
ATOM     19  C   LIG    1        2.894   5.030   0.001  0.00  0.00    +0.440 C 
BRANCH  19  20
ATOM     20  C   LIG    1        2.425   3.598  -0.002  0.00  0.00    +0.180 A 
ATOM     21  N   LIG    1        3.190   2.535  -0.015  0.00  0.00    -0.230 NA
ATOM     22  N   LIG    1        2.469   1.468  -0.013  0.00  0.00    -0.250 NA
ATOM     23  C   LIG    1        1.190   1.806   0.000  0.00  0.00    +0.140 A 
ATOM     24  C   LIG    1       -0.013   1.076   0.008  0.00  0.00    +0.170 A 
ATOM     25  C   LIG    1       -1.195   1.751   0.017  0.00  0.00    +0.010 A 
ATOM     26  C   LIG    1       -1.207   3.152   0.030  0.00  0.00    +0.350 A 
ATOM     27  N   LIG    1       -0.092   3.834   0.023  0.00  0.00    -0.250 NA
ATOM     28  N   LIG    1        1.141   3.180   0.008  0.00  0.00    -0.290 N 
ENDBRANCH  19  20
ENDBRANCH   5  19
TORSDOF 7
