REMARK  Name = ZINCrH000004joKY.0
REMARK                            x       y       z     vdW  Elec       q    Type
REMARK                         _______ _______ _______ _____ _____    ______ ____
ROOT
ATOM      1  C   LIG    1       -1.410   8.121  -0.161  0.00  0.00    +0.310 C 
ATOM      2  C   LIG    1       -2.922   8.412  -0.263  0.00  0.00    +0.060 C 
ATOM      3  C   LIG    1       -3.501   7.067  -0.776  0.00  0.00    +0.050 C 
ATOM      4  C   LIG    1       -2.588   6.041  -0.064  0.00  0.00    +0.260 C 
ATOM      5  N   LIG    1       -1.252   6.663  -0.053  0.00  0.00    -0.600 N 
ATOM      6  C   LIG    1       -0.079   6.005   0.034  0.00  0.00    +0.580 C 
ATOM      7  O   LIG    1        0.964   6.626   0.095  0.00  0.00    -0.520 OA
ENDROOT
BRANCH   1  16
ATOM      8  N   LIG    1       -0.042   9.891   1.051  0.00  0.00    -0.480 N 
ATOM      9  C   LIG    1        0.265  10.191   2.363  0.00  0.00    +0.050 A 
ATOM     10  C   LIG    1        1.024  11.178   2.976  0.00  0.00    +0.010 A 
ATOM     11  C   LIG    1        1.133  11.200   4.351  0.00  0.00    +0.030 A 
ATOM     12  C   LIG    1        0.489  10.244   5.123  0.00  0.00    +0.000 A 
ATOM     13  C   LIG    1       -0.262   9.265   4.536  0.00  0.00    +0.070 A 
ATOM     14  C   LIG    1       -0.387   9.222   3.145  0.00  0.00    +0.050 A 
ATOM     15  N   LIG    1       -1.048   8.402   2.289  0.00  0.00    -0.480 NA
ATOM     16  C   LIG    1       -0.842   8.790   1.064  0.00  0.00    +0.280 A 
BRANCH   8  18
ATOM     17  C   LIG    1       -0.599  11.723  -0.471  0.00  0.00    +0.030 C 
ATOM     18  C   LIG    1        0.409  10.622  -0.136  0.00  0.00    +0.280 C 
ENDBRANCH   8  18
ENDBRANCH   1  16
BRANCH   6  19
ATOM     19  C   LIG    1       -0.061   4.527   0.056  0.00  0.00    -0.090 A 
ATOM     20  C   LIG    1       -1.163   3.820   0.541  0.00  0.00    +0.030 A 
ATOM     21  C   LIG    1       -1.140   2.440   0.558  0.00  0.00    +0.100 A 
ATOM     22  C   LIG    1       -0.028   1.758   0.096  0.00  0.00    -0.440 A 
ATOM     23  C   LIG    1        1.069   2.453  -0.381  0.00  0.00    +0.070 A 
ATOM     24  C   LIG    1        1.056   3.832  -0.409  0.00  0.00    +0.050 A 
BRANCH  22  25
ATOM     25  S   LIG    1       -0.007  -0.004   0.122  0.00  0.00    +1.330 S 
ATOM     26  O   LIG    1        1.381  -0.306   0.143  0.00  0.00    -0.850 OA
ATOM     27  C   LIG    1       -0.698  -0.444  -1.497  0.00  0.00    -0.200 C 
ENDBRANCH  22  25
ENDBRANCH   6  19
TORSDOF 4
