REMARK  Name = ZINCrH000004nbJs.0
REMARK                            x       y       z     vdW  Elec       q    Type
REMARK                         _______ _______ _______ _____ _____    ______ ____
ROOT
ATOM      1  C   LIG    1        1.159   2.059  -0.082  0.00  0.00    +0.120 A 
ATOM      2  C   LIG    1        0.074   1.623   0.662  0.00  0.00    -0.050 A 
ATOM      3  C   LIG    1        0.169   0.471   1.421  0.00  0.00    +0.050 A 
ATOM      4  C   LIG    1        1.351  -0.253   1.442  0.00  0.00    +0.060 A 
ATOM      5  O   LIG    1        1.431  -1.387   2.189  0.00  0.00    -0.310 OA
ATOM      6  C   LIG    1        2.732  -1.859   2.546  0.00  0.00    +0.160 C 
ATOM      7  C   LIG    1        3.605  -1.903   1.284  0.00  0.00    +0.270 C 
ATOM      8  N   LIG    1        3.642  -0.542   0.720  0.00  0.00    -0.550 N 
ATOM      9  C   LIG    1        4.787  -0.015   0.243  0.00  0.00    +0.580 C 
ATOM     10  O   LIG    1        4.783   1.090  -0.263  0.00  0.00    -0.490 OA
ATOM     11  C   LIG    1        2.623  -3.263   3.143  0.00  0.00    +0.080 C 
ATOM     12  C   LIG    1        2.441   0.187   0.696  0.00  0.00    +0.120 A 
ATOM     13  C   LIG    1        2.345   1.340  -0.066  0.00  0.00    +0.030 A 
ENDROOT
BRANCH   9  14
ATOM     14  C   LIG    1        6.046  -0.781   0.336  0.00  0.00    -0.210 A 
ATOM     15  C   LIG    1        6.069  -2.150   0.043  0.00  0.00    +0.370 A 
ATOM     16  N   LIG    1        7.179  -2.851   0.119  0.00  0.00    -0.450 NA
ATOM     17  C   LIG    1        8.328  -2.300   0.474  0.00  0.00    +0.230 A 
ATOM     18  O   LIG    1        9.586  -2.745   0.636  0.00  0.00    +0.090 OA
ATOM     19  N   LIG    1       10.355  -1.879   0.981  0.00  0.00    -0.300 NA
ATOM     20  C   LIG    1        9.796  -0.713   1.119  0.00  0.00    +0.080 A 
ATOM     21  C   LIG    1        8.384  -0.922   0.784  0.00  0.00    -0.220 A 
ATOM     22  C   LIG    1        7.237  -0.147   0.711  0.00  0.00    +0.230 A 
BRANCH  20  23
ATOM     23  C   LIG    1       10.457   0.576   1.535  0.00  0.00    +0.080 C 
ATOM     24  C   LIG    1       11.559   0.930   0.533  0.00  0.00    +0.040 C 
ATOM     25  C   LIG    1       11.068   0.410   2.928  0.00  0.00    +0.040 C 
ENDBRANCH  20  23
ENDBRANCH   9  14
BRANCH   1  27
ATOM     26  C   LIG    1       -0.190   3.882  -0.798  0.00  0.00    +0.250 C 
ATOM     27  O   LIG    1        1.061   3.192  -0.828  0.00  0.00    -0.310 OA
ENDBRANCH   1  27
TORSDOF 3
