REMARK  Name = ZINCvU00000008ku.0
REMARK                            x       y       z     vdW  Elec       q    Type
REMARK                         _______ _______ _______ _____ _____    ______ ____
ROOT
ATOM      1  C   LIG    1       -9.189  -0.469   0.555  0.00  0.00    -0.030 A 
ATOM      2  C   LIG    1       -9.306  -0.528  -0.757  0.00  0.00    -0.200 A 
ATOM      3  S   LIG    1       -7.983   0.301  -1.554  0.00  0.00    +0.190 S 
ATOM      4  C   LIG    1       -7.246   0.741  -0.019  0.00  0.00    +0.090 A 
ATOM      5  N   LIG    1       -6.122   1.435   0.251  0.00  0.00    -0.510 NA
ATOM      6  C   LIG    1       -5.734   1.662   1.482  0.00  0.00    +0.370 A 
ATOM      7  N   LIG    1       -6.446   1.204   2.553  0.00  0.00    -0.510 N 
ATOM      8  C   LIG    1       -7.584   0.507   2.363  0.00  0.00    +0.570 A 
ATOM      9  O   LIG    1       -8.226   0.099   3.316  0.00  0.00    -0.490 OA
ATOM     10  C   LIG    1      -10.434  -1.219  -1.480  0.00  0.00    +0.150 C 
ATOM     11  C   LIG    1       -8.021   0.250   1.030  0.00  0.00    -0.230 A 
ENDROOT
BRANCH   1  13
ATOM     12  C   LIG    1       -9.768  -2.538   1.792  0.00  0.00    +0.020 C 
ATOM     13  C   LIG    1      -10.189  -1.099   1.489  0.00  0.00    +0.090 C 
ENDBRANCH   1  13
BRANCH   6  14
ATOM     14  S   LIG    1       -4.254   2.576   1.762  0.00  0.00    +0.010 S 
BRANCH  14  15
ATOM     15  C   LIG    1       -3.757   2.902   0.053  0.00  0.00    +0.180 C 
BRANCH  15  16
ATOM     16  C   LIG    1       -2.476   3.695   0.044  0.00  0.00    -0.070 A 
ATOM     17  C   LIG    1       -2.515   5.055   0.051  0.00  0.00    +0.070 A 
ATOM     18  C   LIG    1       -1.342   5.809   0.045  0.00  0.00    +0.010 A 
ATOM     19  C   LIG    1       -0.123   5.203   0.030  0.00  0.00    +0.050 A 
ATOM     20  C   LIG    1       -0.045   3.801   0.022  0.00  0.00    -0.100 A 
ATOM     21  C   LIG    1        1.196   3.136   0.007  0.00  0.00    +0.090 A 
ATOM     22  C   LIG    1        1.195   1.770   0.000  0.00  0.00    -0.030 A 
ATOM     23  C   LIG    1       -0.013   1.076   0.008  0.00  0.00    +0.300 A 
ATOM     24  N   LIG    1       -1.166   1.698   0.017  0.00  0.00    -0.470 NA
ATOM     25  C   LIG    1       -1.236   3.033   0.029  0.00  0.00    +0.140 A 
ENDBRANCH  15  16
ENDBRANCH  14  15
ENDBRANCH   6  14
BRANCH   7  26
ATOM     26  C   LIG    1       -5.974   1.475   3.913  0.00  0.00    +0.330 C 
BRANCH  26  27
ATOM     27  C   LIG    1       -6.571   2.795   4.406  0.00  0.00    +0.140 C 
ATOM     28  C   LIG    1       -5.990   3.164   5.789  0.00  0.00    +0.010 C 
ATOM     29  C   LIG    1       -7.184   3.792   6.542  0.00  0.00    +0.010 C 
ATOM     30  C   LIG    1       -8.345   3.728   5.525  0.00  0.00    +0.190 C 
ATOM     31  O   LIG    1       -7.991   2.652   4.628  0.00  0.00    -0.350 OA
ENDBRANCH  26  27
ENDBRANCH   7  26
TORSDOF 6
