REMARK  Name = ZINCah0000001hFQ.0
REMARK                            x       y       z     vdW  Elec       q    Type
REMARK                         _______ _______ _______ _____ _____    ______ ____
ROOT
ATOM      1  C   LIG    1       -1.824   0.001  -1.667  0.00  0.00    +0.100 C 
ATOM      2  C   LIG    1       -0.838  -0.713  -0.778  0.00  0.00    +0.520 C 
ATOM      3  N   LIG    1        0.002  -0.004   0.002  0.00  0.00    -0.620 N 
ATOM      4  C   LIG    1       -0.018   1.466   0.010  0.00  0.00    +0.310 C 
ATOM      5  C   LIG    1        1.395   1.979  -0.001  0.00  0.00    -0.070 C 
ATOM      6  C   LIG    1        2.432   1.228   0.191  0.00  0.00    -0.110 C 
ATOM      7  C   LIG    1        2.380  -0.252   0.430  0.00  0.00    +0.070 C 
ATOM      8  C   LIG    1        3.787   1.887   0.171  0.00  0.00    +0.060 C 
ATOM      9  C   LIG    1        0.978  -0.670   0.882  0.00  0.00    +0.280 C 
ATOM     10  O   LIG    1       -0.800  -1.925  -0.765  0.00  0.00    -0.550 OA
ENDROOT
TORSDOF 0
