REMARK  Name = ZINCAx00000009RG.0
REMARK                            x       y       z     vdW  Elec       q    Type
REMARK                         _______ _______ _______ _____ _____    ______ ____
ROOT
ATOM      1  C   LIG    1       -0.047   1.099  -2.478  0.00  0.00    +0.520 C 
ATOM      2  N   LIG    1       -0.579   1.346  -3.692  0.00  0.00    -0.600 N 
ATOM      3  O   LIG    1        1.002   0.496  -2.387  0.00  0.00    -0.530 OA
ENDROOT
BRANCH   1   4
ATOM      4  C   LIG    1       -0.754   1.573  -1.235  0.00  0.00    +0.060 C 
BRANCH   4   5
ATOM      5  C   LIG    1       -0.014   1.058   0.001  0.00  0.00    +0.130 C 
BRANCH   5  16
ATOM      6  C   LIG    1        0.564   3.692   1.100  0.00  0.00    +0.160 C 
ATOM      7  C   LIG    1       -0.446   2.800   1.775  0.00  0.00    +0.200 A 
ATOM      8  N   LIG    1       -1.063   3.213   2.859  0.00  0.00    -0.420 NA
ATOM      9  C   LIG    1       -1.960   2.438   3.471  0.00  0.00    +0.250 A 
ATOM     10  C   LIG    1       -2.755   2.608   4.613  0.00  0.00    -0.050 A 
ATOM     11  N   LIG    1       -3.482   1.482   4.762  0.00  0.00    -0.410 NA
ATOM     12  C   LIG    1       -3.196   0.644   3.808  0.00  0.00    +0.370 A 
ATOM     13  N   LIG    1       -2.258   1.190   2.983  0.00  0.00    -0.400 N 
ATOM     14  C   LIG    1       -1.635   0.738   1.855  0.00  0.00    +0.150 A 
ATOM     15  C   LIG    1       -1.954  -0.627   1.301  0.00  0.00    +0.170 C 
ATOM     16  C   LIG    1       -0.722   1.532   1.244  0.00  0.00    -0.160 A 
BRANCH  10  17
ATOM     17  C   LIG    1       -2.788   3.786   5.480  0.00  0.00    +0.610 C 
ATOM     18  O   LIG    1       -2.077   4.743   5.235  0.00  0.00    -0.530 OA
ATOM     19  N   LIG    1       -3.607   3.811   6.551  0.00  0.00    -0.840 N 
ATOM     20  H   LIG    1       -3.629   4.591   7.126  0.00  0.00    +0.410 HD
ATOM     21  H   LIG    1       -4.174   3.048   6.746  0.00  0.00    +0.410 HD
ENDBRANCH  10  17
ENDBRANCH   5  16
ENDBRANCH   4   5
ENDBRANCH   1   4
BRANCH   2  22
ATOM     22  C   LIG    1        0.046   0.786  -4.893  0.00  0.00    +0.340 C 
BRANCH  22  23
ATOM     23  C   LIG    1       -0.549  -0.567  -5.185  0.00  0.00    -0.120 A 
ATOM     24  C   LIG    1        0.023  -1.704  -4.645  0.00  0.00    +0.060 A 
ATOM     25  C   LIG    1       -0.520  -2.950  -4.905  0.00  0.00    +0.000 A 
ATOM     26  C   LIG    1       -1.632  -3.066  -5.714  0.00  0.00    +0.050 A 
ATOM     27  C   LIG    1       -2.211  -1.923  -6.267  0.00  0.00    -0.140 A 
ATOM     28  C   LIG    1       -1.661  -0.669  -5.996  0.00  0.00    +0.080 A 
BRANCH  27  29
ATOM     29  C   LIG    1       -3.402  -2.039  -7.135  0.00  0.00    +0.560 C 
ATOM     30  O   LIG    1       -3.904  -1.042  -7.615  0.00  0.00    -0.540 OA
ATOM     31  N   LIG    1       -3.930  -3.252  -7.394  0.00  0.00    -0.850 N 
ATOM     32  H   LIG    1       -4.712  -3.328  -7.964  0.00  0.00    +0.410 HD
ATOM     33  H   LIG    1       -3.530  -4.048  -7.011  0.00  0.00    +0.400 HD
ENDBRANCH  27  29
ENDBRANCH  22  23
ENDBRANCH   2  22
BRANCH   2  34
ATOM     34  C   LIG    1       -1.782   2.173  -3.810  0.00  0.00    +0.320 C 
BRANCH  34  35
ATOM     35  C   LIG    1       -1.385   3.598  -4.099  0.00  0.00    -0.110 A 
ATOM     36  C   LIG    1       -1.273   4.508  -3.065  0.00  0.00    +0.010 A 
ATOM     37  C   LIG    1       -0.905   5.814  -3.330  0.00  0.00    +0.000 A 
ATOM     38  C   LIG    1       -0.659   6.212  -4.630  0.00  0.00    +0.010 A 
ATOM     39  C   LIG    1       -0.776   5.303  -5.665  0.00  0.00    +0.000 A 
ATOM     40  C   LIG    1       -1.139   3.996  -5.400  0.00  0.00    +0.020 A 
ENDBRANCH  34  35
ENDBRANCH   2  34
TORSDOF 9
