REMARK  Name = ZINCbw0000001N9l.0
REMARK                            x       y       z     vdW  Elec       q    Type
REMARK                         _______ _______ _______ _____ _____    ______ ____
ROOT
ATOM      1  C   LIG    1        1.181   1.888   0.001  0.00  0.00    -0.060 A 
ATOM      2  C   LIG    1        0.918   3.222   0.011  0.00  0.00    +0.010 A 
ATOM      3  S   LIG    1       -0.762   3.509   0.028  0.00  0.00    +0.310 S 
ATOM      4  C   LIG    1       -1.131   1.793   0.017  0.00  0.00    -0.330 A 
ATOM      5  C   LIG    1       -0.013   1.076   0.008  0.00  0.00    +0.150 A 
ENDROOT
BRANCH   4   6
ATOM      6  C   LIG    1       -2.522   1.214   0.019  0.00  0.00    +0.550 C 
ATOM      7  F   LIG    1       -2.516  -0.016  -0.647  0.00  0.00    -0.170 F 
ATOM      8  F   LIG    1       -3.394   2.093  -0.631  0.00  0.00    -0.170 F 
ATOM      9  F   LIG    1       -2.947   1.027   1.339  0.00  0.00    -0.170 F 
ENDBRANCH   4   6
BRANCH   1  11
ATOM     10  N   LIG    1        3.557   0.914  -0.027  0.00  0.00    -0.400 NA
ATOM     11  C   LIG    1        2.506   1.345  -0.015  0.00  0.00    +0.270 C 
ENDBRANCH   1  11
TORSDOF 2
