REMARK  Name = ZINCqH0000003xf6.0
REMARK                            x       y       z     vdW  Elec       q    Type
REMARK                         _______ _______ _______ _____ _____    ______ ____
ROOT
ATOM      1  N   LIG    1        0.081  -3.626   3.321  0.00  0.00    -0.500 N 
ATOM      2  C   LIG    1        0.095  -3.673   4.704  0.00  0.00    +0.050 A 
ATOM      3  C   LIG    1        0.118  -4.705   5.631  0.00  0.00    +0.010 A 
ATOM      4  C   LIG    1        0.127  -4.416   6.980  0.00  0.00    +0.020 A 
ATOM      5  C   LIG    1        0.114  -3.099   7.417  0.00  0.00    +0.010 A 
ATOM      6  C   LIG    1        0.090  -2.063   6.511  0.00  0.00    +0.060 A 
ATOM      7  C   LIG    1        0.081  -2.338   5.141  0.00  0.00    +0.060 A 
ATOM      8  N   LIG    1        0.065  -1.555   4.031  0.00  0.00    -0.470 NA
ATOM      9  C   LIG    1        0.060  -2.309   2.962  0.00  0.00    +0.510 A 
ENDROOT
BRANCH   9  10
ATOM     10  N   LIG    1        0.042  -1.840   1.659  0.00  0.00    -0.640 N 
ATOM     11  H   LIG    1        0.044  -2.466   0.918  0.00  0.00    +0.420 HD
ATOM     12  C   LIG    1        0.022  -0.514   1.420  0.00  0.00    +0.520 C 
ATOM     13  O   LIG    1        0.020   0.269   2.346  0.00  0.00    -0.450 OA
BRANCH  12  14
ATOM     14  C   LIG    1        0.002  -0.004   0.002  0.00  0.00    +0.180 C 
BRANCH  14  15
ATOM     15  C   LIG    1       -0.018   1.503   0.010  0.00  0.00    +0.070 A 
ATOM     16  C   LIG    1       -1.152   2.210   0.019  0.00  0.00    -0.210 A 
ATOM     17  S   LIG    1       -0.724   3.920   0.029  0.00  0.00    +0.130 S 
ATOM     18  C   LIG    1        0.936   3.513   0.011  0.00  0.00    +0.050 A 
ATOM     19  C   LIG    1        2.068   4.508   0.006  0.00  0.00    +0.180 C 
ATOM     20  C   LIG    1       -2.549   1.646   0.023  0.00  0.00    +0.150 C 
ATOM     21  N   LIG    1        1.080   2.231   0.004  0.00  0.00    -0.460 NA
ENDBRANCH  14  15
ENDBRANCH  12  14
ENDBRANCH   9  10
BRANCH   1  22
ATOM     22  C   LIG    1        0.088  -4.774   2.412  0.00  0.00    +0.300 C 
BRANCH  22  23
ATOM     23  C   LIG    1        1.532  -5.155   2.082  0.00  0.00    +0.020 C 
BRANCH  23  24
ATOM     24  C   LIG    1        1.539  -6.355   1.132  0.00  0.00    +0.170 C 
BRANCH  24  25
ATOM     25  O   LIG    1        2.889  -6.710   0.824  0.00  0.00    -0.390 OA
BRANCH  25  27
ATOM     26  C   LIG    1        4.487  -8.116  -0.320  0.00  0.00    +0.040 C 
ATOM     27  C   LIG    1        3.008  -7.826  -0.061  0.00  0.00    +0.160 C 
ENDBRANCH  25  27
ENDBRANCH  24  25
ENDBRANCH  23  24
ENDBRANCH  22  23
ENDBRANCH   1  22
TORSDOF 8
