REMARK  Name = ZINCrH000004uApi.0
REMARK                            x       y       z     vdW  Elec       q    Type
REMARK                         _______ _______ _______ _____ _____    ______ ____
ROOT
ATOM      1  C   LIG    1       -2.596  -0.397   0.024  0.00  0.00    +0.600 C 
ATOM      2  N   LIG    1       -3.794  -1.015   0.032  0.00  0.00    -0.710 N 
ATOM      3  H   LIG    1       -4.610  -0.491   0.042  0.00  0.00    +0.410 HD
ATOM      4  O   LIG    1       -1.573  -1.054   0.012  0.00  0.00    -0.520 OA
ENDROOT
BRANCH   1  10
ATOM      5  O   LIG    1       -2.622   5.054   0.051  0.00  0.00    -0.500 OA
ATOM      6  C   LIG    1       -2.540   3.840   0.044  0.00  0.00    +0.520 A 
ATOM      7  N   LIG    1       -3.649   3.072   0.050  0.00  0.00    -0.460 N 
ATOM      8  H   LIG    1       -4.513   3.514   0.059  0.00  0.00    +0.440 HD
ATOM      9  N   LIG    1       -3.623   1.794   0.043  0.00  0.00    -0.190 NA
ATOM     10  C   LIG    1       -2.526   1.077   0.030  0.00  0.00    +0.060 A 
ATOM     11  C   LIG    1       -1.222   1.761   0.017  0.00  0.00    -0.040 A 
ATOM     12  C   LIG    1       -0.013   1.076   0.008  0.00  0.00    +0.080 A 
ATOM     13  C   LIG    1        1.169   1.788   0.001  0.00  0.00    +0.050 A 
ATOM     14  C   LIG    1        1.162   3.176   0.008  0.00  0.00    +0.030 A 
ATOM     15  C   LIG    1       -0.027   3.875   0.022  0.00  0.00    +0.090 A 
ATOM     16  C   LIG    1       -1.229   3.175   0.029  0.00  0.00    -0.140 A 
ENDBRANCH   1  10
BRANCH   2  17
ATOM     17  C   LIG    1       -3.863  -2.478   0.026  0.00  0.00    +0.400 C 
BRANCH  17  18
ATOM     18  C   LIG    1       -5.306  -2.913   0.036  0.00  0.00    -0.030 A 
ATOM     19  C   LIG    1       -6.068  -3.134  -1.053  0.00  0.00    -0.010 A 
ATOM     20  C   LIG    1       -7.343  -3.522  -0.593  0.00  0.00    -0.030 A 
ATOM     21  C   LIG    1       -7.288  -3.515   0.765  0.00  0.00    +0.040 A 
ATOM     22  O   LIG    1       -6.045  -3.149   1.133  0.00  0.00    -0.160 OA
BRANCH  21  23
ATOM     23  C   LIG    1       -8.397  -3.857   1.680  0.00  0.00    -0.020 A 
ATOM     24  C   LIG    1       -9.642  -4.223   1.165  0.00  0.00    +0.060 A 
ATOM     25  C   LIG    1      -10.673  -4.545   2.024  0.00  0.00    +0.030 A 
ATOM     26  C   LIG    1      -10.477  -4.496   3.394  0.00  0.00    -0.030 A 
ATOM     27  C   LIG    1       -9.246  -4.129   3.910  0.00  0.00    +0.030 A 
ATOM     28 CL   LIG    1      -11.780  -4.897   4.468  0.00  0.00    -0.060 Cl
ATOM     29  C   LIG    1       -8.206  -3.810   3.062  0.00  0.00    +0.050 A 
ENDBRANCH  21  23
ENDBRANCH  17  18
ENDBRANCH   2  17
TORSDOF 4
