REMARK  Name = ZINCrg00000SjSDV.0
REMARK                            x       y       z     vdW  Elec       q    Type
REMARK                         _______ _______ _______ _____ _____    ______ ____
ROOT
ATOM      1  S   LIG    1       -3.555   6.079   0.176  0.00  0.00    +2.650 S 
ATOM      2  O   LIG    1       -4.365   5.038  -0.352  0.00  0.00    -0.950 OA
ATOM      3  O   LIG    1       -3.506   7.385  -0.381  0.00  0.00    -0.920 OA
ENDROOT
BRANCH   1   4
ATOM      4  C   LIG    1       -1.900   5.473   0.170  0.00  0.00    -0.730 A 
ATOM      5  C   LIG    1       -0.959   6.022  -0.684  0.00  0.00    +0.470 A 
ATOM      6  N   LIG    1        0.286   5.588  -0.711  0.00  0.00    -0.510 NA
ATOM      7  C   LIG    1        0.694   4.610   0.079  0.00  0.00    +0.450 A 
ATOM      8  C   LIG    1       -0.207   4.004   0.974  0.00  0.00    -0.260 A 
ATOM      9  C   LIG    1        0.281   2.913   1.833  0.00  0.00    +0.570 A 
ATOM     10  N   LIG    1        1.579   2.552   1.729  0.00  0.00    -0.660 N 
ATOM     11  H   LIG    1        1.922   1.838   2.290  0.00  0.00    +0.440 HD
ATOM     12  C   LIG    1        2.401   3.160   0.860  0.00  0.00    +0.710 A 
ATOM     13  O   LIG    1        3.559   2.795   0.802  0.00  0.00    -0.520 OA
ATOM     14  O   LIG    1       -0.461   2.356   2.619  0.00  0.00    -0.480 OA
ATOM     15  N   LIG    1        2.001   4.156   0.051  0.00  0.00    -0.530 N 
ATOM     16  C   LIG    1        2.961   4.769  -0.871  0.00  0.00    +0.370 C 
ATOM     17  C   LIG    1       -1.529   4.444   1.020  0.00  0.00    +0.280 A 
ENDBRANCH   1   4
BRANCH   1  27
ATOM     18  C   LIG    1       -2.095   7.992   0.595  0.00  0.00    +0.120 C 
ATOM     19  C   LIG    1       -2.745   8.307   1.917  0.00  0.00    -0.130 A 
ATOM     20  C   LIG    1       -2.413   9.466   2.590  0.00  0.00    +0.040 A 
ATOM     21  C   LIG    1       -3.011   9.754   3.804  0.00  0.00    +0.000 A 
ATOM     22  C   LIG    1       -3.937   8.883   4.345  0.00  0.00    +0.030 A 
ATOM     23  C   LIG    1       -4.274   7.718   3.678  0.00  0.00    -0.100 A 
ATOM     24  C   LIG    1       -5.282   6.787   4.300  0.00  0.00    +0.080 C 
ATOM     25  C   LIG    1       -5.886   5.867   3.239  0.00  0.00    +0.040 C 
ATOM     26  C   LIG    1       -4.754   5.206   2.451  0.00  0.00    +0.290 C 
ATOM     27  N   LIG    1       -4.003   6.263   1.760  0.00  0.00    -0.930 N 
ATOM     28  C   LIG    1       -3.678   7.430   2.460  0.00  0.00    +0.170 A 
ENDBRANCH   1  27
TORSDOF 2
