REMARK  Name = ZINCrH000004r7AZ.0
REMARK                            x       y       z     vdW  Elec       q    Type
REMARK                         _______ _______ _______ _____ _____    ______ ____
ROOT
ATOM      1  N   LIG    1        9.210  -3.412  -1.589  0.00  0.00    -0.410 N 
ATOM      2  N   LIG    1        8.053  -2.626  -1.546  0.00  0.00    -0.200 NA
ATOM      3  C   LIG    1        7.798  -1.758  -2.476  0.00  0.00    +0.080 C 
ATOM      4  C   LIG    1        8.744  -1.560  -3.630  0.00  0.00    +0.110 C 
ATOM      5  C   LIG    1       10.184  -1.768  -3.155  0.00  0.00    +0.090 C 
ATOM      6  C   LIG    1       10.261  -3.036  -2.344  0.00  0.00    +0.500 C 
ATOM      7  O   LIG    1       11.264  -3.716  -2.371  0.00  0.00    -0.490 OA
ENDROOT
BRANCH   1  13
ATOM      8  C   LIG    1       11.510  -6.164   1.775  0.00  0.00    +0.100 C 
ATOM      9  C   LIG    1       10.382  -5.952   0.798  0.00  0.00    -0.080 A 
ATOM     10  C   LIG    1        9.412  -6.926   0.641  0.00  0.00    +0.020 A 
ATOM     11  C   LIG    1        8.376  -6.735  -0.254  0.00  0.00    +0.020 A 
ATOM     12  C   LIG    1        8.303  -5.570  -0.991  0.00  0.00    -0.080 A 
ATOM     13  C   LIG    1        9.278  -4.592  -0.839  0.00  0.00    +0.150 A 
ATOM     14  C   LIG    1        7.169  -5.361  -1.962  0.00  0.00    +0.090 C 
ATOM     15  C   LIG    1       10.317  -4.786   0.061  0.00  0.00    +0.030 A 
ENDBRANCH   1  13
BRANCH   3  16
ATOM     16  C   LIG    1        6.573  -0.954  -2.399  0.00  0.00    +0.580 C 
ATOM     17  N   LIG    1        5.720  -1.123  -1.369  0.00  0.00    -0.710 N 
ATOM     18  H   LIG    1        5.915  -1.777  -0.680  0.00  0.00    +0.410 HD
ATOM     19  O   LIG    1        6.328  -0.134  -3.264  0.00  0.00    -0.520 OA
BRANCH  17  20
ATOM     20  C   LIG    1        4.496  -0.321  -1.292  0.00  0.00    +0.280 C 
BRANCH  20  21
ATOM     21  C   LIG    1        3.711  -0.707  -0.037  0.00  0.00    +0.030 C 
ATOM     22  C   LIG    1        4.520  -0.333   1.206  0.00  0.00    +0.030 C 
BRANCH  21  23
ATOM     23  C   LIG    1        2.396   0.029  -0.021  0.00  0.00    -0.080 A 
ATOM     24  C   LIG    1        1.208  -0.679  -0.013  0.00  0.00    +0.010 A 
ATOM     25  C   LIG    1        0.002  -0.004   0.002  0.00  0.00    +0.000 A 
ATOM     26  C   LIG    1       -0.017   1.378   0.010  0.00  0.00    +0.000 A 
ATOM     27  C   LIG    1        1.171   2.086   0.002  0.00  0.00    +0.000 A 
ATOM     28  C   LIG    1        2.377   1.411  -0.015  0.00  0.00    +0.010 A 
ENDBRANCH  21  23
ENDBRANCH  20  21
ENDBRANCH  17  20
ENDBRANCH   3  16
TORSDOF 5
