REMARK  Name = ZINCqH0000006lMH.0
REMARK                            x       y       z     vdW  Elec       q    Type
REMARK                         _______ _______ _______ _____ _____    ______ ____
ROOT
ATOM      1  N   LIG    1        4.857   1.286   0.046  0.00  0.00    -0.530 N 
ATOM      2  C   LIG    1        3.665   1.910  -0.098  0.00  0.00    +0.550 A 
ATOM      3  C   LIG    1        2.451   1.089   0.004  0.00  0.00    -0.200 A 
ATOM      4  C   LIG    1        1.177   1.640  -0.131  0.00  0.00    +0.100 A 
ATOM      5  C   LIG    1        0.071   0.826  -0.027  0.00  0.00    -0.010 A 
ATOM      6  C   LIG    1        0.214  -0.535   0.211  0.00  0.00    +0.060 A 
ATOM      7  C   LIG    1        1.462  -1.100   0.347  0.00  0.00    +0.030 A 
ATOM      8  C   LIG    1        2.600  -0.296   0.246  0.00  0.00    +0.160 A 
ATOM      9  N   LIG    1        3.845  -0.812   0.373  0.00  0.00    -0.530 NA
ATOM     10  O   LIG    1        3.601   3.108  -0.305  0.00  0.00    -0.460 OA
ATOM     11  C   LIG    1        4.913  -0.058   0.278  0.00  0.00    +0.370 A 
ENDROOT
BRANCH   1  12
ATOM     12  C   LIG    1        6.098   2.060  -0.047  0.00  0.00    +0.240 C 
ATOM     13  C   LIG    1        6.104   2.858  -1.352  0.00  0.00    +0.070 C 
BRANCH  12  14
ATOM     14  C   LIG    1        6.189   3.021   1.140  0.00  0.00    +0.170 C 
BRANCH  14  16
ATOM     15  C   LIG    1        5.152   4.955   2.104  0.00  0.00    +0.200 C 
ATOM     16  O   LIG    1        5.155   4.003   1.039  0.00  0.00    -0.350 OA
ENDBRANCH  14  16
ENDBRANCH  12  14
ENDBRANCH   1  12
BRANCH  11  17
ATOM     17  S   LIG    1        6.494  -0.815   0.457  0.00  0.00    -0.010 S 
BRANCH  17  18
ATOM     18  C   LIG    1        5.991  -2.531   0.735  0.00  0.00    +0.170 C 
BRANCH  18  19
ATOM     19  C   LIG    1        7.216  -3.389   0.921  0.00  0.00    -0.090 A 
ATOM     20  C   LIG    1        7.811  -3.989  -0.175  0.00  0.00    +0.070 A 
ATOM     21  C   LIG    1        8.938  -4.775  -0.014  0.00  0.00    +0.020 A 
ATOM     22  C   LIG    1        9.471  -4.974   1.242  0.00  0.00    +0.080 A 
ATOM     23  C   LIG    1        8.873  -4.376   2.353  0.00  0.00    -0.020 A 
ATOM     24  C   LIG    1        7.738  -3.580   2.183  0.00  0.00    +0.090 A 
BRANCH  23  25
ATOM     25  C   LIG    1        9.420  -4.578   3.661  0.00  0.00    +0.250 C 
ATOM     26  N   LIG    1        9.854  -4.738   4.699  0.00  0.00    -0.410 NA
ENDBRANCH  23  25
ENDBRANCH  18  19
ENDBRANCH  17  18
ENDBRANCH  11  17
TORSDOF 7
