REMARK  Name = ZINCrH000004qPow.0
REMARK                            x       y       z     vdW  Elec       q    Type
REMARK                         _______ _______ _______ _____ _____    ______ ____
ROOT
ATOM      1  C   LIG    1       -0.739   1.585   1.260  0.00  0.00    +0.260 C 
ATOM      2  C   LIG    1       -0.013   1.086   0.008  0.00  0.00    +0.040 C 
ATOM      3  C   LIG    1       -0.764   1.599  -1.226  0.00  0.00    +0.050 C 
ATOM      4  C   LIG    1       -0.616   3.119  -1.293  0.00  0.00    +0.260 C 
ATOM      5  N   LIG    1       -0.969   3.723  -0.014  0.00  0.00    -0.600 N 
ATOM      6  C   LIG    1       -1.008   3.057   1.141  0.00  0.00    +0.500 C 
ATOM      7  O   LIG    1       -1.276   3.675   2.150  0.00  0.00    -0.530 OA
ENDROOT
BRANCH   1   8
ATOM      8  N   LIG    1        0.094   1.335   2.438  0.00  0.00    -0.700 N 
ATOM      9  H   LIG    1        1.057   1.262   2.345  0.00  0.00    +0.410 HD
BRANCH   8  13
ATOM     10  C   LIG    1       -3.903   1.268   5.310  0.00  0.00    +0.140 C 
ATOM     11  C   LIG    1       -2.414   1.166   5.098  0.00  0.00    +0.200 A 
ATOM     12  C   LIG    1       -1.877   1.310   3.834  0.00  0.00    -0.150 A 
ATOM     13  C   LIG    1       -0.492   1.202   3.686  0.00  0.00    +0.450 A 
ATOM     14  N   LIG    1        0.254   0.975   4.763  0.00  0.00    -0.580 NA
ATOM     15  C   LIG    1       -0.301   0.849   5.951  0.00  0.00    +0.360 A 
ATOM     16  C   LIG    1        0.579   0.592   7.147  0.00  0.00    +0.180 C 
ATOM     17  N   LIG    1       -1.604   0.941   6.123  0.00  0.00    -0.560 NA
ENDBRANCH   8  13
ENDBRANCH   1   8
BRANCH   5  18
ATOM     18  C   LIG    1       -1.300   5.150   0.004  0.00  0.00    +0.340 C 
BRANCH  18  19
ATOM     19  C   LIG    1       -2.780   5.325  -0.218  0.00  0.00    -0.110 A 
ATOM     20  C   LIG    1       -3.643   5.347   0.861  0.00  0.00    +0.080 A 
ATOM     21  C   LIG    1       -5.001   5.508   0.658  0.00  0.00    +0.020 A 
ATOM     22  C   LIG    1       -5.496   5.646  -0.626  0.00  0.00    +0.070 A 
ATOM     23  C   LIG    1       -4.632   5.624  -1.705  0.00  0.00    -0.190 A 
ATOM     24  C   LIG    1       -3.274   5.468  -1.501  0.00  0.00    +0.070 A 
BRANCH  23  25
ATOM     25  C   LIG    1       -5.172   5.775  -3.104  0.00  0.00    +0.510 C 
ATOM     26  F   LIG    1       -4.850   4.638  -3.853  0.00  0.00    -0.180 F 
ATOM     27  F   LIG    1       -4.604   6.904  -3.704  0.00  0.00    -0.180 F 
ATOM     28  F   LIG    1       -6.562   5.922  -3.055  0.00  0.00    -0.180 F 
ENDBRANCH  23  25
ENDBRANCH  18  19
ENDBRANCH   5  18
TORSDOF 5
