REMARK  Name = ZINCrD000000Ad8F.0
REMARK                            x       y       z     vdW  Elec       q    Type
REMARK                         _______ _______ _______ _____ _____    ______ ____
ROOT
ATOM      1  O   LIG    1       -2.180   8.259   0.063  0.00  0.00    -0.530 OA
ATOM      2  C   LIG    1       -1.037   8.665   0.054  0.00  0.00    +0.520 C 
ATOM      3  N   LIG    1       -0.012   7.791   0.040  0.00  0.00    -0.520 N 
ATOM      4  H   LIG    1        0.902   8.116   0.033  0.00  0.00    +0.430 HD
ENDROOT
BRANCH   3   5
ATOM      5  N   LIG    1       -0.266   6.413   0.036  0.00  0.00    -0.520 N 
ATOM      6  H   LIG    1       -1.179   6.088   0.043  0.00  0.00    +0.430 HD
ATOM      7  C   LIG    1        0.760   5.539   0.022  0.00  0.00    +0.570 C 
ATOM      8  O   LIG    1        1.906   5.946   0.013  0.00  0.00    -0.530 OA
BRANCH   7   9
ATOM      9  C   LIG    1        0.493   4.087   0.018  0.00  0.00    -0.120 A 
ATOM     10  C   LIG    1       -0.823   3.618   0.028  0.00  0.00    +0.070 A 
ATOM     11  C   LIG    1       -1.071   2.262   0.019  0.00  0.00    +0.040 A 
ATOM     12  C   LIG    1       -0.016   1.359   0.009  0.00  0.00    +0.070 A 
ATOM     13  O   LIG    1        0.002  -0.004   0.002  0.00  0.00    -0.300 OA
ATOM     14  C   LIG    1        1.335  -0.374   0.401  0.00  0.00    +0.440 C 
ATOM     15  O   LIG    1        2.140   0.746  -0.014  0.00  0.00    -0.300 OA
ATOM     16  C   LIG    1        1.300   1.822  -0.001  0.00  0.00    +0.030 A 
ATOM     17  C   LIG    1        1.555   3.179   0.004  0.00  0.00    +0.110 A 
ENDBRANCH   7   9
ENDBRANCH   3   5
BRANCH   2  18
ATOM     18  C   LIG    1       -0.764  10.147   0.058  0.00  0.00    +0.090 C 
BRANCH  18  19
ATOM     19  C   LIG    1       -2.090  10.910   0.074  0.00  0.00    +0.080 C 
BRANCH  19  20
ATOM     20  C   LIG    1       -1.813  12.415   0.079  0.00  0.00    +0.200 C 
BRANCH  20  21
ATOM     21  O   LIG    1       -3.051  13.127   0.094  0.00  0.00    -0.300 OA
BRANCH  21  22
ATOM     22  C   LIG    1       -2.982  14.485   0.099  0.00  0.00    +0.150 A 
ATOM     23  C   LIG    1       -1.748  15.118   0.096  0.00  0.00    -0.040 A 
ATOM     24  C   LIG    1       -1.680  16.498   0.097  0.00  0.00    +0.080 A 
ATOM     25  C   LIG    1       -2.841  17.249   0.112  0.00  0.00    -0.060 A 
ATOM     26  C   LIG    1       -4.074  16.621   0.120  0.00  0.00    +0.090 A 
ATOM     27 CL   LIG    1       -2.752  18.983   0.119  0.00  0.00    -0.060 Cl
ATOM     28  C   LIG    1       -4.147  15.241   0.114  0.00  0.00    -0.060 A 
ATOM     29 CL   LIG    1       -5.694  14.452   0.125  0.00  0.00    -0.040 Cl
ENDBRANCH  21  22
ENDBRANCH  20  21
ENDBRANCH  19  20
ENDBRANCH  18  19
ENDBRANCH   2  18
TORSDOF 7
