REMARK  Name = ZINCqH00000073Wn.0
REMARK                            x       y       z     vdW  Elec       q    Type
REMARK                         _______ _______ _______ _____ _____    ______ ____
ROOT
ATOM      1  C   LIG    1        0.112  -0.177  -0.071  0.00  0.00    +0.260 C 
ENDROOT
BRANCH   1   3
ATOM      2  C   LIG    1       -1.687  -1.280  -1.289  0.00  0.00    +0.570 C 
ATOM      3  N   LIG    1       -0.998  -1.130  -0.140  0.00  0.00    -0.710 N 
ATOM      4  H   LIG    1       -1.237  -1.654   0.640  0.00  0.00    +0.410 HD
ATOM      5  O   LIG    1       -1.387  -0.624  -2.268  0.00  0.00    -0.530 OA
BRANCH   2   9
ATOM      6  C   LIG    1       -4.905  -4.045  -1.490  0.00  0.00    +0.160 A 
ATOM      7  C   LIG    1       -4.564  -3.296  -2.610  0.00  0.00    -0.020 A 
ATOM      8  C   LIG    1       -3.521  -2.398  -2.549  0.00  0.00    +0.130 A 
ATOM      9  C   LIG    1       -2.805  -2.241  -1.359  0.00  0.00    -0.180 A 
ATOM     10  C   LIG    1       -3.148  -3.001  -0.237  0.00  0.00    +0.090 A 
ATOM     11  C   LIG    1       -4.195  -3.892  -0.304  0.00  0.00    -0.080 A 
BRANCH   6  13
ATOM     12  C   LIG    1       -6.230  -5.665  -0.366  0.00  0.00    +0.240 C 
ATOM     13  O   LIG    1       -5.933  -4.928  -1.554  0.00  0.00    -0.310 OA
ENDBRANCH   6  13
ENDBRANCH   2   9
ENDBRANCH   1   3
BRANCH   1  14
ATOM     14  C   LIG    1        1.070  -0.599   1.012  0.00  0.00    +0.510 C 
ATOM     15  N   LIG    1        2.263   0.015   1.134  0.00  0.00    -0.670 N 
ATOM     16  H   LIG    1        2.534   0.682   0.483  0.00  0.00    +0.410 HD
ATOM     17  O   LIG    1        0.768  -1.492   1.775  0.00  0.00    -0.510 OA
BRANCH  15  18
ATOM     18  C   LIG    1        3.112  -0.308   2.198  0.00  0.00    +0.140 A 
ATOM     19  C   LIG    1        4.489  -0.290   2.021  0.00  0.00    -0.010 A 
ATOM     20  C   LIG    1        5.324  -0.610   3.074  0.00  0.00    +0.030 A 
ATOM     21  C   LIG    1        4.790  -0.948   4.303  0.00  0.00    -0.100 A 
ATOM     22  C   LIG    1        3.419  -0.968   4.483  0.00  0.00    -0.070 A 
ATOM     23  C   LIG    1        2.841  -1.336   5.825  0.00  0.00    +0.090 C 
ATOM     24  C   LIG    1        5.704  -1.296   5.450  0.00  0.00    +0.090 C 
ATOM     25  C   LIG    1        2.579  -0.643   3.436  0.00  0.00    +0.020 A 
ENDBRANCH  15  18
ENDBRANCH   1  14
BRANCH   1  26
ATOM     26  C   LIG    1       -0.433   1.218   0.245  0.00  0.00    -0.020 C 
ATOM     27  C   LIG    1       -1.502   1.593  -0.783  0.00  0.00    +0.030 C 
ATOM     28  C   LIG    1        0.708   2.236   0.189  0.00  0.00    +0.030 C 
ENDBRANCH   1  26
TORSDOF 6
