REMARK  Name = ZINCqH0000036QAv.0
REMARK                            x       y       z     vdW  Elec       q    Type
REMARK                         _______ _______ _______ _____ _____    ______ ____
ROOT
ATOM      1  C   LIG    1       -3.731   9.099  -3.591  0.00  0.00    +0.080 C 
ATOM      2  C   LIG    1       -2.435   8.876  -2.809  0.00  0.00    +0.030 C 
ATOM      3  C   LIG    1       -1.613   7.797  -3.499  0.00  0.00    +0.030 C 
ATOM      4  C   LIG    1       -0.196   7.641  -3.000  0.00  0.00    +0.300 C 
ATOM      5  N   LIG    1       -0.176   7.123  -1.623  0.00  0.00    -0.560 N 
ATOM      6  C   LIG    1       -0.189   8.042  -0.567  0.00  0.00    +0.140 A 
ATOM      7  C   LIG    1        0.968   8.254   0.175  0.00  0.00    +0.020 A 
ATOM      8  C   LIG    1        0.971   9.197   1.186  0.00  0.00    +0.050 A 
ATOM      9  C   LIG    1       -0.163   9.936   1.466  0.00  0.00    +0.030 A 
ATOM     10  C   LIG    1       -1.327   9.719   0.745  0.00  0.00    +0.080 A 
ATOM     11  C   LIG    1       -1.334   8.759  -0.248  0.00  0.00    -0.100 A 
ATOM     12  C   LIG    1       -0.140   5.797  -1.385  0.00  0.00    +0.520 C 
ATOM     13  O   LIG    1       -0.130   5.014  -2.312  0.00  0.00    -0.510 OA
ATOM     14  S   LIG    1       -2.836   8.368  -1.112  0.00  0.00    -0.150 S 
ENDROOT
BRANCH  12  15
ATOM     15  C   LIG    1       -0.114   5.287   0.033  0.00  0.00    +0.340 C 
BRANCH  15  16
ATOM     16  N   LIG    1       -0.077   3.822   0.024  0.00  0.00    -0.480 N 
ATOM     17  C   LIG    1       -1.240   3.122   0.032  0.00  0.00    +0.390 A 
ATOM     18  C   LIG    1       -1.232   1.768   0.018  0.00  0.00    -0.290 A 
ATOM     19  C   LIG    1       -0.013   1.076   0.008  0.00  0.00    +0.160 A 
ATOM     20  C   LIG    1        1.155   1.781   0.001  0.00  0.00    -0.060 A 
ATOM     21  C   LIG    1        1.110   3.186   0.009  0.00  0.00    +0.520 A 
ATOM     22  O   LIG    1        2.147   3.830   0.002  0.00  0.00    -0.530 OA
BRANCH  18  23
ATOM     23  C   LIG    1       -2.532   1.006   0.019  0.00  0.00    +0.530 C 
ATOM     24  F   LIG    1       -3.536   1.798   0.586  0.00  0.00    -0.180 F 
ATOM     25  F   LIG    1       -2.384  -0.167   0.768  0.00  0.00    -0.170 F 
ATOM     26  F   LIG    1       -2.882   0.678  -1.295  0.00  0.00    -0.170 F 
ENDBRANCH  18  23
ENDBRANCH  15  16
ENDBRANCH  12  15
TORSDOF 3
