REMARK  Name = ZINCpe00000MJM2A.0
REMARK                            x       y       z     vdW  Elec       q    Type
REMARK                         _______ _______ _______ _____ _____    ______ ____
ROOT
ATOM      1  C   LIG    1        5.815   4.427  -2.183  0.00  0.00    +0.580 C 
ATOM      2  N   LIG    1        5.460   3.480  -1.293  0.00  0.00    -0.610 N 
ATOM      3  C   LIG    1        6.120   3.224  -0.004  0.00  0.00    +0.250 C 
ATOM      4  C   LIG    1        5.356   2.072   0.681  0.00  0.00    +0.190 C 
ATOM      5  C   LIG    1        3.964   2.122  -0.004  0.00  0.00    +0.190 C 
ATOM      6  C   LIG    1        4.343   2.530  -1.449  0.00  0.00    +0.270 C 
ATOM      7  O   LIG    1        5.252   4.493  -3.258  0.00  0.00    -0.510 OA
ENDROOT
BRANCH   1  10
ATOM      8  C   LIG    1        8.188   7.347  -2.338  0.00  0.00    +0.330 A 
ATOM      9  C   LIG    1        7.170   6.471  -2.689  0.00  0.00    +0.020 A 
ATOM     10  C   LIG    1        6.893   5.389  -1.851  0.00  0.00    -0.050 A 
ATOM     11  C   LIG    1        7.655   5.239  -0.688  0.00  0.00    -0.050 A 
ATOM     12  C   LIG    1        8.653   6.154  -0.417  0.00  0.00    +0.310 A 
ATOM     13  N   LIG    1        8.887   7.164  -1.231  0.00  0.00    -0.520 NA
BRANCH   8  14
ATOM     14  O   LIG    1        8.470   8.404  -3.142  0.00  0.00    -0.300 OA
BRANCH  14  16
ATOM     15  C   LIG    1       10.853   8.771  -3.311  0.00  0.00    +0.020 C 
ATOM     16  C   LIG    1        9.529   9.270  -2.728  0.00  0.00    +0.170 C 
ATOM     17  C   LIG    1        9.253  10.688  -3.231  0.00  0.00    +0.060 C 
ENDBRANCH  14  16
ENDBRANCH   8  14
ENDBRANCH   1  10
BRANCH   4  18
ATOM     18  O   LIG    1        5.237   2.305   2.086  0.00  0.00    -0.550 OA
ATOM     19  H   LIG    1        6.079   2.284   2.561  0.00  0.00    +0.390 HD
ENDBRANCH   4  18
BRANCH   5  20
ATOM     20  O   LIG    1        3.336   0.839   0.019  0.00  0.00    -0.280 OA
BRANCH  20  21
ATOM     21  C   LIG    1        1.974   0.817  -0.009  0.00  0.00    -0.030 A 
ATOM     22  C   LIG    1        1.194  -0.292   0.005  0.00  0.00    +0.210 A 
ATOM     23  N   LIG    1       -0.101   0.117  -0.034  0.00  0.00    -0.370 N 
ATOM     24  N   LIG    1       -0.108   1.517  -0.073  0.00  0.00    -0.270 NA
ATOM     25  C   LIG    1       -1.281  -0.752  -0.034  0.00  0.00    +0.370 C 
ATOM     26  C   LIG    1        1.132   1.935  -0.058  0.00  0.00    +0.180 A 
ENDBRANCH  20  21
ENDBRANCH   5  20
TORSDOF 6
