REMARK  Name = ZINCrH000004qrmg.0
REMARK                            x       y       z     vdW  Elec       q    Type
REMARK                         _______ _______ _______ _____ _____    ______ ____
ROOT
ATOM      1  C   LIG    1       -0.162  -3.047  -0.247  0.00  0.00    +0.160 C 
ATOM      2  C   LIG    1       -1.303  -2.073  -0.099  0.00  0.00    +0.020 A 
ATOM      3  C   LIG    1       -2.620  -2.351  -0.237  0.00  0.00    +0.010 A 
ATOM      4  C   LIG    1       -3.292  -1.126  -0.012  0.00  0.00    -0.000 A 
ATOM      5  N   LIG    1       -2.370  -0.219   0.245  0.00  0.00    -0.250 NA
ATOM      6  N   LIG    1       -1.202  -0.752   0.202  0.00  0.00    -0.230 N 
ENDROOT
BRANCH   6   7
ATOM      7  C   LIG    1        0.002  -0.069   0.428  0.00  0.00    +0.080 A 
ATOM      8  C   LIG    1        0.953  -0.603   1.285  0.00  0.00    +0.110 A 
ATOM      9  C   LIG    1        2.139   0.071   1.506  0.00  0.00    +0.010 A 
ATOM     10  C   LIG    1        2.380   1.278   0.873  0.00  0.00    +0.150 A 
ATOM     11  C   LIG    1        1.432   1.814   0.016  0.00  0.00    -0.020 A 
ATOM     12  F   LIG    1        3.541   1.934   1.090  0.00  0.00    -0.120 F 
ATOM     13  C   LIG    1        0.244   1.144  -0.208  0.00  0.00    +0.160 A 
ATOM     14  F   LIG    1       -0.680   1.666  -1.044  0.00  0.00    -0.110 F 
ENDBRANCH   6   7
BRANCH   4  15
ATOM     15  C   LIG    1       -4.751  -0.905  -0.056  0.00  0.00    +0.620 C 
ATOM     16  N   LIG    1       -5.254   0.323   0.181  0.00  0.00    -0.640 N 
ATOM     17  H   LIG    1       -4.658   1.062   0.380  0.00  0.00    +0.420 HD
ATOM     18  O   LIG    1       -5.499  -1.831  -0.305  0.00  0.00    -0.490 OA
BRANCH  16  19
ATOM     19  C   LIG    1       -6.632   0.532   0.139  0.00  0.00    +0.300 A 
ATOM     20  C   LIG    1       -7.581  -0.406  -0.131  0.00  0.00    -0.100 A 
ATOM     21  C   LIG    1       -8.830   0.217  -0.069  0.00  0.00    +0.100 A 
ATOM     22  N   LIG    1       -8.648   1.480   0.219  0.00  0.00    -0.280 NA
ATOM     23  N   LIG    1       -7.273   1.709   0.356  0.00  0.00    -0.390 N 
ATOM     24  C   LIG    1       -6.639   2.990   0.677  0.00  0.00    +0.360 C 
BRANCH  21  25
ATOM     25  C   LIG    1      -10.160  -0.451  -0.300  0.00  0.00    +0.070 C 
ATOM     26  C   LIG    1      -10.090  -1.988  -0.279  0.00  0.00    +0.030 C 
ATOM     27  C   LIG    1      -11.080  -1.969  -1.458  0.00  0.00    +0.010 C 
ATOM     28  C   LIG    1      -10.543  -0.565  -1.785  0.00  0.00    +0.020 C 
ENDBRANCH  21  25
ENDBRANCH  16  19
ENDBRANCH   4  15
TORSDOF 4
