REMARK  Name = ZINCpe00000MRahw.0
REMARK                            x       y       z     vdW  Elec       q    Type
REMARK                         _______ _______ _______ _____ _____    ______ ____
ROOT
ATOM      1  C   LIG    1        4.678  -4.343  -3.662  0.00  0.00    +0.010 A 
ATOM      2  N   LIG    1        5.422  -3.307  -4.012  0.00  0.00    -0.220 NA
ATOM      3  N   LIG    1        5.224  -2.324  -3.201  0.00  0.00    -0.360 N 
ATOM      4  H   LIG    1        5.658  -1.459  -3.260  0.00  0.00    +0.450 HD
ATOM      5  C   LIG    1        4.329  -2.675  -2.264  0.00  0.00    -0.010 A 
ATOM      6  C   LIG    1        3.793  -1.865  -1.115  0.00  0.00    +0.390 C 
ATOM      7  N   LIG    1        2.648  -2.604  -0.551  0.00  0.00    -0.610 N 
ATOM      8  C   LIG    1        1.506  -1.964  -0.230  0.00  0.00    +0.530 C 
ATOM      9  O   LIG    1        0.571  -2.586   0.228  0.00  0.00    -0.520 OA
ATOM     10  C   LIG    1        2.779  -4.055  -0.353  0.00  0.00    +0.300 C 
ATOM     11  C   LIG    1        2.955  -4.737  -1.716  0.00  0.00    +0.130 C 
ATOM     12  C   LIG    1        3.953  -3.952  -2.522  0.00  0.00    -0.120 A 
ENDROOT
BRANCH   8  13
ATOM     13  C   LIG    1        1.391  -0.477  -0.441  0.00  0.00    -0.010 C 
ATOM     14  C   LIG    1        2.462   0.240   0.386  0.00  0.00    +0.040 C 
ATOM     15  C   LIG    1        2.499   1.722  -0.009  0.00  0.00    +0.160 C 
ATOM     16  C   LIG    1        1.083   2.249   0.004  0.00  0.00    +0.200 A 
ATOM     17  N   LIG    1        0.704   3.493   0.012  0.00  0.00    -0.480 NA
ATOM     18  C   LIG    1       -0.638   3.546   0.025  0.00  0.00    +0.140 A 
ATOM     19  C   LIG    1       -1.106   2.281   0.019  0.00  0.00    -0.020 A 
ATOM     20  C   LIG    1       -2.553   1.857   0.024  0.00  0.00    +0.130 C 
ATOM     21  N   LIG    1       -0.018   1.460   0.010  0.00  0.00    -0.450 N 
ATOM     22  C   LIG    1        0.002  -0.004   0.002  0.00  0.00    +0.320 C 
ENDBRANCH   8  13
BRANCH   1  23
ATOM     23  C   LIG    1        4.622  -5.654  -4.336  0.00  0.00    +0.550 C 
ATOM     24  O   LIG    1        3.891  -6.526  -3.909  0.00  0.00    -0.490 OA
BRANCH  23  26
ATOM     25  C   LIG    1        5.273  -7.197  -6.037  0.00  0.00    +0.290 C 
ATOM     26  O   LIG    1        5.380  -5.885  -5.426  0.00  0.00    -0.340 OA
ENDBRANCH  23  26
ENDBRANCH   1  23
TORSDOF 3
