REMARK  Name = ZINCkj00000AmMEF.0
REMARK                            x       y       z     vdW  Elec       q    Type
REMARK                         _______ _______ _______ _____ _____    ______ ____
ROOT
ATOM      1  C   LIG    1        0.941   5.165   2.922  0.00  0.00    +0.040 A 
ATOM      2  C   LIG    1        0.710   3.997   2.254  0.00  0.00    +0.180 A 
ATOM      3  N   LIG    1       -0.430   4.186   1.554  0.00  0.00    -0.310 N 
ATOM      4  N   LIG    1       -0.862   5.375   1.788  0.00  0.00    -0.090 NA
ATOM      5  N   LIG    1       -0.073   5.989   2.598  0.00  0.00    -0.230 NA
ENDROOT
BRANCH   3   6
ATOM      6  C   LIG    1       -1.071   3.200   0.680  0.00  0.00    +0.280 C 
ATOM      7  C   LIG    1       -0.776   1.751   1.194  0.00  0.00    +0.080 C 
ATOM      8  C   LIG    1       -0.013   1.086   0.008  0.00  0.00    +0.050 C 
ATOM      9  C   LIG    1        1.380   1.786  -0.002  0.00  0.00    +0.060 C 
ATOM     10  C   LIG    1        1.093   3.221  -0.502  0.00  0.00    +0.060 C 
ATOM     11  C   LIG    1       -0.694   1.777  -1.226  0.00  0.00    +0.100 C 
ATOM     12  C   LIG    1       -0.447   3.251  -0.748  0.00  0.00    -0.000 C 
BRANCH  12  13
ATOM     13  N   LIG    1       -0.936   4.324  -1.624  0.00  0.00    -0.610 N 
ATOM     14  H   LIG    1       -0.721   5.220  -1.211  0.00  0.00    +0.440 HD
ATOM     15  H   LIG    1       -1.935   4.237  -1.736  0.00  0.00    +0.440 HD
ATOM     16  H   LIG    1       -0.488   4.253  -2.525  0.00  0.00    +0.440 HD
ENDBRANCH  12  13
ENDBRANCH   3   6
BRANCH   1  19
ATOM     17  C   LIG    1        3.213   6.906   5.371  0.00  0.00    +0.410 A 
ATOM     18  C   LIG    1        2.134   6.669   4.530  0.00  0.00    -0.070 A 
ATOM     19  C   LIG    1        2.076   5.465   3.829  0.00  0.00    +0.060 A 
ATOM     20  C   LIG    1        3.121   4.548   3.997  0.00  0.00    -0.090 A 
ATOM     21  C   LIG    1        4.159   4.862   4.848  0.00  0.00    +0.320 A 
ATOM     22  N   LIG    1        4.180   6.009   5.500  0.00  0.00    -0.540 NA
BRANCH  17  23
ATOM     23  N   LIG    1        3.283   8.100   6.080  0.00  0.00    -0.850 N 
ATOM     24  H   LIG    1        2.578   8.760   5.990  0.00  0.00    +0.410 HD
ATOM     25  H   LIG    1        4.037   8.273   6.666  0.00  0.00    +0.410 HD
ENDBRANCH  17  23
ENDBRANCH   1  19
TORSDOF 4
