REMARK  Name = ZINC9p0000002o0T.0
REMARK                            x       y       z     vdW  Elec       q    Type
REMARK                         _______ _______ _______ _____ _____    ______ ____
ROOT
ATOM      1  C   LIG    1       -0.750   3.109   1.275  0.00  0.00    +0.170 C 
ATOM      2  C   LIG    1       -1.536   3.600   2.465  0.00  0.00    +0.040 C 
ATOM      3  C   LIG    1       -2.327   4.878   2.128  0.00  0.00    +0.030 C 
ATOM      4  C   LIG    1       -1.504   5.848   1.258  0.00  0.00    +0.020 C 
ATOM      5  C   LIG    1       -0.066   5.940   1.702  0.00  0.00    +0.060 C 
ATOM      6  C   LIG    1        0.774   4.925   0.899  0.00  0.00    +0.230 C 
ATOM      7  N   LIG    1        0.629   3.625   1.386  0.00  0.00    -0.490 N 
ATOM      8  H   LIG    1        1.245   3.015   0.869  0.00  0.00    +0.420 HD
ATOM      9  H   LIG    1        0.903   3.610   2.357  0.00  0.00    +0.420 HD
ENDROOT
BRANCH   1  11
ATOM     10  C   LIG    1       -0.013   1.086   0.008  0.00  0.00    +0.040 C 
ATOM     11  C   LIG    1       -0.729   1.579   1.267  0.00  0.00    +0.050 C 
ENDBRANCH   1  11
TORSDOF 1
