REMARK  Name = ZINCwl0000000bKC.1
REMARK                            x       y       z     vdW  Elec       q    Type
REMARK                         _______ _______ _______ _____ _____    ______ ____
ROOT
ATOM      1  C   LIG    1       -3.845   6.431   3.583  0.00  0.00    -0.090 A 
ATOM      2  C   LIG    1       -2.935   7.431   3.235  0.00  0.00    +0.080 A 
ATOM      3  C   LIG    1       -2.254   7.353   2.038  0.00  0.00    +0.130 A 
ATOM      4  C   LIG    1       -2.470   6.287   1.184  0.00  0.00    -0.650 A 
ATOM      5  C   LIG    1       -3.375   5.295   1.520  0.00  0.00    +0.120 A 
ATOM      6  C   LIG    1       -4.059   5.359   2.716  0.00  0.00    +0.040 A 
ENDROOT
BRANCH   1   9
ATOM      7  N   LIG    1       -5.457   5.542   5.197  0.00  0.00    -0.720 N 
ATOM      8  H   LIG    1       -5.608   4.795   4.596  0.00  0.00    +0.410 HD
ATOM      9  C   LIG    1       -4.580   6.509   4.864  0.00  0.00    +0.570 C 
ATOM     10  O   LIG    1       -4.391   7.444   5.617  0.00  0.00    -0.520 OA
BRANCH   7  14
ATOM     11  N   LIG    1       -7.356   4.233   8.725  0.00  0.00    -0.370 N 
ATOM     12  C   LIG    1       -8.212   4.851   7.705  0.00  0.00    +0.270 C 
ATOM     13  C   LIG    1       -7.495   4.833   6.353  0.00  0.00    +0.070 C 
ATOM     14  C   LIG    1       -6.185   5.618   6.466  0.00  0.00    +0.250 C 
ATOM     15  C   LIG    1       -5.332   5.011   7.583  0.00  0.00    +0.050 C 
ATOM     16  C   LIG    1       -6.129   5.022   8.889  0.00  0.00    +0.280 C 
ATOM     17  H   LIG    1       -7.116   3.296   8.439  0.00  0.00    +0.430 HD
BRANCH  11  18
ATOM     18  C   LIG    1       -8.078   4.182  10.003  0.00  0.00    +0.290 C 
BRANCH  18  22
ATOM     19  N   LIG    1      -10.132   3.129  10.893  0.00  0.00    -0.820 N 
ATOM     20  H   LIG    1      -10.886   2.524  10.815  0.00  0.00    +0.420 HD
ATOM     21  H   LIG    1      -10.012   3.653  11.701  0.00  0.00    +0.410 HD
ATOM     22  C   LIG    1       -9.249   3.242   9.881  0.00  0.00    +0.510 C 
ATOM     23  O   LIG    1       -9.399   2.587   8.871  0.00  0.00    -0.530 OA
ENDBRANCH  18  22
ENDBRANCH  11  18
ENDBRANCH   7  14
ENDBRANCH   1   9
BRANCH   4  24
ATOM     24  S   LIG    1       -1.596   6.195  -0.343  0.00  0.00    +2.680 S 
ATOM     25  O   LIG    1       -2.377   5.379  -1.205  0.00  0.00    -0.930 OA
ATOM     26  O   LIG    1       -1.214   7.525  -0.668  0.00  0.00    -0.930 OA
BRANCH  24  27
ATOM     27  N   LIG    1       -0.193   5.363  -0.056  0.00  0.00    -0.930 N 
ATOM     28  C   LIG    1        1.054   6.081   0.237  0.00  0.00    +0.290 C 
ATOM     29  C   LIG    1        2.174   5.432  -0.587  0.00  0.00    +0.040 C 
ATOM     30  C   LIG    1        2.347   3.984  -0.131  0.00  0.00    +0.080 C 
ATOM     31  C   LIG    1        1.021   3.269  -0.133  0.00  0.00    -0.110 A 
ATOM     32  C   LIG    1        1.007   1.885  -0.175  0.00  0.00    +0.040 A 
ATOM     33  C   LIG    1       -0.193   1.200  -0.170  0.00  0.00    -0.010 A 
ATOM     34  C   LIG    1       -1.389   1.893  -0.128  0.00  0.00    +0.040 A 
ATOM     35  C   LIG    1       -1.383   3.273  -0.082  0.00  0.00    -0.040 A 
ATOM     36  C   LIG    1       -0.177   3.964  -0.089  0.00  0.00    +0.170 A 
ENDBRANCH  24  27
ENDBRANCH   4  24
TORSDOF 6
