REMARK  Name = ZINCpk00000eaERh.0
REMARK                            x       y       z     vdW  Elec       q    Type
REMARK                         _______ _______ _______ _____ _____    ______ ____
ROOT
ATOM      1  N   LIG    1        2.196   3.263  -6.371  0.00  0.00    -0.530 NA
ATOM      2  C   LIG    1        2.557   1.994  -5.725  0.00  0.00    +0.170 C 
ATOM      3  C   LIG    1        1.374   1.024  -5.816  0.00  0.00    +0.300 C 
ATOM      4  N   LIG    1        0.183   1.687  -5.263  0.00  0.00    -0.610 N 
ATOM      5  C   LIG    1       -0.168   3.022  -5.769  0.00  0.00    +0.290 C 
ATOM      6  C   LIG    1       -0.570   1.084  -4.322  0.00  0.00    +0.500 C 
ATOM      7  O   LIG    1       -0.268  -0.020  -3.919  0.00  0.00    -0.510 OA
ATOM      8  C   LIG    1        1.079   3.916  -5.676  0.00  0.00    +0.170 C 
ENDROOT
BRANCH   1   9
ATOM      9  C   LIG    1        3.357   4.159  -6.458  0.00  0.00    +0.140 C 
BRANCH   9  11
ATOM     10  C   LIG    1        4.106   6.482  -6.993  0.00  0.00    +0.010 C 
ATOM     11  C   LIG    1        2.897   5.549  -6.902  0.00  0.00    +0.200 C 
BRANCH  11  12
ATOM     12  O   LIG    1        2.269   5.457  -8.182  0.00  0.00    -0.550 OA
ATOM     13  H   LIG    1        2.845   5.111  -8.878  0.00  0.00    +0.380 HD
ENDBRANCH  11  12
ENDBRANCH   9  11
ENDBRANCH   1   9
BRANCH   6  14
ATOM     14  C   LIG    1       -1.786   1.781  -3.769  0.00  0.00    +0.330 C 
BRANCH  14  15
ATOM     15  N   LIG    1       -2.428   0.924  -2.769  0.00  0.00    -0.470 N 
ATOM     16  C   LIG    1       -3.409  -0.017  -3.006  0.00  0.00    +0.060 A 
ATOM     17  C   LIG    1       -4.077  -0.453  -4.142  0.00  0.00    +0.010 A 
ATOM     18  C   LIG    1       -5.037  -1.437  -4.035  0.00  0.00    +0.030 A 
ATOM     19  C   LIG    1       -5.340  -1.992  -2.801  0.00  0.00    +0.000 A 
ATOM     20  C   LIG    1       -4.693  -1.576  -1.671  0.00  0.00    +0.070 A 
ATOM     21  C   LIG    1       -3.716  -0.581  -1.755  0.00  0.00    +0.050 A 
ATOM     22  N   LIG    1       -2.920   0.029  -0.841  0.00  0.00    -0.490 NA
ATOM     23  C   LIG    1       -2.164   0.907  -1.434  0.00  0.00    +0.330 A 
BRANCH  23  24
ATOM     24  C   LIG    1       -1.150   1.781  -0.743  0.00  0.00    +0.010 C 
ATOM     25  C   LIG    1       -0.013   1.086   0.008  0.00  0.00    +0.050 C 
ATOM     26  C   LIG    1       -1.136   1.773   0.788  0.00  0.00    +0.070 C 
ENDBRANCH  23  24
ENDBRANCH  14  15
ENDBRANCH   6  14
TORSDOF 6
