REMARK  Name = ZINCqH00000321Qz.0
REMARK                            x       y       z     vdW  Elec       q    Type
REMARK                         _______ _______ _______ _____ _____    ______ ____
ROOT
ATOM      1  N   LIG    1       -0.801   1.429  -1.186  0.00  0.00    -0.740 N 
ATOM      2  H   LIG    1       -1.517   2.073  -1.072  0.00  0.00    +0.400 HD
ATOM      3  C   LIG    1       -0.362   1.120  -2.422  0.00  0.00    +0.700 C 
ATOM      4  N   LIG    1       -0.920   1.705  -3.501  0.00  0.00    -0.690 N 
ATOM      5  H   LIG    1       -1.687   2.289  -3.394  0.00  0.00    +0.410 HD
ATOM      6  O   LIG    1        0.536   0.313  -2.565  0.00  0.00    -0.570 OA
ENDROOT
BRANCH   4   7
ATOM      7  C   LIG    1       -0.393   1.469  -4.776  0.00  0.00    +0.160 A 
ATOM      8  C   LIG    1        0.973   1.273  -4.936  0.00  0.00    +0.030 A 
ATOM      9  C   LIG    1        1.494   1.035  -6.191  0.00  0.00    +0.020 A 
ATOM     10  C   LIG    1        0.651   1.003  -7.300  0.00  0.00    -0.010 A 
ATOM     11  C   LIG    1       -0.718   1.206  -7.137  0.00  0.00    +0.030 A 
ATOM     12  C   LIG    1       -1.235   1.438  -5.880  0.00  0.00    -0.010 A 
BRANCH  10  13
ATOM     13  C   LIG    1        1.211   0.754  -8.652  0.00  0.00    -0.200 A 
ATOM     14  C   LIG    1        2.524   0.545  -8.955  0.00  0.00    +0.250 A 
ATOM     15  N   LIG    1        2.611   0.356 -10.288  0.00  0.00    -0.470 N 
ATOM     16  H   LIG    1        3.425   0.184 -10.787  0.00  0.00    +0.440 HD
ATOM     17  N   LIG    1        1.323   0.458 -10.828  0.00  0.00    -0.290 NA
ATOM     18  C   LIG    1        0.482   0.695  -9.856  0.00  0.00    +0.260 A 
ENDBRANCH  10  13
ENDBRANCH   4   7
BRANCH   1  19
ATOM     19  C   LIG    1       -0.194   0.793  -0.014  0.00  0.00    +0.290 C 
BRANCH  19  20
ATOM     20  C   LIG    1       -0.870   1.315   1.256  0.00  0.00    +0.130 C 
BRANCH  20  23
ATOM     21  C   LIG    1        0.741   0.298   4.373  0.00  0.00    -0.010 A 
ATOM     22  C   LIG    1        0.329   1.313   3.577  0.00  0.00    -0.060 A 
ATOM     23  C   LIG    1       -0.246   0.661   2.462  0.00  0.00    +0.020 A 
ATOM     24  N   LIG    1       -0.135  -0.616   2.686  0.00  0.00    -0.360 NA
ATOM     25  O   LIG    1        0.416  -0.837   3.740  0.00  0.00    +0.110 OA
BRANCH  21  27
ATOM     26  C   LIG    1        0.526   1.180   6.681  0.00  0.00    +0.050 C 
ATOM     27  C   LIG    1        1.430   0.421   5.708  0.00  0.00    +0.010 C 
ATOM     28  C   LIG    1        2.746   1.183   5.534  0.00  0.00    +0.050 C 
ATOM     29  C   LIG    1        1.719  -0.975   6.263  0.00  0.00    +0.040 C 
ENDBRANCH  21  27
ENDBRANCH  20  23
ENDBRANCH  19  20
ENDBRANCH   1  19
TORSDOF 6
