REMARK  Name = ZINCpe00000VVGhq.0
REMARK                            x       y       z     vdW  Elec       q    Type
REMARK                         _______ _______ _______ _____ _____    ______ ____
ROOT
ATOM      1  C   LIG    1        4.109   5.167   0.012  0.00  0.00    +0.460 C 
ATOM      2  O   LIG    1        5.273   4.819  -0.017  0.00  0.00    -0.500 OA
ENDROOT
BRANCH   1   3
ATOM      3  C   LIG    1        3.783   6.540   0.012  0.00  0.00    -0.450 A 
ATOM      4  C   LIG    1        4.783   7.523   0.101  0.00  0.00    +0.560 A 
ATOM      5  N   LIG    1        4.418   8.839   0.090  0.00  0.00    -0.540 N 
ATOM      6  C   LIG    1        3.129   9.205   0.009  0.00  0.00    +0.720 A 
ATOM      7  N   LIG    1        2.131   8.311  -0.073  0.00  0.00    -0.660 N 
ATOM      8  H   LIG    1        1.214   8.621  -0.130  0.00  0.00    +0.440 HD
ATOM      9  O   LIG    1        2.856  10.389   0.008  0.00  0.00    -0.530 OA
ATOM     10  C   LIG    1        5.453   9.872   0.177  0.00  0.00    +0.350 C 
ATOM     11  C   LIG    1        2.387   6.986  -0.076  0.00  0.00    +0.580 A 
ATOM     12  O   LIG    1        1.479   6.178  -0.151  0.00  0.00    -0.500 OA
BRANCH   4  13
ATOM     13  N   LIG    1        6.094   7.170   0.190  0.00  0.00    -0.790 N 
ATOM     14  H   LIG    1        6.771   7.850   0.332  0.00  0.00    +0.410 HD
ATOM     15  H   LIG    1        6.352   6.238   0.112  0.00  0.00    +0.440 HD
ENDBRANCH   4  13
ENDBRANCH   1   3
BRANCH   1  16
ATOM     16  C   LIG    1        3.015   4.132   0.050  0.00  0.00    +0.130 C 
BRANCH  16  17
ATOM     17  S   LIG    1        3.748   2.477   0.041  0.00  0.00    -0.010 S 
BRANCH  17  21
ATOM     18  C   LIG    1       -1.341   2.105   0.174  0.00  0.00    +0.140 C 
ATOM     19  C   LIG    1       -0.019   1.382   0.150  0.00  0.00    +0.180 A 
ATOM     20  N   LIG    1        1.099   2.080   0.116  0.00  0.00    -0.480 NA
ATOM     21  C   LIG    1        2.287   1.494   0.088  0.00  0.00    +0.160 A 
ATOM     22  C   LIG    1        2.387   0.091   0.095  0.00  0.00    -0.070 A 
ATOM     23  C   LIG    1        1.211  -0.668   0.132  0.00  0.00    +0.020 A 
ATOM     24  C   LIG    1        1.265  -2.174   0.142  0.00  0.00    +0.120 C 
ATOM     25  C   LIG    1       -0.001  -0.001   0.160  0.00  0.00    -0.150 A 
ATOM     26  C   LIG    1       -1.293  -0.777   0.200  0.00  0.00    +0.120 C 
BRANCH  22  27
ATOM     27  C   LIG    1        3.667  -0.548   0.065  0.00  0.00    +0.260 C 
ATOM     28  N   LIG    1        4.684  -1.056   0.041  0.00  0.00    -0.400 NA
ENDBRANCH  22  27
ENDBRANCH  17  21
ENDBRANCH  16  17
ENDBRANCH   1  16
TORSDOF 6
