REMARK  Name = ZINCrD0000075I2R.0
REMARK                            x       y       z     vdW  Elec       q    Type
REMARK                         _______ _______ _______ _____ _____    ______ ____
ROOT
ATOM      1  O   LIG    1        8.181   1.862   0.161  0.00  0.00    -0.510 OA
ATOM      2  C   LIG    1        7.103   1.301   0.162  0.00  0.00    +0.600 C 
ATOM      3  N   LIG    1        7.042  -0.043   0.254  0.00  0.00    -0.680 N 
ATOM      4  H   LIG    1        6.182  -0.490   0.255  0.00  0.00    +0.410 HD
ENDROOT
BRANCH   2   5
ATOM      5  C   LIG    1        5.858   2.092   0.062  0.00  0.00    +0.030 A 
ATOM      6  N   LIG    1        4.692   1.483   0.064  0.00  0.00    -0.180 NA
ATOM      7  N   LIG    1        3.584   2.125  -0.020  0.00  0.00    -0.290 N 
ATOM      8  C   LIG    1        3.547   3.467  -0.121  0.00  0.00    +0.480 A 
ATOM      9  C   LIG    1        4.754   4.198  -0.125  0.00  0.00    +0.000 A 
ATOM     10  O   LIG    1        2.477   4.047  -0.204  0.00  0.00    -0.500 OA
ATOM     11  C   LIG    1        5.924   3.502  -0.035  0.00  0.00    +0.140 A 
BRANCH   7  12
ATOM     12  C   LIG    1        2.381   1.410  -0.013  0.00  0.00    +0.100 A 
ATOM     13  C   LIG    1        2.219   0.314  -0.850  0.00  0.00    +0.080 A 
ATOM     14  C   LIG    1        1.031  -0.390  -0.842  0.00  0.00    +0.010 A 
ATOM     15  C   LIG    1        0.002  -0.004   0.000  0.00  0.00    +0.120 A 
ATOM     16  C   LIG    1        0.161   1.090   0.836  0.00  0.00    +0.010 A 
ATOM     17  F   LIG    1       -1.160  -0.693   0.007  0.00  0.00    -0.130 F 
ATOM     18  C   LIG    1        1.347   1.796   0.831  0.00  0.00    +0.090 A 
ENDBRANCH   7  12
ENDBRANCH   2   5
BRANCH   3  19
ATOM     19  C   LIG    1        8.276  -0.826   0.352  0.00  0.00    +0.240 C 
ATOM     20  C   LIG    1        8.375  -2.097  -0.494  0.00  0.00    +0.040 C 
ATOM     21  C   LIG    1        8.189  -2.200   1.021  0.00  0.00    +0.000 C 
BRANCH  21  22
ATOM     22  C   LIG    1        9.371  -2.652   1.839  0.00  0.00    -0.040 A 
ATOM     23  C   LIG    1       10.611  -2.789   1.244  0.00  0.00    +0.010 A 
ATOM     24  C   LIG    1       11.697  -3.199   1.995  0.00  0.00    +0.030 A 
ATOM     25  C   LIG    1       11.541  -3.482   3.338  0.00  0.00    +0.020 A 
ATOM     26  C   LIG    1       10.299  -3.350   3.933  0.00  0.00    -0.030 A 
ATOM     27 CL   LIG    1       10.103  -3.706   5.621  0.00  0.00    -0.070 Cl
ATOM     28  C   LIG    1        9.214  -2.935   3.183  0.00  0.00    +0.030 A 
ENDBRANCH  21  22
ENDBRANCH   3  19
TORSDOF 4
