REMARK  Name = ZINCyk00000003vZ.1
REMARK                            x       y       z     vdW  Elec       q    Type
REMARK                         _______ _______ _______ _____ _____    ______ ____
ROOT
ATOM      1  C   LIG    1       -0.503  -6.924  -0.097  0.00  0.00    +0.160 C 
ATOM      2  C   LIG    1        0.847  -6.256  -0.041  0.00  0.00    -0.100 A 
ATOM      3  C   LIG    1        1.980  -7.007   0.059  0.00  0.00    +0.170 A 
ATOM      4  C   LIG    1        3.228  -6.372   0.111  0.00  0.00    +0.040 A 
ATOM      5  C   LIG    1        3.305  -5.023   0.065  0.00  0.00    +0.300 A 
ATOM      6  N   LIG    1        2.177  -4.263  -0.029  0.00  0.00    -0.430 N 
ATOM      7  C   LIG    1        2.291  -2.916  -0.059  0.00  0.00    +0.560 A 
ATOM      8  C   LIG    1        1.108  -2.139  -0.145  0.00  0.00    -0.350 A 
ATOM      9  C   LIG    1       -0.135  -2.808  -0.238  0.00  0.00    +0.510 A 
ATOM     10  N   LIG    1       -1.293  -2.072  -0.370  0.00  0.00    -0.500 N 
ATOM     11  C   LIG    1       -1.283  -0.773   0.126  0.00  0.00    +0.590 C 
ATOM     12  C   LIG    1       -0.021  -0.014  -0.004  0.00  0.00    -0.300 C 
ATOM     13  N   LIG    1       -0.171  -4.131  -0.200  0.00  0.00    -0.550 NA
ATOM     14  C   LIG    1        1.161  -0.737  -0.126  0.00  0.00    +0.330 C 
ATOM     15  O   LIG    1        3.385  -2.382  -0.014  0.00  0.00    -0.470 OA
ATOM     16  C   LIG    1        0.946  -4.854  -0.090  0.00  0.00    +0.450 A 
ENDROOT
BRANCH  12  17
ATOM     17  C   LIG    1       -0.017   1.453  -0.008  0.00  0.00    +0.590 C 
ATOM     18  N   LIG    1        1.153   2.123  -0.007  0.00  0.00    -0.710 N 
ATOM     19  H   LIG    1        1.990   1.638  -0.077  0.00  0.00    +0.400 HD
ATOM     20  O   LIG    1       -1.069   2.065  -0.009  0.00  0.00    -0.550 OA
BRANCH  18  21
ATOM     21  C   LIG    1        1.159   3.584   0.101  0.00  0.00    +0.280 C 
BRANCH  21  22
ATOM     22  C   LIG    1        2.603   4.090   0.079  0.00  0.00    +0.070 C 
BRANCH  22  23
ATOM     23  C   LIG    1        2.610   5.593   0.189  0.00  0.00    -0.090 A 
ATOM     24  C   LIG    1        2.570   6.371  -0.953  0.00  0.00    +0.010 A 
ATOM     25  C   LIG    1        2.571   7.749  -0.851  0.00  0.00    +0.000 A 
ATOM     26  C   LIG    1        2.623   8.351   0.392  0.00  0.00    +0.000 A 
ATOM     27  C   LIG    1        2.669   7.573   1.534  0.00  0.00    +0.000 A 
ATOM     28  C   LIG    1        2.662   6.195   1.433  0.00  0.00    +0.010 A 
ENDBRANCH  22  23
ENDBRANCH  21  22
ENDBRANCH  18  21
ENDBRANCH  12  17
BRANCH  11  29
ATOM     29  N   LIG    1       -2.345  -0.246   0.681  0.00  0.00    -0.710 NA
ATOM     30  H   LIG    1       -3.140  -0.784   0.817  0.00  0.00    +0.430 HD
ATOM     31  H   LIG    1       -2.336   0.684   0.958  0.00  0.00    +0.460 HD
ENDBRANCH  11  29
BRANCH  10  32
ATOM     32  C   LIG    1       -2.486  -2.635  -1.008  0.00  0.00    +0.350 C 
BRANCH  32  33
ATOM     33  C   LIG    1       -2.446  -2.346  -2.509  0.00  0.00    +0.190 C 
BRANCH  33  34
ATOM     34  O   LIG    1       -1.342  -3.036  -3.098  0.00  0.00    -0.380 OA
BRANCH  34  35
ATOM     35  C   LIG    1       -1.213  -2.832  -4.506  0.00  0.00    +0.200 C 
BRANCH  35  36
ATOM     36  C   LIG    1       -0.004  -3.613  -5.027  0.00  0.00    +0.200 C 
BRANCH  36  37
ATOM     37  O   LIG    1       -0.238  -5.014  -4.867  0.00  0.00    -0.570 OA
ATOM     38  H   LIG    1        0.489  -5.571  -5.176  0.00  0.00    +0.380 HD
ENDBRANCH  36  37
ENDBRANCH  35  36
ENDBRANCH  34  35
ENDBRANCH  33  34
ENDBRANCH  32  33
ENDBRANCH  10  32
TORSDOF 11
