REMARK  Name = ZINCrD00000l6iw7.0
REMARK                            x       y       z     vdW  Elec       q    Type
REMARK                         _______ _______ _______ _____ _____    ______ ____
ROOT
ATOM      1  C   LIG    1        7.348  -1.122  -0.074  0.00  0.00    +0.450 C 
ENDROOT
BRANCH   1   2
ATOM      2  N   LIG    1        7.849  -1.118   1.303  0.00  0.00    -0.580 N 
ATOM      3  C   LIG    1        8.134  -2.223   2.002  0.00  0.00    +0.700 C 
ATOM      4  N   LIG    1        8.579  -1.945   3.243  0.00  0.00    -0.720 N 
ATOM      5  H   LIG    1        8.844  -2.584   3.922  0.00  0.00    +0.440 HD
ATOM      6  C   LIG    1        8.583  -0.481   3.364  0.00  0.00    +0.130 C 
ATOM      7  C   LIG    1        7.640  -0.035   4.477  0.00  0.00    +0.050 C 
ATOM      8  C   LIG    1        7.635   1.493   4.563  0.00  0.00    +0.020 C 
ATOM      9  C   LIG    1        9.053   1.992   4.844  0.00  0.00    +0.010 C 
ATOM     10  C   LIG    1        9.982   1.558   3.707  0.00  0.00    +0.030 C 
ATOM     11  C   LIG    1        9.997   0.030   3.618  0.00  0.00    +0.010 C 
ATOM     12  C   LIG    1       10.909  -0.403   2.468  0.00  0.00    +0.020 C 
ATOM     13  O   LIG    1        8.007  -3.350   1.567  0.00  0.00    -0.530 OA
ATOM     14  C   LIG    1        8.085  -0.000   2.021  0.00  0.00    +0.540 C 
ATOM     15  O   LIG    1        7.928   1.148   1.664  0.00  0.00    -0.450 OA
ENDBRANCH   1   2
BRANCH   1  19
ATOM     16  C   LIG    1        3.708  -0.679  -0.037  0.00  0.00    +0.060 A 
ATOM     17  N   LIG    1        3.892  -1.976  -0.047  0.00  0.00    -0.320 NA
ATOM     18  O   LIG    1        5.068  -2.256  -0.059  0.00  0.00    +0.120 OA
ATOM     19  C   LIG    1        5.841  -1.160  -0.060  0.00  0.00    -0.070 A 
ATOM     20  C   LIG    1        5.007  -0.096  -0.052  0.00  0.00    -0.010 A 
BRANCH  16  26
ATOM     21  C   LIG    1        1.211  -0.682  -0.014  0.00  0.00    +0.150 A 
ATOM     22  C   LIG    1        0.002  -0.004   0.002  0.00  0.00    -0.080 A 
ATOM     23  C   LIG    1       -0.017   1.378   0.010  0.00  0.00    +0.060 A 
ATOM     24  C   LIG    1        1.168   2.092   0.002  0.00  0.00    -0.030 A 
ATOM     25  C   LIG    1        2.379   1.430  -0.013  0.00  0.00    +0.070 A 
ATOM     26  C   LIG    1        2.410   0.038  -0.021  0.00  0.00    -0.060 A 
BRANCH  21  28
ATOM     27  C   LIG    1       -0.033  -2.707  -0.012  0.00  0.00    +0.240 C 
ATOM     28  O   LIG    1        1.231  -2.040  -0.021  0.00  0.00    -0.290 OA
ENDBRANCH  21  28
ENDBRANCH  16  26
ENDBRANCH   1  19
TORSDOF 4
