REMARK  Name = ZINCqH0000001A8f.0
REMARK                            x       y       z     vdW  Elec       q    Type
REMARK                         _______ _______ _______ _____ _____    ______ ____
ROOT
ATOM      1  N   LIG    1       -0.266  -2.475  -0.824  0.00  0.00    -0.720 N 
ATOM      2  H   LIG    1       -1.179  -2.164  -0.725  0.00  0.00    +0.400 HD
ATOM      3  C   LIG    1        0.756  -1.601  -0.732  0.00  0.00    +0.560 C 
ATOM      4  O   LIG    1        1.902  -1.990  -0.856  0.00  0.00    -0.520 OA
ENDROOT
BRANCH   3   5
ATOM      5  C   LIG    1        0.486  -0.172  -0.480  0.00  0.00    -0.120 A 
ATOM      6  C   LIG    1       -0.756   0.375  -0.803  0.00  0.00    +0.050 A 
ATOM      7  C   LIG    1       -1.004   1.711  -0.566  0.00  0.00    +0.010 A 
ATOM      8  C   LIG    1       -0.025   2.517  -0.007  0.00  0.00    +0.040 A 
ATOM      9  C   LIG    1        1.210   1.993   0.319  0.00  0.00    +0.020 A 
ATOM     10  C   LIG    1        1.479   0.647   0.087  0.00  0.00    +0.010 A 
BRANCH  10  11
ATOM     11  C   LIG    1        2.803   0.081   0.435  0.00  0.00    -0.140 A 
ATOM     12  C   LIG    1        2.913  -1.004   1.310  0.00  0.00    +0.350 A 
ATOM     13  N   LIG    1        4.114  -1.482   1.589  0.00  0.00    -0.520 NA
ATOM     14  C   LIG    1        5.197  -0.943   1.064  0.00  0.00    +0.490 A 
ATOM     15  N   LIG    1        5.138   0.085   0.239  0.00  0.00    -0.520 NA
ATOM     16  C   LIG    1        3.978   0.621  -0.098  0.00  0.00    +0.330 A 
ENDBRANCH  10  11
ENDBRANCH   3   5
BRANCH   1  17
ATOM     17  C   LIG    1        0.003  -3.893  -1.075  0.00  0.00    +0.270 C 
BRANCH  17  18
ATOM     18  C   LIG    1       -1.321  -4.640  -1.249  0.00  0.00    +0.040 C 
BRANCH  18  19
ATOM     19  C   LIG    1       -2.054  -4.090  -2.445  0.00  0.00    -0.130 A 
ATOM     20  C   LIG    1       -3.312  -3.527  -2.300  0.00  0.00    +0.050 A 
ATOM     21  C   LIG    1       -3.949  -3.033  -3.428  0.00  0.00    -0.030 A 
ATOM     22  C   LIG    1       -3.313  -3.117  -4.652  0.00  0.00    +0.250 A 
ATOM     23  N   LIG    1       -2.115  -3.660  -4.753  0.00  0.00    -0.480 NA
ATOM     24  C   LIG    1       -1.478  -4.134  -3.701  0.00  0.00    +0.260 A 
ENDBRANCH  18  19
BRANCH  18  26
ATOM     25  C   LIG    1       -0.387  -6.710  -0.208  0.00  0.00    +0.030 C 
ATOM     26  C   LIG    1       -1.042  -6.129  -1.463  0.00  0.00    +0.000 C 
ATOM     27  C   LIG    1       -2.358  -6.860  -1.736  0.00  0.00    +0.020 C 
ENDBRANCH  18  26
ENDBRANCH  17  18
ENDBRANCH   1  17
TORSDOF 6
