REMARK  Name = ZINCrH000004vEhm.0
REMARK                            x       y       z     vdW  Elec       q    Type
REMARK                         _______ _______ _______ _____ _____    ______ ____
ROOT
ATOM      1  O   LIG    1        5.614   1.259  -0.038  0.00  0.00    -0.500 OA
ATOM      2  C   LIG    1        5.782   2.460  -0.122  0.00  0.00    +0.610 C 
ATOM      3  N   LIG    1        4.729   3.296  -0.032  0.00  0.00    -0.500 N 
ENDROOT
BRANCH   3   4
ATOM      4  C   LIG    1        3.445   2.785   0.050  0.00  0.00    +0.330 A 
ATOM      5  N   LIG    1        2.374   3.497   0.138  0.00  0.00    -0.510 NA
ATOM      6  C   LIG    1        1.193   2.853   0.210  0.00  0.00    +0.110 A 
ATOM      7  C   LIG    1       -0.105   3.397   0.312  0.00  0.00    +0.060 A 
ATOM      8  C   LIG    1       -1.201   2.574   0.375  0.00  0.00    +0.030 A 
ATOM      9  C   LIG    1       -1.052   1.195   0.334  0.00  0.00    +0.020 A 
ATOM     10  C   LIG    1        0.206   0.641   0.241  0.00  0.00    +0.070 A 
ATOM     11  C   LIG    1        1.329   1.461   0.176  0.00  0.00    -0.220 A 
ATOM     12  S   LIG    1        3.043   1.073   0.048  0.00  0.00    +0.160 S 
ENDBRANCH   3   4
BRANCH   2  13
ATOM     13  C   LIG    1        7.139   3.002  -0.323  0.00  0.00    +0.020 A 
ATOM     14  C   LIG    1        8.271   2.269  -0.540  0.00  0.00    +0.190 A 
ATOM     15  N   LIG    1        9.300   3.151  -0.672  0.00  0.00    -0.360 N 
ATOM     16  C   LIG    1       10.637   2.978  -0.899  0.00  0.00    +0.230 A 
ATOM     17  C   LIG    1       11.462   4.041  -0.990  0.00  0.00    +0.030 A 
ATOM     18  C   LIG    1       10.957   5.346  -0.852  0.00  0.00    +0.050 A 
ATOM     19  C   LIG    1        9.631   5.535  -0.626  0.00  0.00    +0.070 A 
ATOM     20  C   LIG    1        8.778   4.413  -0.533  0.00  0.00    +0.230 A 
ATOM     21  N   LIG    1        7.476   4.305  -0.329  0.00  0.00    -0.440 NA
ENDBRANCH   2  13
BRANCH   3  22
ATOM     22  C   LIG    1        4.943   4.745  -0.022  0.00  0.00    +0.320 C 
BRANCH  22  23
ATOM     23  C   LIG    1        5.158   5.218   1.417  0.00  0.00    +0.160 C 
ATOM     24  C   LIG    1        5.264   6.758   1.452  0.00  0.00    +0.020 C 
ATOM     25  C   LIG    1        6.383   6.986   2.506  0.00  0.00    +0.000 C 
ATOM     26  C   LIG    1        7.290   5.757   2.245  0.00  0.00    +0.190 C 
ATOM     27  O   LIG    1        6.387   4.687   1.925  0.00  0.00    -0.360 OA
ENDBRANCH  22  23
ENDBRANCH   3  22
TORSDOF 4
