REMARK  Name = ZINCrH000004rnFw.0
REMARK                            x       y       z     vdW  Elec       q    Type
REMARK                         _______ _______ _______ _____ _____    ______ ____
ROOT
ATOM      1  N   LIG    1        1.055   2.059   0.002  0.00  0.00    -0.560 N 
ATOM      2  C   LIG    1        0.684   3.345   0.003  0.00  0.00    +0.710 C 
ATOM      3  N   LIG    1       -0.653   3.494   0.018  0.00  0.00    -0.710 N 
ATOM      4  H   LIG    1       -1.142   4.331   0.021  0.00  0.00    +0.440 HD
ATOM      5  C   LIG    1       -1.228   2.138   0.021  0.00  0.00    +0.170 C 
ATOM      6  C   LIG    1       -2.060   1.912   1.285  0.00  0.00    +0.110 C 
ATOM      7  O   LIG    1        1.468   4.274  -0.007  0.00  0.00    -0.530 OA
ATOM      8  C   LIG    1       -0.011   1.234   0.015  0.00  0.00    +0.540 C 
ATOM      9  O   LIG    1        0.002   0.022   0.017  0.00  0.00    -0.450 OA
ENDROOT
BRANCH   5  10
ATOM     10  C   LIG    1       -2.063   1.910  -1.213  0.00  0.00    -0.090 A 
ATOM     11  C   LIG    1       -2.079   0.667  -1.817  0.00  0.00    +0.060 A 
ATOM     12  C   LIG    1       -2.849   0.456  -2.945  0.00  0.00    +0.040 A 
ATOM     13  C   LIG    1       -3.595   1.493  -3.477  0.00  0.00    -0.020 A 
ATOM     14  C   LIG    1       -3.574   2.739  -2.876  0.00  0.00    +0.030 A 
ATOM     15 CL   LIG    1       -4.557   1.231  -4.898  0.00  0.00    -0.060 Cl
ATOM     16  C   LIG    1       -2.808   2.947  -1.744  0.00  0.00    +0.050 A 
ENDBRANCH   5  10
BRANCH   1  17
ATOM     17  C   LIG    1        2.448   1.604  -0.012  0.00  0.00    +0.370 C 
BRANCH  17  20
ATOM     18  N   LIG    1        4.167   1.033  -1.696  0.00  0.00    -0.670 N 
ATOM     19  H   LIG    1        4.794   0.901  -0.967  0.00  0.00    +0.420 HD
ATOM     20  C   LIG    1        2.910   1.445  -1.437  0.00  0.00    +0.500 C 
ATOM     21  O   LIG    1        2.151   1.687  -2.352  0.00  0.00    -0.500 OA
BRANCH  18  26
ATOM     22  C   LIG    1        5.791   0.068  -7.046  0.00  0.00    +0.090 C 
ATOM     23  C   LIG    1        5.360   0.324  -5.625  0.00  0.00    -0.080 A 
ATOM     24  C   LIG    1        4.471   1.345  -5.348  0.00  0.00    +0.030 A 
ATOM     25  C   LIG    1        4.068   1.578  -4.047  0.00  0.00    +0.050 A 
ATOM     26  C   LIG    1        4.568   0.794  -3.016  0.00  0.00    +0.150 A 
ATOM     27  C   LIG    1        5.463  -0.231  -3.297  0.00  0.00    -0.060 A 
ATOM     28 CL   LIG    1        6.085  -1.220  -2.013  0.00  0.00    -0.060 Cl
ATOM     29  C   LIG    1        5.856  -0.463  -4.602  0.00  0.00    +0.050 A 
ENDBRANCH  18  26
ENDBRANCH  17  20
ENDBRANCH   1  17
TORSDOF 4
