REMARK  Name = ZINCtj00000008nG.1
REMARK                            x       y       z     vdW  Elec       q    Type
REMARK                         _______ _______ _______ _____ _____    ______ ____
ROOT
ATOM      1  C   LIG    1       -0.080   1.659   0.451  0.00  0.00    +0.250 C 
ATOM      2  C   LIG    1        1.353   2.179   0.586  0.00  0.00    +0.080 C 
ENDROOT
BRANCH   1   3
ATOM      3  C   LIG    1       -0.868   2.035   1.679  0.00  0.00    +0.520 C 
ATOM      4  N   LIG    1       -0.476   1.596   2.892  0.00  0.00    -0.750 N 
ATOM      5  H   LIG    1        0.314   1.039   2.974  0.00  0.00    +0.400 HD
ATOM      6  O   LIG    1       -1.856   2.731   1.576  0.00  0.00    -0.500 OA
BRANCH   4   7
ATOM      7  C   LIG    1       -1.243   1.961   4.086  0.00  0.00    +0.330 C 
BRANCH   7   8
ATOM      8  C   LIG    1       -0.663   1.240   5.304  0.00  0.00    +0.300 C 
BRANCH   8   9
ATOM      9  C   LIG    1       -0.842  -0.248   5.139  0.00  0.00    -0.110 A 
ATOM     10  C   LIG    1       -1.802  -0.993   5.714  0.00  0.00    +0.030 A 
ATOM     11  C   LIG    1       -1.597  -2.325   5.287  0.00  0.00    -0.050 A 
ATOM     12  C   LIG    1       -0.518  -2.315   4.483  0.00  0.00    +0.230 A 
ATOM     13  O   LIG    1       -0.065  -1.054   4.397  0.00  0.00    -0.180 OA
ENDBRANCH   8   9
BRANCH   8  14
ATOM     14  N   LIG    1        0.767   1.551   5.423  0.00  0.00    -0.390 N 
ATOM     15  C   LIG    1        1.347   0.775   6.527  0.00  0.00    +0.330 C 
ATOM     16  C   LIG    1        0.936   2.986   5.691  0.00  0.00    +0.330 C 
ATOM     17  H   LIG    1        1.236   1.313   4.562  0.00  0.00    +0.420 HD
ENDBRANCH   8  14
ENDBRANCH   7   8
ENDBRANCH   4   7
ENDBRANCH   1   3
BRANCH   1  18
ATOM     18  N   LIG    1       -0.706   2.255  -0.732  0.00  0.00    -1.100 NA
ATOM     19  H   LIG    1       -1.127   3.127  -0.671  0.00  0.00    +0.430 HD
BRANCH  18  20
ATOM     20  S   LIG    1       -0.695   1.440  -2.174  0.00  0.00    +2.700 S 
ATOM     21  O   LIG    1        0.643   1.007  -2.380  0.00  0.00    -0.950 OA
ATOM     22  O   LIG    1       -1.400   2.255  -3.101  0.00  0.00    -0.940 OA
BRANCH  20  26
ATOM     23  C   LIG    1       -3.179  -2.306  -1.616  0.00  0.00    +0.210 A 
ATOM     24  C   LIG    1       -3.779  -1.131  -2.048  0.00  0.00    +0.010 A 
ATOM     25  C   LIG    1       -3.019   0.010  -2.217  0.00  0.00    +0.160 A 
ATOM     26  C   LIG    1       -1.661  -0.017  -1.956  0.00  0.00    -0.700 A 
ATOM     27  C   LIG    1       -1.059  -1.187  -1.531  0.00  0.00    +0.130 A 
ATOM     28  C   LIG    1       -1.815  -2.330  -1.355  0.00  0.00    -0.030 A 
BRANCH  23  31
ATOM     29  C   LIG    1       -5.882  -4.894  -2.010  0.00  0.00    +0.120 C 
ATOM     30  C   LIG    1       -4.985  -3.711  -2.266  0.00  0.00    +0.510 C 
ATOM     31  N   LIG    1       -3.946  -3.463  -1.444  0.00  0.00    -0.680 N 
ATOM     32  H   LIG    1       -3.730  -4.088  -0.734  0.00  0.00    +0.420 HD
ATOM     33  O   LIG    1       -5.198  -2.981  -3.211  0.00  0.00    -0.510 OA
ENDBRANCH  23  31
ENDBRANCH  20  26
ENDBRANCH  18  20
ENDBRANCH   1  18
TORSDOF 9
