REMARK  Name = ZINCpe000000YYn2.0
REMARK                            x       y       z     vdW  Elec       q    Type
REMARK                         _______ _______ _______ _____ _____    ______ ____
ROOT
ATOM      1  N   LIG    1       -4.617  -0.321   2.846  0.00  0.00    -0.730 N 
ATOM      2  H   LIG    1       -4.073  -0.001   3.582  0.00  0.00    +0.400 HD
ATOM      3  C   LIG    1       -5.753  -1.003   3.094  0.00  0.00    +0.510 C 
ATOM      4  O   LIG    1       -6.433  -1.403   2.173  0.00  0.00    -0.530 OA
ENDROOT
BRANCH   1   5
ATOM      5  C   LIG    1       -4.205  -0.062   1.464  0.00  0.00    +0.260 C 
BRANCH   5   6
ATOM      6  C   LIG    1       -2.892   0.724   1.462  0.00  0.00    +0.010 C 
BRANCH   6   7
ATOM      7  C   LIG    1       -2.462   0.994   0.019  0.00  0.00    +0.320 C 
BRANCH   7  12
ATOM      8  O   LIG    1        2.132   3.833   0.002  0.00  0.00    -0.510 OA
ATOM      9  C   LIG    1        1.101   3.185   0.008  0.00  0.00    +0.550 A 
ATOM     10  C   LIG    1        1.145   1.770   0.001  0.00  0.00    -0.120 A 
ATOM     11  C   LIG    1       -0.013   1.076   0.008  0.00  0.00    +0.350 A 
ATOM     12  N   LIG    1       -1.205   1.747   0.017  0.00  0.00    -0.530 N 
ATOM     13  C   LIG    1       -1.234   3.092   0.029  0.00  0.00    +0.700 A 
ATOM     14  O   LIG    1       -2.304   3.668   0.042  0.00  0.00    -0.540 OA
ATOM     15  N   LIG    1       -0.095   3.809   0.022  0.00  0.00    -0.660 N 
ATOM     16  H   LIG    1       -0.134   4.778   0.028  0.00  0.00    +0.430 HD
ENDBRANCH   7  12
ENDBRANCH   6   7
ENDBRANCH   5   6
ENDBRANCH   1   5
BRANCH   3  17
ATOM     17  C   LIG    1       -6.177  -1.269   4.515  0.00  0.00    +0.120 C 
BRANCH  17  18
ATOM     18  C   LIG    1       -7.469  -2.044   4.517  0.00  0.00    -0.130 A 
ATOM     19  C   LIG    1       -7.448  -3.409   4.510  0.00  0.00    +0.100 A 
ATOM     20  C   LIG    1       -8.679  -4.093   4.512  0.00  0.00    -0.100 A 
ATOM     21  C   LIG    1       -8.736  -5.496   4.505  0.00  0.00    +0.030 A 
ATOM     22  C   LIG    1       -9.946  -6.120   4.508  0.00  0.00    +0.010 A 
ATOM     23  C   LIG    1      -11.129  -5.385   4.517  0.00  0.00    +0.030 A 
ATOM     24  C   LIG    1      -11.111  -4.024   4.523  0.00  0.00    +0.050 A 
ATOM     25  C   LIG    1       -9.881  -3.343   4.521  0.00  0.00    +0.130 A 
ATOM     26  N   LIG    1       -9.832  -2.007   4.528  0.00  0.00    -0.470 NA
ATOM     27  C   LIG    1       -8.688  -1.367   4.532  0.00  0.00    +0.310 A 
ENDBRANCH  17  18
ENDBRANCH   3  17
TORSDOF 6
