REMARK  Name = ZINCpe00000bl8ED.0
REMARK                            x       y       z     vdW  Elec       q    Type
REMARK                         _______ _______ _______ _____ _____    ______ ____
ROOT
ATOM      1  C   LIG    1       -1.207   3.382  -1.603  0.00  0.00    +0.240 C 
ATOM      2  C   LIG    1        0.220   2.929  -1.285  0.00  0.00    +0.010 C 
ATOM      3  C   LIG    1        0.176   1.816  -0.234  0.00  0.00    +0.300 C 
ATOM      4  N   LIG    1       -0.576   2.294   0.934  0.00  0.00    -0.590 N 
ATOM      5  C   LIG    1       -1.928   2.837   0.726  0.00  0.00    +0.240 C 
ATOM      6  C   LIG    1       -2.863   1.723   0.251  0.00  0.00    +0.040 C 
ATOM      7  C   LIG    1       -0.037   2.238   2.168  0.00  0.00    +0.600 C 
ATOM      8  O   LIG    1        1.050   1.720   2.333  0.00  0.00    -0.500 OA
ATOM      9  C   LIG    1       -1.861   3.939  -0.337  0.00  0.00    +0.020 C 
ENDROOT
BRANCH   7  10
ATOM     10  C   LIG    1       -0.770   2.809   3.325  0.00  0.00    +0.280 A 
ATOM     11  N   LIG    1       -2.067   2.565   3.451  0.00  0.00    -0.460 NA
ATOM     12  C   LIG    1       -2.750   3.053   4.470  0.00  0.00    +0.310 A 
ATOM     13  C   LIG    1       -2.094   3.840   5.411  0.00  0.00    +0.020 A 
ATOM     14  C   LIG    1       -0.734   4.079   5.242  0.00  0.00    +0.320 A 
ATOM     15  F   LIG    1       -2.762   4.360   6.464  0.00  0.00    -0.110 F 
ATOM     16  N   LIG    1       -0.114   3.554   4.202  0.00  0.00    -0.450 NA
ENDBRANCH   7  10
BRANCH   1  18
ATOM     17  C   LIG    1       -1.127   4.082  -3.936  0.00  0.00    +0.520 C 
ATOM     18  N   LIG    1       -1.171   4.423  -2.632  0.00  0.00    -0.720 N 
ATOM     19  H   LIG    1       -1.178   5.359  -2.376  0.00  0.00    +0.400 HD
ATOM     20  O   LIG    1       -1.117   2.912  -4.256  0.00  0.00    -0.510 OA
BRANCH  17  25
ATOM     21  C   LIG    1       -3.578   7.239  -7.060  0.00  0.00    +0.180 C 
ATOM     22  C   LIG    1       -2.632   6.223  -6.474  0.00  0.00    +0.090 C 
ATOM     23  N   LIG    1       -1.892   5.423  -7.137  0.00  0.00    -0.290 NA
ATOM     24  O   LIG    1       -1.113   4.576  -6.316  0.00  0.00    -0.170 OA
ATOM     25  C   LIG    1       -1.090   5.153  -4.994  0.00  0.00    +0.130 C 
ATOM     26  C   LIG    1       -2.399   5.979  -4.995  0.00  0.00    +0.080 C 
ENDBRANCH  17  25
ENDBRANCH   1  18
TORSDOF 3
