REMARK  Name = ZINCqH0000008W4y.0
REMARK                            x       y       z     vdW  Elec       q    Type
REMARK                         _______ _______ _______ _____ _____    ______ ____
ROOT
ATOM      1  C   LIG    1        2.832   3.959   0.187  0.00  0.00    +0.520 C 
ATOM      2  N   LIG    1        3.091   5.223   0.575  0.00  0.00    -0.670 N 
ATOM      3  H   LIG    1        2.361   5.847   0.715  0.00  0.00    +0.410 HD
ATOM      4  O   LIG    1        3.746   3.207  -0.080  0.00  0.00    -0.490 OA
ENDROOT
BRANCH   2   5
ATOM      5  C   LIG    1        4.414   5.638   0.776  0.00  0.00    +0.150 A 
ATOM      6  C   LIG    1        5.356   4.741   1.261  0.00  0.00    +0.040 A 
ATOM      7  C   LIG    1        6.662   5.148   1.456  0.00  0.00    +0.050 A 
ATOM      8  C   LIG    1        7.033   6.455   1.178  0.00  0.00    +0.040 A 
ATOM      9  O   LIG    1        8.323   6.840   1.385  0.00  0.00    -0.310 OA
ATOM     10  C   LIG    1        8.744   8.049   0.743  0.00  0.00    +0.220 C 
ATOM     11  C   LIG    1        7.666   9.116   0.974  0.00  0.00    +0.220 C 
ATOM     12  O   LIG    1        6.438   8.642   0.412  0.00  0.00    -0.310 OA
ATOM     13  C   LIG    1        6.091   7.356   0.695  0.00  0.00    +0.070 A 
ATOM     14  C   LIG    1        4.782   6.946   0.496  0.00  0.00    +0.000 A 
ENDBRANCH   2   5
BRANCH   1  16
ATOM     15  C   LIG    1        0.650   4.338  -0.929  0.00  0.00    +0.020 C 
ATOM     16  C   LIG    1        1.407   3.478   0.086  0.00  0.00    +0.190 C 
BRANCH  16  17
ATOM     17  N   LIG    1        1.393   2.077  -0.354  0.00  0.00    -0.510 NA
ATOM     18  C   LIG    1        2.013   1.934  -1.678  0.00  0.00    +0.210 C 
BRANCH  17  19
ATOM     19  C   LIG    1        0.027   1.538  -0.350  0.00  0.00    +0.250 C 
BRANCH  19  20
ATOM     20  C   LIG    1        0.075   0.047  -0.565  0.00  0.00    -0.110 A 
ATOM     21  C   LIG    1        0.022  -0.471  -1.847  0.00  0.00    +0.120 A 
ATOM     22  C   LIG    1        0.072  -1.841  -2.043  0.00  0.00    -0.010 A 
ATOM     23  C   LIG    1        0.163  -2.691  -0.958  0.00  0.00    +0.060 A 
ATOM     24  C   LIG    1        0.209  -2.175   0.323  0.00  0.00    +0.020 A 
ATOM     25  F   LIG    1       -0.073   0.361  -2.908  0.00  0.00    -0.130 F 
ATOM     26  C   LIG    1        0.166  -0.806   0.521  0.00  0.00    +0.010 A 
ATOM     27 CL   LIG    1        0.226  -0.159   2.130  0.00  0.00    -0.050 Cl
ENDBRANCH  19  20
ENDBRANCH  17  19
ENDBRANCH  16  17
ENDBRANCH   1  16
TORSDOF 5
