REMARK  Name = ZINCpk00000y6yxH.0
REMARK                            x       y       z     vdW  Elec       q    Type
REMARK                         _______ _______ _______ _____ _____    ______ ____
ROOT
ATOM      1  C   LIG    1       -0.014   1.212   0.009  0.00  0.00    +0.610 C 
ATOM      2  N   LIG    1        1.143   1.901   0.001  0.00  0.00    -0.720 N 
ATOM      3  H   LIG    1        1.130   2.871   0.007  0.00  0.00    +0.410 HD
ATOM      4  O   LIG    1        0.002  -0.004   0.002  0.00  0.00    -0.530 OA
ENDROOT
BRANCH   1  11
ATOM      5  C   LIG    1       -5.589   3.145   1.072  0.00  0.00    +0.070 C 
ATOM      6  C   LIG    1       -4.953   2.209   0.043  0.00  0.00    +0.250 C 
ATOM      7  O   LIG    1       -5.221   0.845   0.397  0.00  0.00    -0.360 OA
ATOM      8  C   LIG    1       -4.499  -0.121  -0.372  0.00  0.00    +0.140 C 
ATOM      9  C   LIG    1       -3.012  -0.081   0.013  0.00  0.00    +0.110 C 
ATOM     10  C   LIG    1       -2.583   1.361   0.022  0.00  0.00    -0.140 A 
ATOM     11  C   LIG    1       -1.304   1.933   0.019  0.00  0.00    -0.010 A 
ATOM     12  N   LIG    1       -1.476   3.244   0.033  0.00  0.00    -0.260 NA
ATOM     13  N   LIG    1       -2.734   3.528   0.034  0.00  0.00    -0.260 N 
ATOM     14  C   LIG    1       -3.289   4.883   0.043  0.00  0.00    +0.370 C 
ATOM     15  C   LIG    1       -5.060  -1.516  -0.091  0.00  0.00    +0.080 C 
ATOM     16  C   LIG    1       -3.458   2.401   0.033  0.00  0.00    -0.030 A 
ENDBRANCH   1  11
BRANCH   2  17
ATOM     17  C   LIG    1        2.422   1.186  -0.015  0.00  0.00    +0.320 C 
BRANCH  17  18
ATOM     18  C   LIG    1        3.554   2.181  -0.020  0.00  0.00    -0.120 A 
ATOM     19  C   LIG    1        4.065   2.639  -1.222  0.00  0.00    +0.060 A 
ATOM     20  C   LIG    1        5.101   3.556  -1.235  0.00  0.00    +0.000 A 
ATOM     21  C   LIG    1        5.638   4.011  -0.050  0.00  0.00    +0.050 A 
ATOM     22  C   LIG    1        5.131   3.550   1.166  0.00  0.00    -0.140 A 
ATOM     23  C   LIG    1        4.082   2.629   1.173  0.00  0.00    +0.100 A 
BRANCH  22  24
ATOM     24  C   LIG    1        5.702   4.034   2.441  0.00  0.00    +0.560 C 
ATOM     25  O   LIG    1        5.259   3.630   3.498  0.00  0.00    -0.540 OA
ATOM     26  N   LIG    1        6.715   4.923   2.431  0.00  0.00    -0.850 N 
ATOM     27  H   LIG    1        7.090   5.241   3.267  0.00  0.00    +0.410 HD
ATOM     28  H   LIG    1        7.069   5.246   1.587  0.00  0.00    +0.400 HD
ENDBRANCH  22  24
ENDBRANCH  17  18
ENDBRANCH   2  17
TORSDOF 4
