REMARK  Name = ZINCnE000001E68u.0
REMARK                            x       y       z     vdW  Elec       q    Type
REMARK                         _______ _______ _______ _____ _____    ______ ____
ROOT
ATOM      1  C   LIG    1        3.442  -1.116  -0.036  0.00  0.00    +0.030 A 
ATOM      2  C   LIG    1        2.820  -2.331  -0.037  0.00  0.00    -0.030 A 
ATOM      3  C   LIG    1        1.442  -2.087  -0.017  0.00  0.00    +0.030 A 
ATOM      4  C   LIG    1        1.281  -0.719  -0.014  0.00  0.00    -0.040 A 
ATOM      5  O   LIG    1        2.506  -0.153  -0.022  0.00  0.00    -0.160 OA
ENDROOT
BRANCH   1  10
ATOM      6  C   LIG    1        6.783   0.598  -0.057  0.00  0.00    -0.070 A 
ATOM      7  C   LIG    1        7.641  -0.486  -0.071  0.00  0.00    +0.010 A 
ATOM      8  C   LIG    1        7.138  -1.776  -0.074  0.00  0.00    +0.020 A 
ATOM      9  C   LIG    1        5.776  -1.987  -0.063  0.00  0.00    +0.030 A 
ATOM     10  C   LIG    1        4.903  -0.897  -0.048  0.00  0.00    -0.010 A 
ATOM     11  C   LIG    1        5.417   0.401  -0.051  0.00  0.00    +0.030 A 
BRANCH   6  13
ATOM     12  C   LIG    1        8.210   2.199   1.188  0.00  0.00    +0.040 C 
ATOM     13  C   LIG    1        7.340   1.998  -0.054  0.00  0.00    +0.020 C 
ATOM     14  C   LIG    1        8.187   2.213  -1.310  0.00  0.00    +0.040 C 
ENDBRANCH   6  13
ENDBRANCH   1  10
BRANCH   4  15
ATOM     15  C   LIG    1        0.002  -0.004   0.002  0.00  0.00    +0.590 C 
ATOM     16  N   LIG    1       -0.016   1.344   0.009  0.00  0.00    -0.680 N 
ATOM     17  H   LIG    1        0.817   1.840   0.004  0.00  0.00    +0.390 HD
ATOM     18  O   LIG    1       -1.044  -0.627   0.009  0.00  0.00    -0.460 OA
BRANCH  16  19
ATOM     19  C   LIG    1       -1.295   2.059   0.019  0.00  0.00    +0.050 C 
ATOM     20  C   LIG    1       -1.676   2.842  -1.238  0.00  0.00    +0.010 C 
ATOM     21  C   LIG    1       -1.249   3.588   0.028  0.00  0.00    +0.020 C 
BRANCH  19  22
ATOM     22  C   LIG    1       -2.406   1.392   0.788  0.00  0.00    +0.540 C 
ATOM     23  O   LIG    1       -3.569   1.617   0.497  0.00  0.00    -0.690 OA
ATOM     24  O   LIG    1       -2.143   0.628   1.701  0.00  0.00    -0.670 OA
ENDBRANCH  19  22
ENDBRANCH  16  19
ENDBRANCH   4  15
TORSDOF 5
