REMARK  Name = ZINCpe00000MJJDG.2
REMARK                            x       y       z     vdW  Elec       q    Type
REMARK                         _______ _______ _______ _____ _____    ______ ____
ROOT
ATOM      1  C   LIG    1       -1.977  -1.074  -0.788  0.00  0.00    +0.280 C 
ENDROOT
BRANCH   1   3
ATOM      2  C   LIG    1       -3.971  -2.277  -1.505  0.00  0.00    +0.520 C 
ATOM      3  N   LIG    1       -3.188  -1.845  -0.497  0.00  0.00    -0.740 N 
ATOM      4  H   LIG    1       -3.427  -2.045   0.422  0.00  0.00    +0.400 HD
ATOM      5  O   LIG    1       -3.673  -2.027  -2.654  0.00  0.00    -0.510 OA
BRANCH   2   8
ATOM      6  C   LIG    1       -6.189  -5.268  -1.265  0.00  0.00    +0.140 C 
ATOM      7  C   LIG    1       -4.858  -4.550  -0.919  0.00  0.00    +0.070 C 
ATOM      8  C   LIG    1       -5.217  -3.070  -1.206  0.00  0.00    +0.130 C 
ATOM      9  N   LIG    1       -6.095  -3.118  -2.394  0.00  0.00    -0.510 NA
ATOM     10  C   LIG    1       -7.110  -2.057  -2.342  0.00  0.00    +0.200 C 
ATOM     11  C   LIG    1       -6.725  -4.449  -2.459  0.00  0.00    +0.170 C 
BRANCH   6  13
ATOM     12  C   LIG    1       -7.020  -7.515  -1.338  0.00  0.00    +0.200 C 
ATOM     13  O   LIG    1       -5.948  -6.623  -1.649  0.00  0.00    -0.370 OA
ENDBRANCH   6  13
ENDBRANCH   2   8
ENDBRANCH   1   3
BRANCH   1  14
ATOM     14  C   LIG    1       -1.276  -0.711   0.523  0.00  0.00    +0.160 C 
BRANCH  14  15
ATOM     15  C   LIG    1       -0.030   0.082   0.223  0.00  0.00    +0.180 A 
ATOM     16  N   LIG    1        0.052   1.382   0.118  0.00  0.00    -0.280 NA
ATOM     17  N   LIG    1        1.262   1.727  -0.144  0.00  0.00    -0.270 NA
ATOM     18  C   LIG    1        2.022   0.657  -0.222  0.00  0.00    +0.220 A 
ATOM     19  N   LIG    1        1.215  -0.424   0.011  0.00  0.00    -0.470 N 
ATOM     20  C   LIG    1        1.610  -1.834   0.028  0.00  0.00    +0.350 C 
BRANCH  18  21
ATOM     21  C   LIG    1        3.473   0.627  -0.507  0.00  0.00    -0.020 A 
ATOM     22  C   LIG    1        4.251   1.767  -0.304  0.00  0.00    +0.070 A 
ATOM     23  C   LIG    1        5.605   1.731  -0.567  0.00  0.00    +0.010 A 
ATOM     24  C   LIG    1        6.189   0.570  -1.041  0.00  0.00    +0.030 A 
ATOM     25  C   LIG    1        5.423  -0.563  -1.249  0.00  0.00    +0.010 A 
ATOM     26  C   LIG    1        4.069  -0.541  -0.985  0.00  0.00    +0.020 A 
ENDBRANCH  18  21
ENDBRANCH  14  15
ENDBRANCH   1  14
TORSDOF 6
