REMARK  Name = ZINCrH000004q4wX.0
REMARK                            x       y       z     vdW  Elec       q    Type
REMARK                         _______ _______ _______ _____ _____    ______ ____
ROOT
ATOM      1  N   LIG    1       -3.458  -3.025   0.005  0.00  0.00    -0.720 N 
ATOM      2  H   LIG    1       -2.501  -2.867   0.001  0.00  0.00    +0.410 HD
ATOM      3  C   LIG    1       -4.313  -1.984   0.014  0.00  0.00    +0.600 C 
ATOM      4  O   LIG    1       -5.512  -2.182   0.019  0.00  0.00    -0.530 OA
ENDROOT
BRANCH   3   5
ATOM      5  C   LIG    1       -3.793  -0.601   0.018  0.00  0.00    -0.000 A 
ATOM      6  N   LIG    1       -2.525  -0.241   0.014  0.00  0.00    -0.260 NA
ATOM      7  N   LIG    1       -2.429   1.040   0.020  0.00  0.00    -0.240 N 
ATOM      8  C   LIG    1       -3.666   1.600   0.034  0.00  0.00    +0.180 A 
ATOM      9  C   LIG    1       -4.563   0.586   0.028  0.00  0.00    +0.010 A 
BRANCH   7  10
ATOM     10  C   LIG    1       -1.224   1.755   0.017  0.00  0.00    +0.170 A 
ATOM     11  C   LIG    1       -1.239   3.143   0.029  0.00  0.00    +0.000 A 
ATOM     12  C   LIG    1       -0.050   3.846   0.022  0.00  0.00    +0.090 A 
ATOM     13  C   LIG    1        1.156   3.170   0.007  0.00  0.00    +0.000 A 
ATOM     14  C   LIG    1        1.175   1.785   0.000  0.00  0.00    +0.130 A 
ATOM     15  F   LIG    1        2.355   1.126  -0.014  0.00  0.00    -0.130 F 
ATOM     16  C   LIG    1       -0.013   1.076   0.008  0.00  0.00    +0.000 A 
ENDBRANCH   7  10
ENDBRANCH   3   5
BRANCH   1  17
ATOM     17  C   LIG    1       -3.973  -4.396   0.001  0.00  0.00    +0.260 C 
BRANCH  17  18
ATOM     18  C   LIG    1       -2.802  -5.381  -0.010  0.00  0.00    +0.110 C 
BRANCH  18  21
ATOM     19  C   LIG    1       -3.420  -7.109   2.493  0.00  0.00    +0.140 C 
ATOM     20  C   LIG    1       -3.603  -7.546   1.063  0.00  0.00    +0.090 A 
ATOM     21  C   LIG    1       -3.333  -6.792  -0.014  0.00  0.00    -0.170 A 
ATOM     22  C   LIG    1       -3.645  -7.602  -1.194  0.00  0.00    -0.100 A 
ATOM     23  C   LIG    1       -3.571  -7.380  -2.570  0.00  0.00    +0.050 A 
ATOM     24  C   LIG    1       -3.948  -8.367  -3.438  0.00  0.00    -0.020 A 
ATOM     25  C   LIG    1       -4.404  -9.588  -2.961  0.00  0.00    +0.030 A 
ATOM     26  C   LIG    1       -4.485  -9.828  -1.607  0.00  0.00    -0.010 A 
ATOM     27  C   LIG    1       -4.107  -8.838  -0.706  0.00  0.00    +0.100 A 
ATOM     28  N   LIG    1       -4.072  -8.770   0.669  0.00  0.00    -0.590 N 
ATOM     29  H   LIG    1       -4.336  -9.485   1.269  0.00  0.00    +0.420 HD
ENDBRANCH  18  21
ENDBRANCH  17  18
ENDBRANCH   1  17
TORSDOF 5
