REMARK  Name = ZINCvU0000000Hxf.0
REMARK                            x       y       z     vdW  Elec       q    Type
REMARK                         _______ _______ _______ _____ _____    ______ ____
ROOT
ATOM      1  N   LIG    1        0.002  -0.004   0.002  0.00  0.00    -0.710 N 
ATOM      2  H   LIG    1       -0.831  -0.500   0.007  0.00  0.00    +0.420 HD
ATOM      3  C   LIG    1       -0.016   1.344   0.009  0.00  0.00    +0.610 C 
ATOM      4  O   LIG    1        1.028   1.965   0.003  0.00  0.00    -0.500 OA
ENDROOT
BRANCH   3   5
ATOM      5  C   LIG    1       -1.311   2.068   0.019  0.00  0.00    -0.030 A 
ATOM      6  N   LIG    1       -2.509   1.538   0.023  0.00  0.00    -0.310 NA
ATOM      7  O   LIG    1       -3.368   2.389   0.031  0.00  0.00    +0.140 OA
ATOM      8  C   LIG    1       -2.847   3.624   0.035  0.00  0.00    -0.040 A 
ATOM      9  C   LIG    1       -1.502   3.477   0.034  0.00  0.00    +0.050 A 
BRANCH   8  10
ATOM     10  C   LIG    1       -3.611   4.923   0.046  0.00  0.00    +0.350 C 
BRANCH  10  11
ATOM     11  O   LIG    1       -3.859   5.341  -1.298  0.00  0.00    -0.290 OA
BRANCH  11  12
ATOM     12  C   LIG    1       -4.543   6.503  -1.466  0.00  0.00    +0.140 A 
ATOM     13  C   LIG    1       -4.971   7.223  -0.361  0.00  0.00    -0.040 A 
ATOM     14  C   LIG    1       -5.662   8.408  -0.534  0.00  0.00    +0.090 A 
ATOM     15  C   LIG    1       -5.937   8.870  -1.808  0.00  0.00    -0.060 A 
ATOM     16  C   LIG    1       -5.516   8.151  -2.913  0.00  0.00    +0.090 A 
ATOM     17 CL   LIG    1       -6.811  10.354  -2.022  0.00  0.00    -0.050 Cl
ATOM     18  C   LIG    1       -4.819   6.969  -2.745  0.00  0.00    -0.060 A 
ATOM     19 CL   LIG    1       -4.291   6.066  -4.130  0.00  0.00    -0.040 Cl
ENDBRANCH  11  12
ENDBRANCH  10  11
ENDBRANCH   8  10
ENDBRANCH   3   5
BRANCH   1  20
ATOM     20  C   LIG    1        1.281  -0.719  -0.014  0.00  0.00    +0.440 C 
BRANCH  20  21
ATOM     21  C   LIG    1        1.096  -2.091   0.581  0.00  0.00    -0.080 A 
ATOM     22  C   LIG    1       -0.045  -2.819   0.299  0.00  0.00    +0.040 A 
ATOM     23  C   LIG    1       -0.212  -4.080   0.842  0.00  0.00    +0.080 A 
ATOM     24  C   LIG    1        0.757  -4.609   1.673  0.00  0.00    -0.170 A 
ATOM     25  C   LIG    1        1.896  -3.879   1.958  0.00  0.00    +0.090 A 
ATOM     26  C   LIG    1        2.065  -2.620   1.412  0.00  0.00    +0.060 A 
BRANCH  24  27
ATOM     27  C   LIG    1        0.573  -5.981   2.267  0.00  0.00    +0.510 C 
ATOM     28  F   LIG    1        1.824  -6.577   2.461  0.00  0.00    -0.170 F 
ATOM     29  F   LIG    1       -0.188  -6.768   1.396  0.00  0.00    -0.170 F 
ATOM     30  F   LIG    1       -0.087  -5.873   3.495  0.00  0.00    -0.170 F 
ENDBRANCH  24  27
ENDBRANCH  20  21
BRANCH  20  32
ATOM     31  N   LIG    1        2.120  -0.943  -2.473  0.00  0.00    -0.390 NA
ATOM     32  C   LIG    1        1.755  -0.846  -1.402  0.00  0.00    +0.180 C 
ENDBRANCH  20  32
ENDBRANCH   1  20
TORSDOF 8
