REMARK  Name = ZINCnE00000rhohT.0
REMARK                            x       y       z     vdW  Elec       q    Type
REMARK                         _______ _______ _______ _____ _____    ______ ____
ROOT
ATOM      1  C   LIG    1       -0.013   1.086   0.008  0.00  0.00    +0.290 C 
ATOM      2  N   LIG    1       -0.698   1.558   1.213  0.00  0.00    -0.620 N 
ATOM      3  C   LIG    1        0.002   1.786   2.342  0.00  0.00    +0.520 C 
ATOM      4  O   LIG    1       -0.565   2.177   3.340  0.00  0.00    -0.520 OA
ENDROOT
BRANCH   3   5
ATOM      5  C   LIG    1        1.491   1.555   2.364  0.00  0.00    +0.060 C 
BRANCH   5   6
ATOM      6  C   LIG    1        2.039   1.886   3.753  0.00  0.00    +0.140 C 
BRANCH   6   7
ATOM      7  S   LIG    1        3.831   1.608   3.780  0.00  0.00    -0.150 S 
BRANCH   7   8
ATOM      8  S   LIG    1        4.550   3.120   2.597  0.00  0.00    -0.190 S 
BRANCH   8   9
ATOM      9  C   LIG    1        4.690   4.511   3.752  0.00  0.00    +0.150 C 
BRANCH   9  10
ATOM     10  C   LIG    1        5.830   4.244   4.737  0.00  0.00    -0.040 C 
BRANCH  10  11
ATOM     11  C   LIG    1        5.946   5.399   5.697  0.00  0.00    +0.500 C 
ATOM     12  O   LIG    1        6.799   5.384   6.569  0.00  0.00    -0.700 OA
ATOM     13  O   LIG    1        5.187   6.349   5.603  0.00  0.00    -0.700 OA
ENDBRANCH  10  11
ENDBRANCH   9  10
ENDBRANCH   8   9
ENDBRANCH   7   8
ENDBRANCH   6   7
ENDBRANCH   5   6
ENDBRANCH   3   5
BRANCH   2  14
ATOM     14  C   LIG    1       -2.146   1.783   1.192  0.00  0.00    +0.300 C 
BRANCH  14  15
ATOM     15  C   LIG    1       -2.868   0.496   1.596  0.00  0.00    +0.010 C 
ATOM     16  C   LIG    1       -4.397   0.695   1.527  0.00  0.00    +0.040 C 
ATOM     17  C   LIG    1       -4.740   1.128   2.968  0.00  0.00    +0.070 C 
ATOM     18  C   LIG    1       -3.653   0.525   3.832  0.00  0.00    -0.100 A 
ATOM     19  C   LIG    1       -3.608   0.312   5.199  0.00  0.00    +0.000 A 
ATOM     20  C   LIG    1       -2.493  -0.261   5.777  0.00  0.00    +0.000 A 
ATOM     21  C   LIG    1       -1.417  -0.624   4.989  0.00  0.00    +0.000 A 
ATOM     22  C   LIG    1       -1.459  -0.412   3.625  0.00  0.00    +0.020 A 
ATOM     23  C   LIG    1       -2.577   0.162   3.043  0.00  0.00    -0.080 A 
ENDBRANCH  14  15
ENDBRANCH   2  14
TORSDOF 9
