REMARK  Name = ZINCrD000000B5UH.0
REMARK                            x       y       z     vdW  Elec       q    Type
REMARK                         _______ _______ _______ _____ _____    ______ ____
ROOT
ATOM      1  O   LIG    1       -5.042   3.103   5.381  0.00  0.00    -0.580 OA
ATOM      2  C   LIG    1       -4.147   2.293   5.233  0.00  0.00    +0.710 C 
ATOM      3  N   LIG    1       -3.584   2.126   4.019  0.00  0.00    -0.630 N 
ATOM      4  C   LIG    1       -3.961   2.993   2.894  0.00  0.00    +0.290 C 
ATOM      5  C   LIG    1       -4.428   2.110   1.730  0.00  0.00    +0.290 C 
ATOM      6  N   LIG    1       -3.426   1.058   1.509  0.00  0.00    -0.990 NA
ATOM      7  C   LIG    1       -3.053   0.187   2.633  0.00  0.00    +0.300 C 
ATOM      8  C   LIG    1       -2.583   1.074   3.798  0.00  0.00    +0.260 C 
ATOM      9  N   LIG    1       -3.718   1.563   6.281  0.00  0.00    -0.750 N 
ATOM     10  H   LIG    1       -3.055   0.867   6.149  0.00  0.00    +0.400 HD
ENDROOT
BRANCH   6  11
ATOM     11  S   LIG    1       -2.736   0.852   0.018  0.00  0.00    +2.690 S 
ATOM     12  O   LIG    1       -2.155  -0.445   0.021  0.00  0.00    -0.930 OA
ATOM     13  O   LIG    1       -3.705   1.267  -0.934  0.00  0.00    -0.940 OA
BRANCH  11  14
ATOM     14  C   LIG    1       -1.400   1.995  -0.101  0.00  0.00    -0.660 A 
ATOM     15  C   LIG    1       -1.465   3.042  -0.999  0.00  0.00    +0.160 A 
ATOM     16  C   LIG    1       -0.418   3.943  -1.088  0.00  0.00    -0.050 A 
ATOM     17  C   LIG    1        0.695   3.792  -0.282  0.00  0.00    +0.110 A 
ATOM     18  C   LIG    1        0.762   2.741   0.614  0.00  0.00    +0.050 A 
ATOM     19 CL   LIG    1       -0.502   5.263  -2.213  0.00  0.00    -0.040 Cl
ATOM     20  C   LIG    1       -0.284   1.840   0.702  0.00  0.00    +0.050 A 
ATOM     21 CL   LIG    1       -0.199   0.520   1.827  0.00  0.00    -0.030 Cl
ENDBRANCH  11  14
ENDBRANCH   6  11
BRANCH   9  22
ATOM     22  C   LIG    1       -4.252   1.821   7.621  0.00  0.00    +0.280 C 
BRANCH  22  23
ATOM     23  C   LIG    1       -3.604   0.861   8.621  0.00  0.00    +0.110 C 
BRANCH  23  24
ATOM     24  C   LIG    1       -4.154   1.126   9.999  0.00  0.00    -0.180 A 
ATOM     25  C   LIG    1       -5.230   0.538  10.524  0.00  0.00    +0.010 A 
ATOM     26  C   LIG    1       -5.546   0.941  11.810  0.00  0.00    +0.000 A 
ATOM     27  C   LIG    1       -4.726   1.856  12.329  0.00  0.00    -0.040 A 
ATOM     28  S   LIG    1       -3.470   2.252  11.164  0.00  0.00    +0.100 S 
ENDBRANCH  23  24
ENDBRANCH  22  23
ENDBRANCH   9  22
TORSDOF 5
