REMARK  Name = ZINCrH000004qAqN.0
REMARK                            x       y       z     vdW  Elec       q    Type
REMARK                         _______ _______ _______ _____ _____    ______ ____
ROOT
ATOM      1  C   LIG    1       -4.678  -0.404   0.290  0.00  0.00    -0.150 A 
ATOM      2  C   LIG    1       -4.755   0.981   0.202  0.00  0.00    +0.100 A 
ATOM      3  C   LIG    1       -3.600   1.731   0.113  0.00  0.00    +0.010 A 
ATOM      4  C   LIG    1       -2.361   1.103   0.110  0.00  0.00    +0.180 A 
ATOM      5  C   LIG    1       -2.285  -0.281   0.192  0.00  0.00    -0.030 A 
ATOM      6  C   LIG    1       -3.439  -1.032   0.287  0.00  0.00    +0.100 A 
ENDROOT
BRANCH   4   7
ATOM      7  N   LIG    1       -1.189   1.865   0.018  0.00  0.00    -0.680 N 
ATOM      8  H   LIG    1       -0.425   1.522  -0.471  0.00  0.00    +0.410 HD
ATOM      9  C   LIG    1       -1.124   3.074   0.609  0.00  0.00    +0.510 C 
ATOM     10  O   LIG    1       -2.106   3.539   1.149  0.00  0.00    -0.500 OA
BRANCH   9  11
ATOM     11  C   LIG    1        0.171   3.846   0.605  0.00  0.00    +0.150 C 
BRANCH  11  12
ATOM     12  C   LIG    1       -0.021   5.152   1.332  0.00  0.00    -0.230 A 
ATOM     13  C   LIG    1        0.167   5.362   2.655  0.00  0.00    +0.100 A 
ATOM     14  N   LIG    1       -0.108   6.659   2.909  0.00  0.00    -0.370 N 
ATOM     15  N   LIG    1       -0.477   7.266   1.701  0.00  0.00    -0.300 NA
ATOM     16  C   LIG    1       -0.033   7.316   4.216  0.00  0.00    +0.360 C 
ATOM     17  C   LIG    1        0.605   4.333   3.665  0.00  0.00    +0.140 C 
ATOM     18  C   LIG    1       -0.419   6.363   0.756  0.00  0.00    +0.090 A 
ATOM     19  C   LIG    1       -0.731   6.589  -0.701  0.00  0.00    +0.150 C 
ENDBRANCH  11  12
ENDBRANCH   9  11
ENDBRANCH   4   7
BRANCH   1  20
ATOM     20  S   LIG    1       -6.152  -1.362   0.404  0.00  0.00    +0.110 S 
BRANCH  20  26
ATOM     21  C   LIG    1       -4.797  -0.925  -4.512  0.00  0.00    +0.140 C 
ATOM     22  C   LIG    1       -5.723  -1.526  -3.486  0.00  0.00    +0.190 A 
ATOM     23  C   LIG    1       -6.740  -2.383  -3.877  0.00  0.00    -0.090 A 
ATOM     24  C   LIG    1       -7.570  -2.914  -2.901  0.00  0.00    +0.190 A 
ATOM     25  N   LIG    1       -7.368  -2.590  -1.635  0.00  0.00    -0.510 NA
ATOM     26  C   LIG    1       -6.386  -1.767  -1.295  0.00  0.00    +0.290 A 
ATOM     27  C   LIG    1       -8.689  -3.850  -3.280  0.00  0.00    +0.140 C 
ATOM     28  N   LIG    1       -5.578  -1.238  -2.204  0.00  0.00    -0.520 NA
ENDBRANCH  20  26
ENDBRANCH   1  20
TORSDOF 5
