REMARK  Name = ZINCvU00000007VG.0
REMARK                            x       y       z     vdW  Elec       q    Type
REMARK                         _______ _______ _______ _____ _____    ______ ____
ROOT
ATOM      1  N   LIG    1       -2.564   3.541   0.046  0.00  0.00    -0.480 N 
ATOM      2  C   LIG    1       -1.236   3.164   0.031  0.00  0.00    +0.050 A 
ATOM      3  C   LIG    1       -0.034   3.859   0.023  0.00  0.00    +0.010 A 
ATOM      4  C   LIG    1        1.157   3.163   0.008  0.00  0.00    +0.030 A 
ATOM      5  C   LIG    1        1.161   1.776   0.001  0.00  0.00    +0.000 A 
ATOM      6  C   LIG    1       -0.013   1.076   0.008  0.00  0.00    +0.070 A 
ATOM      7  C   LIG    1       -1.231   1.759   0.017  0.00  0.00    +0.050 A 
ATOM      8  N   LIG    1       -2.529   1.359   0.035  0.00  0.00    -0.480 NA
ATOM      9  C   LIG    1       -3.307   2.402   0.048  0.00  0.00    +0.270 A 
ENDROOT
BRANCH   9  10
ATOM     10  C   LIG    1       -4.814   2.354   0.062  0.00  0.00    +0.340 C 
ATOM     11  C   LIG    1       -5.325   1.971  -1.328  0.00  0.00    +0.060 C 
BRANCH  10  12
ATOM     12  N   LIG    1       -5.261   1.357   1.038  0.00  0.00    -0.710 N 
ATOM     13  H   LIG    1       -4.679   0.621   1.281  0.00  0.00    +0.420 HD
ATOM     14  C   LIG    1       -6.482   1.465   1.599  0.00  0.00    +0.610 C 
ATOM     15  O   LIG    1       -7.212   2.389   1.295  0.00  0.00    -0.520 OA
BRANCH  14  16
ATOM     16  C   LIG    1       -6.930   0.468   2.577  0.00  0.00    -0.090 A 
ATOM     17  C   LIG    1       -8.136   0.457   3.217  0.00  0.00    +0.050 A 
ATOM     18  C   LIG    1       -8.138  -0.669   4.056  0.00  0.00    -0.070 A 
ATOM     19  C   LIG    1       -6.949  -1.288   3.892  0.00  0.00    +0.210 A 
ATOM     20  O   LIG    1       -6.226  -0.604   2.996  0.00  0.00    -0.160 OA
ENDBRANCH  14  16
ENDBRANCH  10  12
ENDBRANCH   9  10
BRANCH   1  21
ATOM     21  C   LIG    1       -3.077   4.913   0.058  0.00  0.00    +0.310 C 
BRANCH  21  22
ATOM     22  C   LIG    1       -3.271   5.397  -1.380  0.00  0.00    +0.020 C 
BRANCH  22  23
ATOM     23  C   LIG    1       -3.808   6.830  -1.367  0.00  0.00    +0.200 C 
BRANCH  23  24
ATOM     24  O   LIG    1       -3.989   7.283  -2.710  0.00  0.00    -0.310 OA
BRANCH  24  29
ATOM     25  C   LIG    1       -5.954  12.516  -3.402  0.00  0.00    +0.100 C 
ATOM     26  C   LIG    1       -5.428  11.116  -3.217  0.00  0.00    -0.120 A 
ATOM     27  C   LIG    1       -5.230  10.616  -1.943  0.00  0.00    +0.030 A 
ATOM     28  C   LIG    1       -4.748   9.333  -1.771  0.00  0.00    -0.070 A 
ATOM     29  C   LIG    1       -4.463   8.546  -2.877  0.00  0.00    +0.120 A 
ATOM     30  C   LIG    1       -4.657   9.052  -4.154  0.00  0.00    -0.110 A 
ATOM     31  C   LIG    1       -4.342   8.202  -5.358  0.00  0.00    +0.100 C 
ATOM     32  C   LIG    1       -5.145  10.333  -4.321  0.00  0.00    +0.050 A 
ENDBRANCH  24  29
ENDBRANCH  23  24
ENDBRANCH  22  23
ENDBRANCH  21  22
ENDBRANCH   1  21
TORSDOF 8
