REMARK  Name = ZINCrH000004r5fv.0
REMARK                            x       y       z     vdW  Elec       q    Type
REMARK                         _______ _______ _______ _____ _____    ______ ____
ROOT
ATOM      1  C   LIG    1       -4.022   4.705  -5.590  0.00  0.00    +0.110 C 
ATOM      2  C   LIG    1       -3.378   4.410  -4.259  0.00  0.00    +0.050 A 
ATOM      3  C   LIG    1       -2.612   3.269  -4.103  0.00  0.00    -0.010 A 
ATOM      4  C   LIG    1       -2.019   2.994  -2.888  0.00  0.00    +0.100 A 
ATOM      5  C   LIG    1       -2.194   3.870  -1.815  0.00  0.00    -0.160 A 
ATOM      6  C   LIG    1       -2.974   5.016  -1.978  0.00  0.00    +0.200 A 
ATOM      7  C   LIG    1       -3.556   5.282  -3.200  0.00  0.00    -0.690 A 
ENDROOT
BRANCH   5   8
ATOM      8  C   LIG    1       -1.562   3.581  -0.510  0.00  0.00    +0.560 C 
ATOM      9  N   LIG    1       -0.815   2.470  -0.354  0.00  0.00    -0.720 N 
ATOM     10  H   LIG    1       -0.692   1.860  -1.098  0.00  0.00    +0.400 HD
ATOM     11  O   LIG    1       -1.716   4.346   0.422  0.00  0.00    -0.530 OA
BRANCH   9  12
ATOM     12  C   LIG    1       -0.188   2.184   0.939  0.00  0.00    +0.240 C 
ATOM     13  C   LIG    1        1.150   2.921   1.031  0.00  0.00    +0.010 C 
ATOM     14  C   LIG    1        2.070   2.449  -0.097  0.00  0.00    +0.000 C 
ATOM     15  C   LIG    1        2.306   0.943   0.034  0.00  0.00    +0.010 C 
ATOM     16  C   LIG    1        0.968   0.207  -0.059  0.00  0.00    -0.030 C 
ATOM     17  C   LIG    1        1.204  -1.299   0.071  0.00  0.00    +0.030 C 
ATOM     18  C   LIG    1        0.048   0.678   1.069  0.00  0.00    +0.000 C 
ATOM     19  C   LIG    1       -1.290  -0.058   0.977  0.00  0.00    +0.020 C 
ENDBRANCH   9  12
ENDBRANCH   5   8
BRANCH   7  20
ATOM     20  S   LIG    1       -4.535   6.732  -3.410  0.00  0.00    +2.690 S 
ATOM     21  O   LIG    1       -4.136   7.311  -4.645  0.00  0.00    -0.950 OA
ATOM     22  O   LIG    1       -4.487   7.431  -2.173  0.00  0.00    -0.950 OA
BRANCH  20  23
ATOM     23  N   LIG    1       -6.104   6.241  -3.609  0.00  0.00    -0.990 NA
ATOM     24  C   LIG    1       -6.660   6.037  -4.953  0.00  0.00    +0.290 C 
ATOM     25  C   LIG    1       -7.254   4.622  -5.027  0.00  0.00    +0.010 C 
ATOM     26  C   LIG    1       -8.267   4.441  -3.895  0.00  0.00    +0.020 C 
ATOM     27  C   LIG    1       -7.560   4.596  -2.546  0.00  0.00    +0.010 C 
ATOM     28  C   LIG    1       -6.968   6.005  -2.444  0.00  0.00    +0.290 C 
ENDBRANCH  20  23
ENDBRANCH   7  20
TORSDOF 4
