REMARK  Name = ZINCpe00000KbFAz.0
REMARK                            x       y       z     vdW  Elec       q    Type
REMARK                         _______ _______ _______ _____ _____    ______ ____
ROOT
ATOM      1  C   LIG    1       -0.413   2.907  -1.684  0.00  0.00    +0.210 C 
ATOM      2  C   LIG    1       -0.796   2.412  -3.080  0.00  0.00    +0.260 C 
ATOM      3  O   LIG    1       -2.157   1.965  -3.050  0.00  0.00    -0.360 OA
ATOM      4  C   LIG    1       -2.339   0.780  -2.272  0.00  0.00    +0.290 C 
ATOM      5  C   LIG    1       -1.682   0.945  -0.929  0.00  0.00    +0.490 C 
ATOM      6  O   LIG    1       -1.971   0.174  -0.039  0.00  0.00    -0.530 OA
ATOM      7  N   LIG    1       -0.793   1.915  -0.681  0.00  0.00    -0.580 N 
ENDROOT
BRANCH   1  10
ATOM      8  N   LIG    1        1.588   4.338  -1.946  0.00  0.00    -0.720 N 
ATOM      9  H   LIG    1        0.998   5.059  -2.215  0.00  0.00    +0.410 HD
ATOM     10  C   LIG    1        1.076   3.133  -1.624  0.00  0.00    +0.510 C 
ATOM     11  O   LIG    1        1.813   2.231  -1.287  0.00  0.00    -0.510 OA
BRANCH   8  12
ATOM     12  C   LIG    1        3.035   4.557  -1.888  0.00  0.00    +0.360 C 
BRANCH  12  18
ATOM     13  C   LIG    1        3.893   7.855  -5.395  0.00  0.00    +0.180 C 
ATOM     14  C   LIG    1        3.749   7.534  -3.930  0.00  0.00    +0.320 A 
ATOM     15  N   LIG    1        3.896   8.498  -3.044  0.00  0.00    -0.510 NA
ATOM     16  C   LIG    1        3.777   8.254  -1.749  0.00  0.00    +0.330 A 
ATOM     17  C   LIG    1        3.493   6.963  -1.330  0.00  0.00    -0.070 A 
ATOM     18  C   LIG    1        3.345   5.976  -2.292  0.00  0.00    +0.160 A 
ATOM     19  N   LIG    1        3.484   6.294  -3.568  0.00  0.00    -0.510 NA
ENDBRANCH  12  18
ENDBRANCH   8  12
ENDBRANCH   1  10
BRANCH   7  20
ATOM     20  C   LIG    1       -0.174   1.980   0.645  0.00  0.00    +0.340 C 
BRANCH  20  21
ATOM     21  C   LIG    1       -1.038   2.805   1.563  0.00  0.00    -0.110 A 
ATOM     22  C   LIG    1       -0.835   4.169   1.662  0.00  0.00    +0.000 A 
ATOM     23  C   LIG    1       -1.630   4.927   2.501  0.00  0.00    +0.000 A 
ATOM     24  C   LIG    1       -2.623   4.320   3.248  0.00  0.00    +0.010 A 
ATOM     25  C   LIG    1       -2.822   2.955   3.152  0.00  0.00    +0.000 A 
ATOM     26  C   LIG    1       -2.029   2.198   2.310  0.00  0.00    +0.040 A 
ENDBRANCH  20  21
ENDBRANCH   7  20
TORSDOF 5
