REMARK  Name = ZINCrH00000No55i.0
REMARK                            x       y       z     vdW  Elec       q    Type
REMARK                         _______ _______ _______ _____ _____    ______ ____
ROOT
ATOM      1  N   LIG    1        2.372   1.232  -0.066  0.00  0.00    -0.600 N 
ATOM      2  C   LIG    1        1.203   1.845  -0.338  0.00  0.00    +0.550 C 
ATOM      3  O   LIG    1        1.167   3.053  -0.477  0.00  0.00    -0.540 OA
ATOM      4  C   LIG    1        2.416  -0.222   0.102  0.00  0.00    +0.290 C 
ENDROOT
BRANCH   1   6
ATOM      5  C   LIG    1        4.265   1.716   1.405  0.00  0.00    +0.040 C 
ATOM      6  C   LIG    1        3.600   2.021   0.061  0.00  0.00    +0.290 C 
BRANCH   6   7
ATOM      7  C   LIG    1        4.544   1.666  -1.058  0.00  0.00    -0.100 A 
ATOM      8  C   LIG    1        4.971   2.645  -1.938  0.00  0.00    +0.060 A 
ATOM      9  C   LIG    1        5.839   2.323  -2.962  0.00  0.00    +0.000 A 
ATOM     10  C   LIG    1        6.276   1.014  -3.115  0.00  0.00    +0.150 A 
ATOM     11  C   LIG    1        5.841   0.033  -2.234  0.00  0.00    +0.030 A 
ATOM     12  C   LIG    1        4.976   0.361  -1.208  0.00  0.00    +0.050 A 
BRANCH  10  13
ATOM     13  N   LIG    1        7.154   0.684  -4.157  0.00  0.00    -0.330 N 
ATOM     14  C   LIG    1        7.655   1.520  -5.087  0.00  0.00    +0.480 A 
ATOM     15  N   LIG    1        8.435   0.827  -5.877  0.00  0.00    -0.540 NA
ATOM     16  C   LIG    1        8.451  -0.449  -5.491  0.00  0.00    +0.430 A 
ATOM     17  N   LIG    1        7.683  -0.586  -4.442  0.00  0.00    -0.310 NA
ENDBRANCH  10  13
ENDBRANCH   6   7
ENDBRANCH   1   6
BRANCH   2  18
ATOM     18  C   LIG    1       -0.023   1.057  -0.465  0.00  0.00    -0.060 C 
ATOM     19  C   LIG    1       -1.193   1.670  -0.742  0.00  0.00    +0.120 C 
BRANCH  19  20
ATOM     20  C   LIG    1       -2.424   0.878  -0.876  0.00  0.00    -0.140 A 
ATOM     21  C   LIG    1       -2.450  -0.249  -1.708  0.00  0.00    +0.140 A 
ATOM     22  C   LIG    1       -3.610  -0.991  -1.824  0.00  0.00    -0.010 A 
ATOM     23  C   LIG    1       -4.747  -0.617  -1.129  0.00  0.00    +0.100 A 
ATOM     24  C   LIG    1       -4.732   0.497  -0.309  0.00  0.00    -0.010 A 
ATOM     25  F   LIG    1       -1.343  -0.613  -2.392  0.00  0.00    -0.120 F 
ATOM     26  C   LIG    1       -3.580   1.248  -0.176  0.00  0.00    +0.150 A 
ATOM     27  F   LIG    1       -3.568   2.335   0.626  0.00  0.00    -0.120 F 
ENDBRANCH  19  20
ENDBRANCH   2  18
TORSDOF 5
