REMARK  Name = ZINCpk00000K9TKb.0
REMARK                            x       y       z     vdW  Elec       q    Type
REMARK                         _______ _______ _______ _____ _____    ______ ____
ROOT
ATOM      1  C   LIG    1       -1.141   0.179  -0.631  0.00  0.00    +0.140 C 
ATOM      2  C   LIG    1       -2.147   1.339  -0.455  0.00  0.00    +0.020 C 
ATOM      3  C   LIG    1       -1.910   1.865   0.973  0.00  0.00    +0.190 C 
ATOM      4  N   LIG    1       -0.847   1.027   1.575  0.00  0.00    -0.500 NA
ATOM      5  C   LIG    1       -0.060   0.493   0.434  0.00  0.00    +0.180 C 
ENDROOT
BRANCH   1   6
ATOM      6  N   LIG    1       -0.559   0.191  -1.980  0.00  0.00    -0.530 NA
ATOM      7  C   LIG    1       -1.607   0.086  -3.006  0.00  0.00    +0.200 C 
BRANCH   6   8
ATOM      8  C   LIG    1        0.437  -0.877  -2.134  0.00  0.00    +0.340 C 
BRANCH   8  13
ATOM      9  C   LIG    1        1.757  -1.146  -6.990  0.00  0.00    +0.190 C 
ATOM     10  C   LIG    1        1.746  -0.806  -5.522  0.00  0.00    -0.050 A 
ATOM     11  C   LIG    1        2.647  -0.051  -4.871  0.00  0.00    +0.140 A 
ATOM     12  N   LIG    1        2.272   0.011  -3.582  0.00  0.00    -0.460 NA
ATOM     13  C   LIG    1        1.183  -0.687  -3.429  0.00  0.00    +0.190 A 
ATOM     14  O   LIG    1        0.832  -1.202  -4.615  0.00  0.00    -0.200 OA
ENDBRANCH   8  13
ENDBRANCH   6   8
ENDBRANCH   1   6
BRANCH   4  15
ATOM     15  C   LIG    1        0.002   1.816   2.477  0.00  0.00    +0.210 C 
BRANCH  15  16
ATOM     16  C   LIG    1       -0.863   2.539   3.477  0.00  0.00    +0.510 C 
ATOM     17  N   LIG    1       -0.297   3.329   4.411  0.00  0.00    -0.650 N 
ATOM     18  H   LIG    1        0.658   3.498   4.389  0.00  0.00    +0.410 HD
ATOM     19  O   LIG    1       -2.068   2.410   3.441  0.00  0.00    -0.500 OA
BRANCH  17  20
ATOM     20  C   LIG    1       -1.091   3.909   5.418  0.00  0.00    -0.010 A 
ATOM     21  C   LIG    1       -0.810   3.929   6.746  0.00  0.00    +0.070 A 
ATOM     22  N   LIG    1       -1.824   4.583   7.369  0.00  0.00    -0.470 N 
ATOM     23  H   LIG    1       -1.893   4.752   8.322  0.00  0.00    +0.440 HD
ATOM     24  N   LIG    1       -2.754   4.965   6.394  0.00  0.00    -0.290 NA
ATOM     25  C   LIG    1        0.408   3.337   7.407  0.00  0.00    +0.150 C 
ATOM     26  C   LIG    1       -2.317   4.563   5.228  0.00  0.00    +0.100 A 
ATOM     27  C   LIG    1       -3.013   4.767   3.907  0.00  0.00    +0.170 C 
ENDBRANCH  17  20
ENDBRANCH  15  16
ENDBRANCH   4  15
TORSDOF 6
