REMARK  Name = ZINCkj000005hsMm.0
REMARK                            x       y       z     vdW  Elec       q    Type
REMARK                         _______ _______ _______ _____ _____    ______ ____
ROOT
ATOM      1  C   LIG    1        0.787  -0.487  -1.221  0.00  0.00    +0.130 C 
ATOM      2  C   LIG    1        0.002  -0.004   0.002  0.00  0.00    +0.050 C 
ATOM      3  C   LIG    1       -0.019   1.527   0.010  0.00  0.00    +0.060 C 
ATOM      4  C   LIG    1        1.419   2.051  -0.001  0.00  0.00    +0.250 C 
ATOM      5  N   LIG    1        2.107   1.577  -1.207  0.00  0.00    -0.380 N 
ATOM      6  H   LIG    1        3.037   1.967  -1.238  0.00  0.00    +0.430 HD
ATOM      7  C   LIG    1        2.195   0.112  -1.186  0.00  0.00    +0.260 C 
ENDROOT
BRANCH   1   8
ATOM      8  N   LIG    1        0.877  -1.954  -1.198  0.00  0.00    -0.510 NA
ATOM      9  C   LIG    1        1.704  -2.448  -2.307  0.00  0.00    +0.200 C 
BRANCH   8  10
ATOM     10  C   LIG    1       -0.459  -2.563  -1.225  0.00  0.00    +0.210 C 
BRANCH  10  14
ATOM     11  C   LIG    1       -1.335  -6.248  -0.667  0.00  0.00    +0.280 C 
ATOM     12  N   LIG    1       -1.448  -4.811  -0.930  0.00  0.00    -0.730 N 
ATOM     13  H   LIG    1       -2.319  -4.414  -1.087  0.00  0.00    +0.400 HD
ATOM     14  C   LIG    1       -0.343  -4.041  -0.955  0.00  0.00    +0.510 C 
ATOM     15  O   LIG    1        0.747  -4.538  -0.758  0.00  0.00    -0.520 OA
ENDBRANCH  10  14
ENDBRANCH   8  10
ENDBRANCH   1   8
BRANCH   5  16
ATOM     16  C   LIG    1        1.358   2.005  -2.395  0.00  0.00    +0.300 C 
BRANCH  16  17
ATOM     17  C   LIG    1        1.373   3.509  -2.484  0.00  0.00    -0.160 A 
ATOM     18  C   LIG    1        0.372   4.247  -1.879  0.00  0.00    +0.030 A 
ATOM     19  C   LIG    1        0.389   5.627  -1.956  0.00  0.00    +0.030 A 
ATOM     20  C   LIG    1        1.400   6.269  -2.646  0.00  0.00    +0.060 A 
ATOM     21  C   LIG    1        2.397   5.531  -3.256  0.00  0.00    +0.030 A 
ATOM     22  C   LIG    1        2.384   4.151  -3.174  0.00  0.00    +0.040 A 
ENDBRANCH  16  17
ENDBRANCH   5  16
TORSDOF 5
