REMARK  Name = ZINCkj000005hsMm.1
REMARK                            x       y       z     vdW  Elec       q    Type
REMARK                         _______ _______ _______ _____ _____    ______ ____
ROOT
ATOM      1  C   LIG    1       -2.870   1.498  -0.006  0.00  0.00    +0.130 C 
ATOM      2  C   LIG    1       -2.163   1.047   1.275  0.00  0.00    +0.040 C 
ATOM      3  C   LIG    1       -0.728   1.579   1.268  0.00  0.00    +0.070 C 
ATOM      4  C   LIG    1       -0.013   1.086   0.008  0.00  0.00    +0.250 C 
ATOM      5  N   LIG    1       -0.722   1.571  -1.182  0.00  0.00    -0.380 N 
ATOM      6  H   LIG    1       -0.779   2.578  -1.151  0.00  0.00    +0.420 HD
ATOM      7  C   LIG    1       -2.076   1.008  -1.219  0.00  0.00    +0.260 C 
ENDROOT
BRANCH   1   8
ATOM      8  N   LIG    1       -4.225   0.931  -0.045  0.00  0.00    -0.510 NA
ATOM      9  C   LIG    1       -4.898   1.261  -1.308  0.00  0.00    +0.200 C 
BRANCH   8  10
ATOM     10  C   LIG    1       -5.017   1.381   1.107  0.00  0.00    +0.210 C 
BRANCH  10  14
ATOM     11  C   LIG    1       -8.442   0.078   2.214  0.00  0.00    +0.280 C 
ATOM     12  N   LIG    1       -7.192   0.840   2.153  0.00  0.00    -0.730 N 
ATOM     13  H   LIG    1       -7.006   1.520   2.819  0.00  0.00    +0.400 HD
ATOM     14  C   LIG    1       -6.302   0.597   1.171  0.00  0.00    +0.510 C 
ATOM     15  O   LIG    1       -6.535  -0.253   0.338  0.00  0.00    -0.520 OA
ENDBRANCH  10  14
ENDBRANCH   8  10
ENDBRANCH   1   8
BRANCH   5  16
ATOM     16  C   LIG    1        0.011   1.162  -2.388  0.00  0.00    +0.330 C 
BRANCH  16  17
ATOM     17  C   LIG    1        1.354   1.845  -2.416  0.00  0.00    -0.160 A 
ATOM     18  C   LIG    1        1.492   3.072  -3.037  0.00  0.00    +0.040 A 
ATOM     19  C   LIG    1        2.723   3.701  -3.058  0.00  0.00    +0.030 A 
ATOM     20  C   LIG    1        3.818   3.098  -2.469  0.00  0.00    +0.060 A 
ATOM     21  C   LIG    1        3.681   1.868  -1.853  0.00  0.00    +0.030 A 
ATOM     22  C   LIG    1        2.449   1.241  -1.826  0.00  0.00    +0.030 A 
ENDBRANCH  16  17
ENDBRANCH   5  16
TORSDOF 5
