REMARK  Name = ZINCpk00000KfLSO.0
REMARK                            x       y       z     vdW  Elec       q    Type
REMARK                         _______ _______ _______ _____ _____    ______ ____
ROOT
ATOM      1  N   LIG    1       -2.060   1.157  -3.542  0.00  0.00    -0.540 NA
ATOM      2  C   LIG    1       -0.706   1.701  -3.365  0.00  0.00    +0.190 C 
ATOM      3  C   LIG    1       -0.045   1.033  -2.156  0.00  0.00    +0.180 C 
ATOM      4  N   LIG    1       -0.866   1.268  -0.960  0.00  0.00    -0.530 NA
ATOM      5  C   LIG    1       -2.220   0.724  -1.138  0.00  0.00    +0.180 C 
ATOM      6  C   LIG    1       -2.880   1.392  -2.346  0.00  0.00    +0.190 C 
ENDROOT
BRANCH   1   7
ATOM      7  C   LIG    1       -2.700   1.719  -4.739  0.00  0.00    +0.300 C 
BRANCH   7  12
ATOM      8  N   LIG    1       -4.502   0.044  -5.383  0.00  0.00    -0.440 N 
ATOM      9  C   LIG    1       -5.864  -0.030  -5.266  0.00  0.00    +0.120 A 
ATOM     10  C   LIG    1       -6.264   1.098  -4.649  0.00  0.00    +0.140 A 
ATOM     11  N   LIG    1       -5.176   1.839  -4.393  0.00  0.00    -0.490 NA
ATOM     12  C   LIG    1       -4.117   1.216  -4.833  0.00  0.00    +0.210 A 
BRANCH   8  14
ATOM     13  C   LIG    1       -3.095  -1.898  -4.905  0.00  0.00    +0.040 C 
ATOM     14  C   LIG    1       -3.626  -0.960  -5.991  0.00  0.00    +0.280 C 
ENDBRANCH   8  14
ENDBRANCH   7  12
ENDBRANCH   1   7
BRANCH   4  15
ATOM     15  C   LIG    1       -0.226   0.706   0.236  0.00  0.00    +0.160 C 
BRANCH  15  16
ATOM     16  C   LIG    1       -0.972   1.181   1.485  0.00  0.00    +0.230 C 
BRANCH  16  17
ATOM     17  O   LIG    1       -0.933   2.608   1.550  0.00  0.00    -0.530 OA
ATOM     18  H   LIG    1       -0.040   2.975   1.594  0.00  0.00    +0.370 HD
ENDBRANCH  16  17
BRANCH  16  19
ATOM     19  C   LIG    1       -0.305   0.595   2.731  0.00  0.00    +0.170 C 
BRANCH  19  20
ATOM     20  O   LIG    1       -1.069   0.942   3.888  0.00  0.00    -0.300 OA
BRANCH  20  21
ATOM     21  C   LIG    1       -0.611   0.497   5.087  0.00  0.00    +0.130 A 
ATOM     22  C   LIG    1        0.548  -0.264   5.148  0.00  0.00    -0.080 A 
ATOM     23  C   LIG    1        1.015  -0.711   6.369  0.00  0.00    +0.040 A 
ATOM     24  C   LIG    1        0.323  -0.410   7.528  0.00  0.00    -0.040 A 
ATOM     25  C   LIG    1       -0.835   0.343   7.468  0.00  0.00    +0.050 A 
ATOM     26  C   LIG    1       -1.303   0.797   6.251  0.00  0.00    -0.020 A 
ENDBRANCH  20  21
ENDBRANCH  19  20
ENDBRANCH  16  19
ENDBRANCH  15  16
ENDBRANCH   4  15
TORSDOF 9
