REMARK  Name = ZINCqH0000035JAY.0
REMARK                            x       y       z     vdW  Elec       q    Type
REMARK                         _______ _______ _______ _____ _____    ______ ____
ROOT
ATOM      1  N   LIG    1       -0.524   1.433  -3.689  0.00  0.00    -0.680 N 
ATOM      2  H   LIG    1       -1.361   1.917  -3.769  0.00  0.00    +0.410 HD
ATOM      3  C   LIG    1       -0.046   1.108  -2.471  0.00  0.00    +0.510 C 
ATOM      4  O   LIG    1        0.955   0.431  -2.373  0.00  0.00    -0.510 OA
ENDROOT
BRANCH   1   7
ATOM      5  C   LIG    1        1.593  -0.487  -6.012  0.00  0.00    +0.170 A 
ATOM      6  C   LIG    1        0.888  -0.128  -4.874  0.00  0.00    -0.090 A 
ATOM      7  C   LIG    1        0.188   1.070  -4.840  0.00  0.00    +0.220 A 
ATOM      8  C   LIG    1        0.189   1.907  -5.947  0.00  0.00    -0.120 A 
ATOM      9  C   LIG    1        0.897   1.552  -7.085  0.00  0.00    +0.170 A 
ATOM     10  C   LIG    1        1.599   0.352  -7.120  0.00  0.00    +0.010 A 
BRANCH   5  12
ATOM     11  C   LIG    1        2.228  -2.476  -4.872  0.00  0.00    +0.240 C 
ATOM     12  O   LIG    1        2.278  -1.662  -6.045  0.00  0.00    -0.300 OA
ENDBRANCH   5  12
BRANCH   9  13
ATOM     13  O   LIG    1        0.902   2.374  -8.168  0.00  0.00    -0.300 OA
ATOM     14  C   LIG    1        0.160   3.591  -8.062  0.00  0.00    +0.240 C 
ENDBRANCH   9  13
BRANCH  10  15
ATOM     15  O   LIG    1        2.290   0.000  -8.238  0.00  0.00    -0.310 OA
ATOM     16  C   LIG    1        1.587  -0.758  -9.224  0.00  0.00    +0.200 C 
ENDBRANCH  10  15
ENDBRANCH   1   7
BRANCH   3  17
ATOM     17  C   LIG    1       -0.757   1.587  -1.232  0.00  0.00    +0.070 C 
BRANCH  17  18
ATOM     18  C   LIG    1       -0.014   1.084   0.008  0.00  0.00    +0.130 C 
BRANCH  18  19
ATOM     19  C   LIG    1       -0.725   1.563   1.248  0.00  0.00    -0.170 A 
ATOM     20  C   LIG    1       -0.432   2.661   1.962  0.00  0.00    +0.230 A 
ATOM     21  N   LIG    1       -1.294   2.774   3.018  0.00  0.00    -0.600 N 
ATOM     22  H   LIG    1       -1.281   3.489   3.675  0.00  0.00    +0.420 HD
ATOM     23  C   LIG    1       -2.180   1.720   3.015  0.00  0.00    +0.090 A 
ATOM     24  C   LIG    1       -3.235   1.353   3.843  0.00  0.00    -0.010 A 
ATOM     25  C   LIG    1       -3.954   0.210   3.570  0.00  0.00    +0.030 A 
ATOM     26  C   LIG    1       -3.636  -0.581   2.475  0.00  0.00    -0.030 A 
ATOM     27  C   LIG    1       -2.604  -0.239   1.647  0.00  0.00    +0.050 A 
ATOM     28  C   LIG    1       -1.863   0.915   1.905  0.00  0.00    -0.100 A 
ENDBRANCH  18  19
ENDBRANCH  17  18
ENDBRANCH   3  17
TORSDOF 7
