REMARK  Name = ZINCkj00000hdto9.0
REMARK                            x       y       z     vdW  Elec       q    Type
REMARK                         _______ _______ _______ _____ _____    ______ ____
ROOT
ATOM      1  O   LIG    1       -0.335   7.903  -0.662  0.00  0.00    -0.520 OA
ATOM      2  C   LIG    1       -0.297   7.120  -1.588  0.00  0.00    +0.540 C 
ATOM      3  N   LIG    1       -0.216   5.796  -1.348  0.00  0.00    -0.710 N 
ATOM      4  H   LIG    1       -0.186   5.171  -2.089  0.00  0.00    +0.400 HD
ENDROOT
BRANCH   2   5
ATOM      5  C   LIG    1       -0.341   7.628  -3.006  0.00  0.00    -0.090 C 
ATOM      6  C   LIG    1       -1.533   7.074  -3.788  0.00  0.00    +0.050 C 
ATOM      7  C   LIG    1       -2.834   7.722  -3.318  0.00  0.00    +0.040 C 
ATOM      8  C   LIG    1       -2.758   9.228  -3.591  0.00  0.00    +0.020 C 
ATOM      9  C   LIG    1       -1.619   9.814  -2.757  0.00  0.00    +0.070 C 
ATOM     10  C   LIG    1        0.937   7.256  -3.819  0.00  0.00    +0.100 C 
ATOM     11  C   LIG    1        0.952   8.342  -4.929  0.00  0.00    +0.270 C 
ATOM     12  N   LIG    1        0.148   9.483  -4.444  0.00  0.00    -0.510 N 
ATOM     13  H   LIG    1        0.714  10.318  -4.428  0.00  0.00    +0.440 HD
ATOM     14  H   LIG    1       -0.649   9.621  -5.049  0.00  0.00    +0.430 HD
ATOM     15  C   LIG    1       -0.309   9.166  -3.084  0.00  0.00    +0.200 C 
ENDBRANCH   2   5
BRANCH   3  16
ATOM     16  C   LIG    1       -0.174   5.302   0.030  0.00  0.00    +0.350 C 
BRANCH  16  17
ATOM     17  C   LIG    1       -0.085   3.798   0.022  0.00  0.00    -0.160 A 
ATOM     18  C   LIG    1       -1.233   3.030   0.029  0.00  0.00    +0.270 A 
ATOM     19  N   LIG    1       -1.167   1.712   0.017  0.00  0.00    -0.460 NA
ATOM     20  C   LIG    1       -0.013   1.076   0.008  0.00  0.00    +0.260 A 
ATOM     21  C   LIG    1        1.184   1.779   0.000  0.00  0.00    +0.060 A 
ATOM     22  C   LIG    1        1.150   3.169   0.008  0.00  0.00    +0.060 A 
BRANCH  21  23
ATOM     23  O   LIG    1        2.371   1.118  -0.014  0.00  0.00    -0.490 OA
ATOM     24  H   LIG    1        2.707   0.931  -0.901  0.00  0.00    +0.400 HD
ENDBRANCH  21  23
ENDBRANCH  16  17
ENDBRANCH   3  16
TORSDOF 4
