REMARK  Name = ZINCvU0000000EIT.0
REMARK                            x       y       z     vdW  Elec       q    Type
REMARK                         _______ _______ _______ _____ _____    ______ ____
ROOT
ATOM      1  C   LIG    1       -7.292   3.851  -0.341  0.00  0.00    +0.140 A 
ATOM      2  C   LIG    1       -7.292   5.241  -0.316  0.00  0.00    +0.020 A 
ATOM      3  C   LIG    1       -6.100   5.935  -0.225  0.00  0.00    +0.040 A 
ATOM      4  C   LIG    1       -4.902   5.253  -0.153  0.00  0.00    +0.030 A 
ATOM      5  C   LIG    1       -4.891   3.857  -0.182  0.00  0.00    -0.120 A 
ATOM      6  C   LIG    1       -6.093   3.157  -0.274  0.00  0.00    +0.100 A 
ENDROOT
BRANCH   1   8
ATOM      7  C   LIG    1       -8.655   1.984   0.220  0.00  0.00    +0.550 C 
ATOM      8  N   LIG    1       -8.500   3.153  -0.433  0.00  0.00    -0.670 N 
ATOM      9  H   LIG    1       -9.227   3.511  -0.966  0.00  0.00    +0.410 HD
ATOM     10  O   LIG    1       -7.717   1.494   0.819  0.00  0.00    -0.470 OA
BRANCH   7  15
ATOM     11  C   LIG    1      -12.264   1.209  -0.488  0.00  0.00    +0.140 A 
ATOM     12  C   LIG    1      -12.417   0.005   0.186  0.00  0.00    -0.030 A 
ATOM     13  C   LIG    1      -11.351  -0.552   0.867  0.00  0.00    +0.090 A 
ATOM     14  C   LIG    1      -10.126   0.086   0.882  0.00  0.00    -0.080 A 
ATOM     15  C   LIG    1       -9.963   1.298   0.207  0.00  0.00    -0.070 A 
ATOM     16 BR   LIG    1       -8.671  -0.680   1.816  0.00  0.00    -0.000 Br
ATOM     17  C   LIG    1      -11.043   1.861  -0.476  0.00  0.00    +0.030 A 
BRANCH  11  19
ATOM     18  C   LIG    1      -14.549   1.030  -1.121  0.00  0.00    +0.250 C 
ATOM     19  O   LIG    1      -13.316   1.752  -1.155  0.00  0.00    -0.310 OA
ENDBRANCH  11  19
ENDBRANCH   7  15
ENDBRANCH   1   8
BRANCH   5  20
ATOM     20  C   LIG    1       -3.609   3.124  -0.110  0.00  0.00    +0.560 C 
ATOM     21  N   LIG    1       -2.449   3.804  -0.021  0.00  0.00    -0.670 N 
ATOM     22  H   LIG    1       -2.458   4.769   0.070  0.00  0.00    +0.410 HD
ATOM     23  O   LIG    1       -3.602   1.909  -0.131  0.00  0.00    -0.500 OA
BRANCH  21  24
ATOM     24  C   LIG    1       -1.231   3.116  -0.060  0.00  0.00    +0.150 A 
ATOM     25  C   LIG    1       -0.148   3.578   0.676  0.00  0.00    +0.030 A 
ATOM     26  C   LIG    1        1.055   2.900   0.631  0.00  0.00    +0.040 A 
ATOM     27  C   LIG    1        1.177   1.756  -0.137  0.00  0.00    +0.050 A 
ATOM     28  C   LIG    1        0.098   1.292  -0.868  0.00  0.00    -0.160 A 
ATOM     29  C   LIG    1       -1.105   1.968  -0.831  0.00  0.00    +0.080 A 
BRANCH  28  30
ATOM     30  C   LIG    1        0.236   0.046  -1.704  0.00  0.00    +0.510 C 
ATOM     31  F   LIG    1       -0.019   0.353  -3.045  0.00  0.00    -0.180 F 
ATOM     32  F   LIG    1       -0.679  -0.916  -1.263  0.00  0.00    -0.170 F 
ATOM     33  F   LIG    1        1.536  -0.457  -1.581  0.00  0.00    -0.180 F 
ENDBRANCH  28  30
ENDBRANCH  21  24
ENDBRANCH   5  20
TORSDOF 6
