REMARK  Name = ZINCrD000000CeC0.0
REMARK                            x       y       z     vdW  Elec       q    Type
REMARK                         _______ _______ _______ _____ _____    ______ ____
ROOT
ATOM      1  C   LIG    1        5.631  -4.590  -0.075  0.00  0.00    -0.070 A 
ATOM      2  C   LIG    1        6.989  -4.736  -0.089  0.00  0.00    +0.090 A 
ATOM      3  C   LIG    1        7.247  -6.115  -0.098  0.00  0.00    +0.000 A 
ATOM      4  C   LIG    1        6.050  -6.743  -0.090  0.00  0.00    +0.020 A 
ATOM      5  O   LIG    1        5.079  -5.821  -0.071  0.00  0.00    -0.150 OA
ENDROOT
BRANCH   1   7
ATOM      6  O   LIG    1        5.513  -2.266  -0.062  0.00  0.00    -0.500 OA
ATOM      7  C   LIG    1        4.902  -3.318  -0.062  0.00  0.00    +0.620 C 
ATOM      8  N   LIG    1        3.554  -3.315  -0.049  0.00  0.00    -0.620 N 
ATOM      9  H   LIG    1        3.067  -4.154  -0.049  0.00  0.00    +0.440 HD
BRANCH   8  10
ATOM     10  C   LIG    1        2.866  -2.115  -0.037  0.00  0.00    +0.500 A 
ATOM     11  N   LIG    1        1.562  -1.997  -0.024  0.00  0.00    -0.510 NA
ATOM     12  C   LIG    1        1.224  -0.681  -0.013  0.00  0.00    +0.070 A 
ATOM     13  C   LIG    1        0.002  -0.004   0.002  0.00  0.00    +0.060 A 
ATOM     14  C   LIG    1       -0.017   1.373   0.010  0.00  0.00    +0.010 A 
ATOM     15  C   LIG    1        1.169   2.093   0.002  0.00  0.00    +0.030 A 
ATOM     16  C   LIG    1        2.384   1.439  -0.013  0.00  0.00    +0.020 A 
ATOM     17  C   LIG    1        2.422   0.053  -0.021  0.00  0.00    +0.050 A 
ATOM     18  N   LIG    1        3.445  -0.879  -0.036  0.00  0.00    -0.590 N 
ATOM     19  H   LIG    1        4.396  -0.689  -0.044  0.00  0.00    +0.440 HD
ENDBRANCH   8  10
ENDBRANCH   1   7
BRANCH   4  20
ATOM     20  C   LIG    1        5.842  -8.236  -0.096  0.00  0.00    -0.210 C 
BRANCH  20  21
ATOM     21  S   LIG    1        5.774  -8.844   1.611  0.00  0.00    +2.500 S 
ATOM     22  O   LIG    1        4.596  -8.383   2.259  0.00  0.00    -0.920 OA
ATOM     23  O   LIG    1        7.046  -8.724   2.234  0.00  0.00    -0.920 OA
BRANCH  21  24
ATOM     24  C   LIG    1        5.531 -10.581   1.450  0.00  0.00    -0.660 A 
ATOM     25  C   LIG    1        4.250 -11.098   1.405  0.00  0.00    +0.120 A 
ATOM     26  C   LIG    1        4.058 -12.461   1.274  0.00  0.00    +0.000 A 
ATOM     27  C   LIG    1        5.149 -13.308   1.198  0.00  0.00    +0.070 A 
ATOM     28  C   LIG    1        6.430 -12.791   1.250  0.00  0.00    +0.000 A 
ATOM     29  C   LIG    1        6.621 -11.428   1.375  0.00  0.00    +0.120 A 
ENDBRANCH  21  24
ENDBRANCH  20  21
ENDBRANCH   4  20
TORSDOF 5
