REMARK  Name = ZINCrD000006fiw3.0
REMARK                            x       y       z     vdW  Elec       q    Type
REMARK                         _______ _______ _______ _____ _____    ______ ____
ROOT
ATOM      1  C   LIG    1        4.984   6.508   1.997  0.00  0.00    +0.540 C 
ATOM      2  N   LIG    1        4.431   5.640   1.127  0.00  0.00    -0.610 N 
ATOM      3  C   LIG    1        3.682   6.125  -0.041  0.00  0.00    +0.270 C 
ATOM      4  C   LIG    1        2.297   5.471  -0.044  0.00  0.00    +0.040 C 
ATOM      5  C   LIG    1        2.454   3.950   0.015  0.00  0.00    -0.030 C 
ATOM      6  C   LIG    1        3.170   3.559   1.310  0.00  0.00    +0.060 C 
ATOM      7  C   LIG    1        4.565   4.191   1.329  0.00  0.00    +0.290 C 
ATOM      8  O   LIG    1        5.677   6.098   2.908  0.00  0.00    -0.540 OA
ENDROOT
BRANCH   5   9
ATOM      9  C   LIG    1        3.265   3.483  -1.167  0.00  0.00    +0.540 C 
ATOM     10  N   LIG    1        2.816   3.696  -2.419  0.00  0.00    -0.600 N 
ATOM     11  C   LIG    1        3.541   3.164  -3.582  0.00  0.00    +0.300 C 
ATOM     12  C   LIG    1        2.646   2.125  -4.276  0.00  0.00    +0.110 C 
ATOM     13  C   LIG    1        1.246   2.685  -4.402  0.00  0.00    -0.170 A 
ATOM     14  C   LIG    1        0.758   3.720  -3.692  0.00  0.00    -0.120 A 
ATOM     15  C   LIG    1       -0.564   4.033  -3.990  0.00  0.00    +0.020 A 
ATOM     16  C   LIG    1       -1.138   3.277  -4.921  0.00  0.00    -0.040 A 
ATOM     17  S   LIG    1        0.009   2.077  -5.496  0.00  0.00    +0.100 S 
ATOM     18  C   LIG    1        1.590   4.471  -2.659  0.00  0.00    +0.350 C 
ATOM     19  O   LIG    1        4.323   2.916  -0.990  0.00  0.00    -0.530 OA
ENDBRANCH   5   9
BRANCH   5  20
ATOM     20  C   LIG    1        1.094   3.302  -0.023  0.00  0.00    -0.080 A 
ATOM     21  C   LIG    1        0.986   1.929  -0.135  0.00  0.00    +0.010 A 
ATOM     22  C   LIG    1       -0.262   1.335  -0.168  0.00  0.00    +0.010 A 
ATOM     23  C   LIG    1       -1.401   2.115  -0.095  0.00  0.00    +0.010 A 
ATOM     24  C   LIG    1       -1.292   3.488   0.021  0.00  0.00    +0.010 A 
ATOM     25  C   LIG    1       -0.045   4.082   0.056  0.00  0.00    +0.010 A 
ENDBRANCH   5  20
BRANCH   1  27
ATOM     26  C   LIG    1        5.207   8.801   2.760  0.00  0.00    +0.140 C 
ATOM     27  C   LIG    1        4.750   7.953   1.844  0.00  0.00    -0.090 C 
ENDBRANCH   1  27
TORSDOF 3
