REMARK  Name = ZINCrg00000IX0wC.0
REMARK                            x       y       z     vdW  Elec       q    Type
REMARK                         _______ _______ _______ _____ _____    ______ ____
ROOT
ATOM      1  C   LIG    1       -3.154   2.389   1.516  0.00  0.00    +0.580 C 
ATOM      2  N   LIG    1       -2.142   1.950   0.741  0.00  0.00    -0.610 N 
ATOM      3  C   LIG    1       -0.753   1.733   1.185  0.00  0.00    +0.260 C 
ATOM      4  C   LIG    1        0.046   1.257  -0.047  0.00  0.00    +0.060 C 
ATOM      5  C   LIG    1       -0.803   1.774  -1.238  0.00  0.00    +0.130 C 
ATOM      6  C   LIG    1       -2.242   1.608  -0.690  0.00  0.00    +0.280 C 
ATOM      7  O   LIG    1       -4.283   2.442   1.070  0.00  0.00    -0.530 OA
ENDROOT
BRANCH   1  10
ATOM      8  C   LIG    1       -3.640   3.804   4.965  0.00  0.00    +0.120 A 
ATOM      9  C   LIG    1       -3.895   3.417   3.661  0.00  0.00    -0.010 A 
ATOM     10  C   LIG    1       -2.890   2.806   2.910  0.00  0.00    -0.100 A 
ATOM     11  C   LIG    1       -1.635   2.585   3.481  0.00  0.00    +0.000 A 
ATOM     12  C   LIG    1       -1.391   2.981   4.781  0.00  0.00    +0.050 A 
ATOM     13  C   LIG    1       -2.388   3.586   5.523  0.00  0.00    -0.090 A 
ATOM     14  C   LIG    1       -2.114   4.010   6.943  0.00  0.00    +0.100 C 
BRANCH   8  16
ATOM     15  C   LIG    1       -5.881   4.593   5.062  0.00  0.00    +0.240 C 
ATOM     16  O   LIG    1       -4.617   4.399   5.700  0.00  0.00    -0.310 OA
ENDBRANCH   8  16
ENDBRANCH   1  10
BRANCH   5  17
ATOM     17  N   LIG    1       -0.596   0.944  -2.432  0.00  0.00    -0.520 NA
ATOM     18  C   LIG    1       -1.487   1.359  -3.523  0.00  0.00    +0.190 C 
BRANCH  17  19
ATOM     19  C   LIG    1        0.809   0.977  -2.859  0.00  0.00    +0.260 C 
BRANCH  19  20
ATOM     20  C   LIG    1        1.036  -0.065  -3.924  0.00  0.00    +0.240 A 
ATOM     21  C   LIG    1        1.372   0.317  -5.190  0.00  0.00    -0.200 A 
ATOM     22  C   LIG    1        1.579  -0.675  -6.166  0.00  0.00    +0.540 A 
ATOM     23  N   LIG    1        1.437  -1.971  -5.815  0.00  0.00    -0.650 N 
ATOM     24  H   LIG    1        1.574  -2.671  -6.472  0.00  0.00    +0.410 HD
ATOM     25  C   LIG    1        1.100  -2.291  -4.536  0.00  0.00    +0.640 A 
ATOM     26  O   LIG    1        1.880  -0.369  -7.308  0.00  0.00    -0.540 OA
ATOM     27  N   LIG    1        0.913  -1.357  -3.626  0.00  0.00    -0.570 NA
BRANCH  25  28
ATOM     28  N   LIG    1        0.958  -3.607  -4.188  0.00  0.00    -0.820 N 
ATOM     29  H   LIG    1        0.718  -3.845  -3.279  0.00  0.00    +0.430 HD
ATOM     30  H   LIG    1        1.097  -4.302  -4.851  0.00  0.00    +0.410 HD
ENDBRANCH  25  28
ENDBRANCH  19  20
ENDBRANCH  17  19
ENDBRANCH   5  17
TORSDOF 6
