REMARK  Name = ZINCpe00000c2qcJ.0
REMARK                            x       y       z     vdW  Elec       q    Type
REMARK                         _______ _______ _______ _____ _____    ______ ____
ROOT
ATOM      1  C   LIG    1        4.243   8.829   1.858  0.00  0.00    +0.600 C 
ATOM      2  N   LIG    1        4.210   7.505   1.608  0.00  0.00    -0.610 N 
ATOM      3  C   LIG    1        3.519   6.587   2.524  0.00  0.00    +0.260 C 
ATOM      4  C   LIG    1        4.489   5.476   2.934  0.00  0.00    +0.020 C 
ATOM      5  C   LIG    1        5.052   4.806   1.679  0.00  0.00    -0.010 C 
ATOM      6  C   LIG    1        5.821   5.836   0.849  0.00  0.00    -0.020 C 
ATOM      7  C   LIG    1        6.410   5.158  -0.389  0.00  0.00    +0.030 C 
ATOM      8  C   LIG    1        4.865   6.952   0.415  0.00  0.00    +0.290 C 
ATOM      9  O   LIG    1        4.904   9.565   1.150  0.00  0.00    -0.530 OA
ENDROOT
BRANCH   1  16
ATOM     10  C   LIG    1        5.236  11.110   3.829  0.00  0.00    +0.170 C 
ATOM     11  C   LIG    1        3.908  10.399   3.874  0.00  0.00    +0.130 A 
ATOM     12  N   LIG    1        2.953  10.614   4.736  0.00  0.00    -0.290 NA
ATOM     13  N   LIG    1        1.882   9.760   4.448  0.00  0.00    -0.460 N 
ATOM     14  H   LIG    1        1.046   9.715   4.937  0.00  0.00    +0.450 HD
ATOM     15  C   LIG    1        2.206   9.016   3.378  0.00  0.00    +0.290 A 
ATOM     16  C   LIG    1        3.478   9.385   2.989  0.00  0.00    -0.290 A 
ENDBRANCH   1  16
BRANCH   5  17
ATOM     17  C   LIG    1        5.995   3.672   2.085  0.00  0.00    +0.260 C 
BRANCH  17  18
ATOM     18  N   LIG    1        5.235   2.627   2.776  0.00  0.00    -0.730 N 
ATOM     19  H   LIG    1        4.279   2.730   2.907  0.00  0.00    +0.400 HD
ATOM     20  C   LIG    1        5.863   1.524   3.228  0.00  0.00    +0.510 C 
ATOM     21  O   LIG    1        7.058   1.396   3.063  0.00  0.00    -0.530 OA
BRANCH  20  22
ATOM     22  C   LIG    1        5.081   0.449   3.938  0.00  0.00    +0.140 C 
BRANCH  22  23
ATOM     23  C   LIG    1        6.010  -0.667   4.338  0.00  0.00    -0.230 A 
ATOM     24  C   LIG    1        6.687  -0.760   5.506  0.00  0.00    +0.240 A 
ATOM     25  N   LIG    1        7.405  -1.902   5.476  0.00  0.00    -0.480 N 
ATOM     26  H   LIG    1        7.987  -2.228   6.180  0.00  0.00    +0.440 HD
ATOM     27  N   LIG    1        7.162  -2.532   4.249  0.00  0.00    -0.290 NA
ATOM     28  C   LIG    1        6.322  -1.794   3.570  0.00  0.00    +0.250 A 
ENDBRANCH  22  23
ENDBRANCH  20  22
ENDBRANCH  17  18
ENDBRANCH   5  17
TORSDOF 5
