REMARK  Name = ZINCpk00000ebHju.0
REMARK                            x       y       z     vdW  Elec       q    Type
REMARK                         _______ _______ _______ _____ _____    ______ ____
ROOT
ATOM      1  O   LIG    1       -2.466   2.735  -5.764  0.00  0.00    -0.490 OA
ATOM      2  C   LIG    1       -1.464   2.061  -5.902  0.00  0.00    +0.510 C 
ENDROOT
BRANCH   2   3
ATOM      3  C   LIG    1       -0.976   1.733  -7.257  0.00  0.00    -0.120 A 
ATOM      4  C   LIG    1        0.178   0.964  -7.419  0.00  0.00    +0.090 A 
ATOM      5  C   LIG    1        0.626   0.656  -8.687  0.00  0.00    +0.030 A 
ATOM      6  C   LIG    1       -0.060   1.117  -9.797  0.00  0.00    -0.060 A 
ATOM      7  C   LIG    1       -1.201   1.884  -9.644  0.00  0.00    +0.030 A 
ATOM      8  C   LIG    1       -1.663   2.195  -8.381  0.00  0.00    +0.090 A 
BRANCH   6   9
ATOM      9  C   LIG    1        0.439   0.782 -11.179  0.00  0.00    +0.240 C 
BRANCH   9  10
ATOM     10  O   LIG    1        1.348   1.794 -11.616  0.00  0.00    -0.370 OA
BRANCH  10  11
ATOM     11  C   LIG    1        1.883   1.571 -12.922  0.00  0.00    +0.220 C 
BRANCH  11  12
ATOM     12  C   LIG    1        2.838   2.710 -13.283  0.00  0.00    +0.460 C 
ATOM     13  F   LIG    1        2.144   3.925 -13.264  0.00  0.00    -0.170 F 
ATOM     14  F   LIG    1        3.361   2.492 -14.562  0.00  0.00    -0.180 F 
ATOM     15  F   LIG    1        3.883   2.755 -12.354  0.00  0.00    -0.170 F 
ENDBRANCH  11  12
ENDBRANCH  10  11
ENDBRANCH   9  10
ENDBRANCH   6   9
ENDBRANCH   2   3
BRANCH   2  16
ATOM     16  O   LIG    1       -0.799   1.614  -4.819  0.00  0.00    -0.340 OA
BRANCH  16  17
ATOM     17  C   LIG    1       -1.337   1.976  -3.520  0.00  0.00    +0.300 C 
BRANCH  17  18
ATOM     18  C   LIG    1       -0.467   1.391  -2.437  0.00  0.00    +0.550 C 
ATOM     19  N   LIG    1       -0.775   1.598  -1.141  0.00  0.00    -0.580 N 
ATOM     20  C   LIG    1       -0.013   1.086   0.008  0.00  0.00    +0.280 C 
ATOM     21  C   LIG    1       -0.788   1.609   1.233  0.00  0.00    +0.290 C 
ATOM     22  N   LIG    1       -1.909   2.361   0.641  0.00  0.00    -0.720 N 
ATOM     23  H   LIG    1       -2.599   2.825   1.139  0.00  0.00    +0.440 HD
ATOM     24  C   LIG    1       -1.823   2.303  -0.695  0.00  0.00    +0.700 C 
ATOM     25  O   LIG    1       -2.623   2.841  -1.435  0.00  0.00    -0.550 OA
ATOM     26  O   LIG    1        0.509   0.735  -2.731  0.00  0.00    -0.470 OA
ENDBRANCH  17  18
ENDBRANCH  16  17
ENDBRANCH   2  16
TORSDOF 8
