REMARK  Name = ZINCqH0000002aI6.1
REMARK                            x       y       z     vdW  Elec       q    Type
REMARK                         _______ _______ _______ _____ _____    ______ ____
ROOT
ATOM      1  C   LIG    1       -1.152   7.621  -3.558  0.00  0.00    +0.560 C 
ATOM      2  N   LIG    1       -0.812   7.433  -2.267  0.00  0.00    -0.720 N 
ATOM      3  H   LIG    1       -0.697   8.196  -1.680  0.00  0.00    +0.410 HD
ATOM      4  O   LIG    1       -1.296   6.665  -4.294  0.00  0.00    -0.530 OA
ENDROOT
BRANCH   1   9
ATOM      5  C   LIG    1       -1.884  10.476  -5.893  0.00  0.00    +0.140 A 
ATOM      6  C   LIG    1       -1.718  11.565  -5.045  0.00  0.00    +0.010 A 
ATOM      7  C   LIG    1       -1.370  11.369  -3.722  0.00  0.00    +0.040 A 
ATOM      8  C   LIG    1       -1.190  10.091  -3.233  0.00  0.00    +0.030 A 
ATOM      9  C   LIG    1       -1.349   8.991  -4.078  0.00  0.00    -0.120 A 
ATOM     10  C   LIG    1       -1.701   9.189  -5.413  0.00  0.00    +0.090 A 
BRANCH   5  12
ATOM     11  C   LIG    1       -3.014   9.782  -7.869  0.00  0.00    +0.510 C 
ATOM     12  N   LIG    1       -2.236  10.680  -7.232  0.00  0.00    -0.680 N 
ATOM     13  H   LIG    1       -1.921  11.467  -7.703  0.00  0.00    +0.410 HD
ATOM     14  O   LIG    1       -3.490   8.849  -7.256  0.00  0.00    -0.510 OA
BRANCH  11  16
ATOM     15  C   LIG    1       -4.196   8.794  -9.812  0.00  0.00    +0.050 C 
ATOM     16  C   LIG    1       -3.294   9.937  -9.341  0.00  0.00    +0.060 C 
ENDBRANCH  11  16
ENDBRANCH   5  12
ENDBRANCH   1   9
BRANCH   2  17
ATOM     17  C   LIG    1       -0.617   6.076  -1.752  0.00  0.00    +0.280 C 
BRANCH  17  18
ATOM     18  C   LIG    1       -0.361   6.134  -0.245  0.00  0.00    +0.210 C 
BRANCH  18  19
ATOM     19  C   LIG    1       -0.236   4.734   0.299  0.00  0.00    -0.110 A 
ATOM     20  C   LIG    1        1.002   4.247   0.675  0.00  0.00    +0.050 A 
ATOM     21  C   LIG    1        1.117   2.963   1.173  0.00  0.00    +0.030 A 
ATOM     22  C   LIG    1       -0.007   2.165   1.296  0.00  0.00    -0.030 A 
ATOM     23  C   LIG    1       -1.244   2.651   0.913  0.00  0.00    +0.020 A 
ATOM     24 CL   LIG    1        0.137   0.553   1.922  0.00  0.00    -0.070 Cl
ATOM     25  C   LIG    1       -1.359   3.938   0.421  0.00  0.00    +0.040 A 
ENDBRANCH  18  19
BRANCH  18  26
ATOM     26  N   LIG    1       -1.481   6.818   0.416  0.00  0.00    -0.530 NA
ATOM     27  C   LIG    1       -1.614   6.381   1.813  0.00  0.00    +0.190 C 
ATOM     28  C   LIG    1       -2.734   6.610  -0.322  0.00  0.00    +0.190 C 
ENDBRANCH  18  26
ENDBRANCH  17  18
ENDBRANCH   2  17
TORSDOF 7
