REMARK  Name = ZINCrH000004sTgk.0
REMARK                            x       y       z     vdW  Elec       q    Type
REMARK                         _______ _______ _______ _____ _____    ______ ____
ROOT
ATOM      1  C   LIG    1       -2.928   0.989   1.146  0.00  0.00    +0.610 C 
ATOM      2  N   LIG    1       -2.822   1.144   2.481  0.00  0.00    -0.710 N 
ATOM      3  H   LIG    1       -2.520   0.406   3.033  0.00  0.00    +0.400 HD
ATOM      4  O   LIG    1       -3.307   1.915   0.455  0.00  0.00    -0.510 OA
ENDROOT
BRANCH   1   7
ATOM      5  C   LIG    1       -4.869  -1.485   0.598  0.00  0.00    +0.210 C 
ATOM      6  C   LIG    1       -3.400  -1.377   0.280  0.00  0.00    +0.020 A 
ATOM      7  C   LIG    1       -2.584  -0.302   0.525  0.00  0.00    -0.220 A 
ATOM      8  C   LIG    1       -1.276  -0.757   0.010  0.00  0.00    +0.100 A 
ATOM      9  N   LIG    1       -1.488  -1.970  -0.433  0.00  0.00    -0.330 NA
ATOM     10  O   LIG    1       -2.636  -2.312  -0.290  0.00  0.00    +0.110 OA
BRANCH   8  11
ATOM     11  C   LIG    1        0.002  -0.004   0.002  0.00  0.00    +0.180 A 
ATOM     12  C   LIG    1        1.211  -0.696  -0.013  0.00  0.00    +0.000 A 
ATOM     13  C   LIG    1        2.396   0.021  -0.021  0.00  0.00    +0.070 A 
ATOM     14  C   LIG    1        2.332   1.406  -0.013  0.00  0.00    -0.020 A 
ATOM     15  C   LIG    1        1.096   2.028   0.003  0.00  0.00    +0.270 A 
ATOM     16  N   LIG    1       -0.016   1.323   0.009  0.00  0.00    -0.450 NA
ENDBRANCH   8  11
ENDBRANCH   1   7
BRANCH   2  17
ATOM     17  C   LIG    1       -3.164   2.428   3.098  0.00  0.00    +0.250 C 
ATOM     18  C   LIG    1       -1.934   3.358   3.116  0.00  0.00    +0.030 C 
ATOM     19  C   LIG    1       -1.666   3.641   4.609  0.00  0.00    +0.190 C 
ATOM     20  N   LIG    1       -2.275   2.490   5.324  0.00  0.00    -0.460 N 
ATOM     21  C   LIG    1       -3.538   2.226   4.582  0.00  0.00    +0.200 C 
BRANCH  20  22
ATOM     22  C   LIG    1       -2.536   2.810   6.658  0.00  0.00    +0.110 A 
ATOM     23  C   LIG    1       -1.496   3.187   7.499  0.00  0.00    +0.000 A 
ATOM     24  C   LIG    1       -1.757   3.502   8.818  0.00  0.00    +0.060 A 
ATOM     25  C   LIG    1       -3.050   3.443   9.303  0.00  0.00    +0.000 A 
ATOM     26  C   LIG    1       -4.089   3.068   8.468  0.00  0.00    -0.010 A 
ATOM     27 CL   LIG    1       -5.711   2.996   9.080  0.00  0.00    -0.070 Cl
ATOM     28  C   LIG    1       -3.835   2.757   7.145  0.00  0.00    -0.020 A 
ENDBRANCH  20  22
ENDBRANCH   2  17
TORSDOF 4
