REMARK  Name = ZINCpe00000Raxlh.0
REMARK                            x       y       z     vdW  Elec       q    Type
REMARK                         _______ _______ _______ _____ _____    ______ ____
ROOT
ATOM      1  C   LIG    1       -2.281   0.534  -1.346  0.00  0.00    +0.270 C 
ATOM      2  C   LIG    1       -2.872   1.319  -0.170  0.00  0.00    +0.300 C 
ATOM      3  N   LIG    1       -2.133   0.955   1.050  0.00  0.00    -0.610 N 
ATOM      4  C   LIG    1       -0.662   1.014   1.013  0.00  0.00    +0.260 C 
ATOM      5  C   LIG    1       -0.180   0.243  -0.222  0.00  0.00    +0.240 C 
ATOM      6  C   LIG    1       -2.784   0.577   2.168  0.00  0.00    +0.570 C 
ATOM      7  O   LIG    1       -3.999   0.601   2.202  0.00  0.00    -0.510 OA
ATOM      8  O   LIG    1       -0.865   0.729  -1.379  0.00  0.00    -0.380 OA
ENDROOT
BRANCH   6   9
ATOM      9  C   LIG    1       -2.020   0.135   3.353  0.00  0.00    -0.150 A 
ATOM     10  C   LIG    1       -0.952   0.911   3.825  0.00  0.00    +0.100 A 
ATOM     11  C   LIG    1       -0.240   0.514   4.917  0.00  0.00    +0.020 A 
ATOM     12  C   LIG    1       -0.568  -0.670   5.574  0.00  0.00    +0.100 A 
ATOM     13  C   LIG    1       -1.637  -1.461   5.115  0.00  0.00    -0.020 A 
ATOM     14  N   LIG    1       -1.729  -2.538   5.931  0.00  0.00    -0.210 NA
ATOM     15  N   LIG    1       -0.822  -2.482   6.842  0.00  0.00    +0.000 NA
ATOM     16  N   LIG    1       -0.055  -1.321   6.668  0.00  0.00    -0.390 N 
ATOM     17  C   LIG    1        1.074  -0.887   7.495  0.00  0.00    +0.380 C 
ATOM     18  C   LIG    1       -2.367  -1.046   3.998  0.00  0.00    +0.180 A 
ENDBRANCH   6   9
BRANCH   1  22
ATOM     19  C   LIG    1       -3.153   1.816  -4.633  0.00  0.00    +0.190 A 
ATOM     20  N   LIG    1       -4.318   1.558  -4.103  0.00  0.00    -0.280 NA
ATOM     21  N   LIG    1       -4.160   1.089  -2.917  0.00  0.00    -0.270 NA
ATOM     22  C   LIG    1       -2.887   1.026  -2.635  0.00  0.00    +0.180 A 
ATOM     23  N   LIG    1       -2.212   1.490  -3.714  0.00  0.00    -0.560 N 
ATOM     24  H   LIG    1       -1.250   1.571  -3.810  0.00  0.00    +0.430 HD
BRANCH  19  26
ATOM     25  C   LIG    1       -3.588   1.495  -7.053  0.00  0.00    +0.050 C 
ATOM     26  C   LIG    1       -2.901   2.377  -6.008  0.00  0.00    +0.140 C 
ENDBRANCH  19  26
ENDBRANCH   1  22
TORSDOF 3
