REMARK  Name = ZINCpe00000Raxlh.1
REMARK                            x       y       z     vdW  Elec       q    Type
REMARK                         _______ _______ _______ _____ _____    ______ ____
ROOT
ATOM      1  C   LIG    1        0.073   5.424  -0.503  0.00  0.00    +0.280 C 
ATOM      2  C   LIG    1        1.356   5.046  -1.252  0.00  0.00    +0.290 C 
ATOM      3  N   LIG    1        2.319   6.149  -1.109  0.00  0.00    -0.610 N 
ATOM      4  C   LIG    1        2.585   6.664   0.243  0.00  0.00    +0.260 C 
ATOM      5  C   LIG    1        1.242   6.964   0.919  0.00  0.00    +0.230 C 
ATOM      6  C   LIG    1        2.940   6.672  -2.185  0.00  0.00    +0.570 C 
ATOM      7  O   LIG    1        2.760   6.187  -3.286  0.00  0.00    -0.520 OA
ATOM      8  O   LIG    1        0.404   5.809   0.833  0.00  0.00    -0.360 OA
ENDROOT
BRANCH   6   9
ATOM      9  C   LIG    1        3.839   7.833  -2.028  0.00  0.00    -0.150 A 
ATOM     10  C   LIG    1        4.832   7.818  -1.037  0.00  0.00    +0.100 A 
ATOM     11  C   LIG    1        5.671   8.881  -0.885  0.00  0.00    +0.020 A 
ATOM     12  C   LIG    1        5.542   9.998  -1.707  0.00  0.00    +0.100 A 
ATOM     13  C   LIG    1        4.548  10.033  -2.702  0.00  0.00    -0.020 A 
ATOM     14  N   LIG    1        4.651  11.223  -3.342  0.00  0.00    -0.210 NA
ATOM     15  N   LIG    1        5.609  11.916  -2.835  0.00  0.00    +0.000 NA
ATOM     16  N   LIG    1        6.211  11.193  -1.796  0.00  0.00    -0.400 N 
ATOM     17  C   LIG    1        7.337  11.629  -0.965  0.00  0.00    +0.380 C 
ATOM     18  C   LIG    1        3.694   8.938  -2.857  0.00  0.00    +0.180 A 
ENDBRANCH   6   9
BRANCH   1  21
ATOM     19  C   LIG    1       -2.531   2.954  -0.939  0.00  0.00    +0.290 A 
ATOM     20  N   LIG    1       -1.957   4.098  -1.210  0.00  0.00    -0.530 NA
ATOM     21  C   LIG    1       -0.859   4.240  -0.470  0.00  0.00    +0.230 A 
ATOM     22  N   LIG    1       -0.720   3.185   0.290  0.00  0.00    -0.280 NA
ATOM     23  N   LIG    1       -1.800   2.335   0.004  0.00  0.00    -0.480 N 
ATOM     24  H   LIG    1       -1.980   1.470   0.405  0.00  0.00    +0.440 HD
BRANCH  19  26
ATOM     25  C   LIG    1       -4.992   2.781  -0.689  0.00  0.00    +0.050 C 
ATOM     26  C   LIG    1       -3.793   2.425  -1.570  0.00  0.00    +0.150 C 
ENDBRANCH  19  26
ENDBRANCH   1  21
TORSDOF 3
