REMARK  Name = ZINCvU0000000Iz6.0
REMARK                            x       y       z     vdW  Elec       q    Type
REMARK                         _______ _______ _______ _____ _____    ______ ____
ROOT
ATOM      1  C   LIG    1       -8.344  -1.720   0.022  0.00  0.00    +0.150 A 
ATOM      2  C   LIG    1       -9.313  -0.741   0.207  0.00  0.00    +0.000 A 
ATOM      3  C   LIG    1       -8.961   0.597   0.208  0.00  0.00    +0.030 A 
ATOM      4  C   LIG    1       -7.645   0.969   0.028  0.00  0.00    +0.020 A 
ATOM      5  C   LIG    1       -6.662  -0.008  -0.158  0.00  0.00    -0.060 A 
ATOM      6  C   LIG    1       -7.019  -1.358  -0.165  0.00  0.00    +0.050 A 
ENDROOT
BRANCH   1   8
ATOM      7  C   LIG    1       -7.855  -3.998   0.505  0.00  0.00    +0.570 C 
ATOM      8  N   LIG    1       -8.706  -3.071   0.021  0.00  0.00    -0.670 N 
ATOM      9  H   LIG    1       -9.570  -3.341  -0.328  0.00  0.00    +0.410 HD
ATOM     10  O   LIG    1       -6.814  -3.652   1.030  0.00  0.00    -0.520 OA
BRANCH   7  14
ATOM     11  C   LIG    1       -8.810  -8.124   0.197  0.00  0.00    +0.160 A 
ATOM     12  C   LIG    1       -7.619  -7.731   0.797  0.00  0.00    -0.020 A 
ATOM     13  C   LIG    1       -7.306  -6.394   0.899  0.00  0.00    +0.140 A 
ATOM     14  C   LIG    1       -8.187  -5.431   0.398  0.00  0.00    -0.180 A 
ATOM     15  C   LIG    1       -9.385  -5.831  -0.200  0.00  0.00    +0.090 A 
ATOM     16  C   LIG    1       -9.689  -7.170  -0.302  0.00  0.00    -0.080 A 
BRANCH  11  18
ATOM     17  C   LIG    1      -10.355  -9.777  -0.528  0.00  0.00    +0.250 C 
ATOM     18  O   LIG    1       -9.115  -9.442   0.099  0.00  0.00    -0.310 OA
ENDBRANCH  11  18
ENDBRANCH   7  14
ENDBRANCH   1   8
BRANCH   5  19
ATOM     19  C   LIG    1       -5.256   0.386  -0.351  0.00  0.00    +0.140 C 
ATOM     20  C   LIG    1       -4.915   1.688  -0.349  0.00  0.00    +0.010 C 
BRANCH  20  21
ATOM     21  C   LIG    1       -3.515   2.081  -0.542  0.00  0.00    +0.180 A 
ATOM     22  N   LIG    1       -2.534   1.256  -0.721  0.00  0.00    -0.480 NA
ATOM     23  C   LIG    1       -1.308   1.765  -0.883  0.00  0.00    +0.150 A 
ATOM     24  C   LIG    1       -0.088   1.083  -1.092  0.00  0.00    +0.100 A 
ATOM     25  C   LIG    1        1.074   1.776  -1.244  0.00  0.00    +0.120 A 
ATOM     26  C   LIG    1        1.088   3.162  -1.190  0.00  0.00    -0.040 A 
ATOM     27  C   LIG    1       -0.084   3.855  -0.983  0.00  0.00    +0.170 A 
ATOM     28  C   LIG    1       -1.284   3.165  -0.825  0.00  0.00    -0.210 A 
ATOM     29  S   LIG    1       -2.927   3.738  -0.548  0.00  0.00    +0.120 S 
BRANCH  26  30
ATOM     30  N   LIG    1        2.362   3.897  -1.358  0.00  0.00    +0.030 N 
ATOM     31  O   LIG    1        2.374   5.114  -1.311  0.00  0.00    -0.160 OA
ATOM     32  O   LIG    1        3.398   3.284  -1.542  0.00  0.00    -0.150 OA
ENDBRANCH  26  30
ENDBRANCH  20  21
ENDBRANCH   5  19
TORSDOF 6
