REMARK  Name = ZINCvU0000000EfR.0
REMARK                            x       y       z     vdW  Elec       q    Type
REMARK                         _______ _______ _______ _____ _____    ______ ____
ROOT
ATOM      1  C   LIG    1       -1.220   2.232   0.019  0.00  0.00    +0.380 C 
ATOM      2  C   LIG    1       -0.724   3.641   0.026  0.00  0.00    -0.230 A 
ATOM      3  C   LIG    1        0.642   3.602   0.015  0.00  0.00    +0.090 A 
ATOM      4  C   LIG    1        1.064   2.191   0.004  0.00  0.00    +0.570 C 
ATOM      5  O   LIG    1        2.217   1.809  -0.010  0.00  0.00    -0.450 OA
ATOM      6  O   LIG    1        1.402   4.715   0.020  0.00  0.00    -0.170 OA
ATOM      7  C   LIG    1        0.826   5.919  -0.202  0.00  0.00    +0.160 A 
ATOM      8  C   LIG    1        1.641   7.025  -0.440  0.00  0.00    +0.030 A 
ATOM      9  C   LIG    1        1.081   8.263  -0.662  0.00  0.00    +0.130 A 
ATOM     10  C   LIG    1       -0.296   8.433  -0.653  0.00  0.00    -0.120 A 
ATOM     11  C   LIG    1       -1.123   7.354  -0.422  0.00  0.00    +0.160 A 
ATOM     12 BR   LIG    1       -1.039  10.145  -0.956  0.00  0.00    -0.020 Br
ATOM     13  C   LIG    1       -0.568   6.095  -0.201  0.00  0.00    -0.210 A 
ATOM     14  C   LIG    1       -1.443   4.919   0.034  0.00  0.00    +0.460 A 
ATOM     15  O   LIG    1       -2.644   5.007   0.216  0.00  0.00    -0.410 OA
ATOM     16  N   LIG    1       -0.017   1.384   0.010  0.00  0.00    -0.500 N 
ENDROOT
BRANCH   1  21
ATOM     17  C   LIG    1       -4.163   1.701   2.328  0.00  0.00    +0.140 A 
ATOM     18  C   LIG    1       -3.525   1.473   3.538  0.00  0.00    -0.070 A 
ATOM     19  C   LIG    1       -2.146   1.491   3.605  0.00  0.00    +0.050 A 
ATOM     20  C   LIG    1       -1.401   1.732   2.465  0.00  0.00    -0.030 A 
ATOM     21  C   LIG    1       -2.034   1.965   1.258  0.00  0.00    -0.050 A 
ATOM     22  C   LIG    1       -3.414   1.948   1.187  0.00  0.00    +0.020 A 
BRANCH  17  23
ATOM     23  O   LIG    1       -5.521   1.684   2.260  0.00  0.00    -0.310 OA
BRANCH  23  24
ATOM     24  C   LIG    1       -6.228   1.423   3.474  0.00  0.00    +0.180 C 
BRANCH  24  26
ATOM     25  C   LIG    1       -8.490   1.165   4.503  0.00  0.00    +0.040 C 
ATOM     26  C   LIG    1       -7.733   1.444   3.203  0.00  0.00    +0.020 C 
ENDBRANCH  24  26
ENDBRANCH  23  24
ENDBRANCH  17  23
ENDBRANCH   1  21
BRANCH  16  27
ATOM     27  C   LIG    1        0.002  -0.004   0.002  0.00  0.00    +0.270 A 
ATOM     28  N   LIG    1       -1.051  -0.761   0.013  0.00  0.00    -0.490 NA
ATOM     29  C   LIG    1       -0.849  -2.065   0.000  0.00  0.00    +0.250 A 
ATOM     30  C   LIG    1        0.436  -2.428  -0.014  0.00  0.00    -0.100 A 
ATOM     31  S   LIG    1        1.417  -0.964  -0.016  0.00  0.00    +0.210 S 
ENDBRANCH  16  27
TORSDOF 5
