REMARK  Name = ZINCtV000002LuZU.0
REMARK                            x       y       z     vdW  Elec       q    Type
REMARK                         _______ _______ _______ _____ _____    ______ ____
ROOT
ATOM      1  C   LIG    1        1.226  -2.187  -0.021  0.00  0.00    +0.220 C 
ENDROOT
BRANCH   1   6
ATOM      2  F   LIG    1        1.155   3.437   0.009  0.00  0.00    -0.130 F 
ATOM      3  C   LIG    1        1.173   2.086   0.002  0.00  0.00    +0.110 A 
ATOM      4  C   LIG    1       -0.017   1.378   0.010  0.00  0.00    -0.010 A 
ATOM      5  C   LIG    1        0.002  -0.004   0.002  0.00  0.00    +0.060 A 
ATOM      6  C   LIG    1        1.208  -0.680  -0.013  0.00  0.00    -0.090 A 
ATOM      7  C   LIG    1        2.397   0.025  -0.021  0.00  0.00    +0.130 A 
ATOM      8  C   LIG    1        2.381   1.408  -0.014  0.00  0.00    -0.080 A 
ATOM      9 CL   LIG    1        3.874   2.294  -0.023  0.00  0.00    -0.050 Cl
ENDBRANCH   1   6
BRANCH   1  10
ATOM     10  N   LIG    1        2.284  -2.659  -0.924  0.00  0.00    -0.670 NA
ATOM     11  H   LIG    1        2.642  -3.554  -0.626  0.00  0.00    +0.350 HD
BRANCH  10  12
ATOM     12  C   LIG    1        1.804  -2.720  -2.311  0.00  0.00    +0.290 C 
BRANCH  12  13
ATOM     13  C   LIG    1        2.915  -3.207  -3.206  0.00  0.00    +0.020 A 
ATOM     14  N   LIG    1        3.854  -2.482  -3.747  0.00  0.00    -0.340 NA
ATOM     15  O   LIG    1        4.609  -3.146  -4.418  0.00  0.00    +0.120 OA
ATOM     16  C   LIG    1        4.258  -4.445  -4.412  0.00  0.00    +0.050 A 
ATOM     17  C   LIG    1        3.143  -4.534  -3.616  0.00  0.00    -0.050 A 
BRANCH  16  18
ATOM     18  C   LIG    1        4.935  -5.547  -5.111  0.00  0.00    -0.150 A 
ATOM     19  C   LIG    1        6.043  -5.421  -5.894  0.00  0.00    +0.050 A 
ATOM     20  C   LIG    1        6.493  -6.603  -6.439  0.00  0.00    +0.010 A 
ATOM     21  C   LIG    1        5.774  -7.685  -6.125  0.00  0.00    -0.030 A 
ATOM     22  S   LIG    1        4.438  -7.234  -5.074  0.00  0.00    +0.170 S 
ENDBRANCH  16  18
ENDBRANCH  12  13
ENDBRANCH  10  12
ENDBRANCH   1  10
BRANCH   1  23
ATOM     23  C   LIG    1        1.496  -2.701   1.394  0.00  0.00    +0.210 C 
BRANCH  23  24
ATOM     24  O   LIG    1        2.704  -2.119   1.890  0.00  0.00    -0.300 OA
BRANCH  24  25
ATOM     25  C   LIG    1        3.090  -2.474   3.143  0.00  0.00    +0.130 A 
ATOM     26  C   LIG    1        2.320  -3.360   3.883  0.00  0.00    -0.090 A 
ATOM     27  C   LIG    1        2.718  -3.724   5.155  0.00  0.00    +0.040 A 
ATOM     28  C   LIG    1        3.877  -3.197   5.695  0.00  0.00    -0.040 A 
ATOM     29  C   LIG    1        4.643  -2.310   4.962  0.00  0.00    +0.050 A 
ATOM     30  C   LIG    1        4.252  -1.947   3.688  0.00  0.00    -0.020 A 
ENDBRANCH  24  25
ENDBRANCH  23  24
ENDBRANCH   1  23
TORSDOF 8
