REMARK  Name = ZINCpk000000n25d.0
REMARK                            x       y       z     vdW  Elec       q    Type
REMARK                         _______ _______ _______ _____ _____    ______ ____
ROOT
ATOM      1  C   LIG    1        4.075   1.006  -1.473  0.00  0.00    +0.210 C 
ENDROOT
BRANCH   1   2
ATOM      2  O   LIG    1        3.700  -0.196  -2.150  0.00  0.00    -0.540 OA
ATOM      3  H   LIG    1        4.063  -1.000  -1.754  0.00  0.00    +0.380 HD
ENDBRANCH   1   2
BRANCH   1   4
ATOM      4  C   LIG    1        5.599   1.144  -1.487  0.00  0.00    +0.180 C 
BRANCH   4   5
ATOM      5  O   LIG    1        6.050   1.311  -2.832  0.00  0.00    -0.300 OA
BRANCH   5  10
ATOM      6  C   LIG    1        9.271   1.758  -4.489  0.00  0.00    -0.130 A 
ATOM      7  C   LIG    1       10.129   1.732  -3.385  0.00  0.00    +0.030 A 
ATOM      8  C   LIG    1        9.613   1.566  -2.116  0.00  0.00    +0.040 A 
ATOM      9  C   LIG    1        8.249   1.431  -1.931  0.00  0.00    -0.050 A 
ATOM     10  C   LIG    1        7.389   1.450  -3.021  0.00  0.00    +0.120 A 
ATOM     11  C   LIG    1        7.893   1.615  -4.300  0.00  0.00    +0.050 A 
BRANCH   6  13
ATOM     12  C   LIG    1       11.302   2.087  -6.045  0.00  0.00    +0.090 C 
ATOM     13  C   LIG    1        9.816   1.933  -5.845  0.00  0.00    +0.390 C 
ATOM     14  O   LIG    1        9.070   1.955  -6.800  0.00  0.00    -0.450 OA
ENDBRANCH   6  13
ENDBRANCH   5  10
ENDBRANCH   4   5
ENDBRANCH   1   4
BRANCH   1  15
ATOM     15  C   LIG    1        3.580   0.952  -0.027  0.00  0.00    +0.300 C 
BRANCH  15  16
ATOM     16  N   LIG    1        2.122   0.820  -0.014  0.00  0.00    -0.570 N 
ATOM     17  C   LIG    1        1.271   1.854  -0.000  0.00  0.00    +0.700 C 
ATOM     18  N   LIG    1       -0.018   1.460   0.010  0.00  0.00    -0.720 N 
ATOM     19  H   LIG    1       -0.801   2.031   0.017  0.00  0.00    +0.440 HD
ATOM     20  C   LIG    1        0.002  -0.004   0.002  0.00  0.00    +0.120 C 
ATOM     21  C   LIG    1       -0.714  -0.562  -1.235  0.00  0.00    +0.050 C 
ATOM     22  C   LIG    1       -1.386  -1.863  -0.724  0.00  0.00    +0.040 C 
ATOM     23  C   LIG    1       -1.837  -1.479   0.708  0.00  0.00    +0.030 C 
ATOM     24  C   LIG    1       -0.697  -0.580   1.236  0.00  0.00    +0.050 C 
ATOM     25  O   LIG    1        1.623   3.018   0.002  0.00  0.00    -0.540 OA
ATOM     26  C   LIG    1        1.466  -0.361  -0.014  0.00  0.00    +0.540 C 
ATOM     27  O   LIG    1        1.952  -1.472  -0.024  0.00  0.00    -0.450 OA
ENDBRANCH  15  16
ENDBRANCH   1  15
TORSDOF 7
