REMARK  Name = ZINCkj000005iIgI.0
REMARK                            x       y       z     vdW  Elec       q    Type
REMARK                         _______ _______ _______ _____ _____    ______ ____
ROOT
ATOM      1  N   LIG    1       -2.428   1.038   0.019  0.00  0.00    -0.650 N 
ATOM      2  H   LIG    1       -2.417   0.071  -0.064  0.00  0.00    +0.420 HD
ATOM      3  C   LIG    1       -3.601   1.692   0.130  0.00  0.00    +0.600 C 
ATOM      4  O   LIG    1       -3.621   2.908   0.137  0.00  0.00    -0.510 OA
ENDROOT
BRANCH   3   5
ATOM      5  C   LIG    1       -4.862   0.932   0.242  0.00  0.00    +0.030 A 
ATOM      6  N   LIG    1       -4.994  -0.385   0.249  0.00  0.00    -0.230 NA
ATOM      7  N   LIG    1       -6.237  -0.707   0.363  0.00  0.00    -0.350 N 
ATOM      8  H   LIG    1       -6.577  -1.615   0.389  0.00  0.00    +0.460 HD
ATOM      9  C   LIG    1       -6.991   0.398   0.440  0.00  0.00    +0.020 A 
ATOM     10  C   LIG    1       -8.485   0.545   0.589  0.00  0.00    +0.170 C 
ATOM     11  C   LIG    1       -8.769   1.992   1.016  0.00  0.00    +0.290 C 
ATOM     12  N   LIG    1       -8.062   2.923   0.126  0.00  0.00    -0.510 N 
ATOM     13  H   LIG    1       -8.413   3.857   0.274  0.00  0.00    +0.440 HD
ATOM     14  H   LIG    1       -8.224   2.655  -0.833  0.00  0.00    +0.430 HD
ATOM     15  C   LIG    1       -6.616   2.895   0.404  0.00  0.00    +0.390 C 
ATOM     16  C   LIG    1       -6.154   1.465   0.369  0.00  0.00    -0.210 A 
ENDBRANCH   3   5
BRANCH   1  20
ATOM     17  C   LIG    1        1.158   3.164   0.038  0.00  0.00    +0.130 A 
ATOM     18  C   LIG    1        0.082   3.613   0.789  0.00  0.00    +0.010 A 
ATOM     19  C   LIG    1       -1.107   2.912   0.780  0.00  0.00    +0.060 A 
ATOM     20  C   LIG    1       -1.224   1.753   0.023  0.00  0.00    +0.090 A 
ATOM     21  C   LIG    1       -0.148   1.308  -0.733  0.00  0.00    +0.040 A 
ATOM     22  C   LIG    1        1.041   2.010  -0.723  0.00  0.00    -0.050 A 
BRANCH  17  24
ATOM     23  C   LIG    1        3.396   3.336  -0.750  0.00  0.00    +0.240 C 
ATOM     24  O   LIG    1        2.329   3.856   0.047  0.00  0.00    -0.310 OA
ENDBRANCH  17  24
ENDBRANCH   1  20
TORSDOF 3
