REMARK  Name = ZINCrH000004pqYB.0
REMARK                            x       y       z     vdW  Elec       q    Type
REMARK                         _______ _______ _______ _____ _____    ______ ____
ROOT
ATOM      1  C   LIG    1       -2.364   2.645   3.686  0.00  0.00    -0.080 A 
ATOM      2  C   LIG    1       -2.561   1.385   3.117  0.00  0.00    +0.070 A 
ATOM      3  C   LIG    1       -1.843   1.018   1.998  0.00  0.00    +0.120 A 
ATOM      4  C   LIG    1       -0.930   1.894   1.440  0.00  0.00    -0.660 A 
ATOM      5  C   LIG    1       -0.726   3.142   2.002  0.00  0.00    +0.120 A 
ATOM      6  C   LIG    1       -1.441   3.524   3.118  0.00  0.00    +0.030 A 
ENDROOT
BRANCH   1   9
ATOM      7  N   LIG    1       -2.938   4.262   5.433  0.00  0.00    -0.720 N 
ATOM      8  H   LIG    1       -2.296   4.875   5.040  0.00  0.00    +0.400 HD
ATOM      9  C   LIG    1       -3.130   3.046   4.886  0.00  0.00    +0.560 C 
ATOM     10  O   LIG    1       -3.934   2.278   5.378  0.00  0.00    -0.520 OA
BRANCH   7  12
ATOM     11  C   LIG    1       -2.988   4.145   7.875  0.00  0.00    +0.040 C 
ATOM     12  C   LIG    1       -3.697   4.659   6.621  0.00  0.00    +0.280 C 
BRANCH  12  13
ATOM     13  C   LIG    1       -3.791   6.162   6.678  0.00  0.00    -0.100 A 
ATOM     14  C   LIG    1       -2.696   6.936   6.341  0.00  0.00    +0.000 A 
ATOM     15  C   LIG    1       -2.784   8.315   6.389  0.00  0.00    +0.020 A 
ATOM     16  C   LIG    1       -3.963   8.920   6.782  0.00  0.00    +0.000 A 
ATOM     17  C   LIG    1       -5.056   8.145   7.124  0.00  0.00    +0.020 A 
ATOM     18  C   LIG    1       -4.970   6.767   7.072  0.00  0.00    +0.020 A 
ENDBRANCH  12  13
ENDBRANCH   7  12
ENDBRANCH   1   9
BRANCH   4  19
ATOM     19  S   LIG    1       -0.017   1.417   0.010  0.00  0.00    +2.680 S 
ATOM     20  O   LIG    1        1.162   2.210   0.003  0.00  0.00    -0.950 OA
ATOM     21  O   LIG    1        0.002  -0.004   0.002  0.00  0.00    -0.950 OA
BRANCH  19  22
ATOM     22  N   LIG    1       -0.900   1.880  -1.312  0.00  0.00    -0.990 NA
ATOM     23  C   LIG    1       -1.854   0.947  -1.870  0.00  0.00    +0.280 C 
ATOM     24  C   LIG    1       -1.166   0.063  -2.931  0.00  0.00    +0.010 C 
ATOM     25  C   LIG    1       -0.865   0.852  -4.135  0.00  0.00    +0.000 C 
ATOM     26  C   LIG    1        0.114   2.000  -3.906  0.00  0.00    +0.010 C 
ATOM     27  C   LIG    1       -0.642   3.210  -3.416  0.00  0.00    +0.020 C 
ATOM     28  C   LIG    1       -0.676   3.225  -1.877  0.00  0.00    +0.280 C 
ENDBRANCH  19  22
ENDBRANCH   4  19
TORSDOF 5
