REMARK  Name = ZINCrH000004q4o9.0
REMARK                            x       y       z     vdW  Elec       q    Type
REMARK                         _______ _______ _______ _____ _____    ______ ____
ROOT
ATOM      1  C   LIG    1       -2.009  -1.769  -0.418  0.00  0.00    +0.070 C 
ATOM      2  C   LIG    1       -2.845  -1.756  -1.700  0.00  0.00    +0.020 C 
ATOM      3  C   LIG    1       -3.389  -3.163  -1.965  0.00  0.00    +0.260 C 
ATOM      4  N   LIG    1       -4.119  -3.620  -0.774  0.00  0.00    -0.610 N 
ATOM      5  C   LIG    1       -3.438  -3.588   0.527  0.00  0.00    +0.270 C 
ATOM      6  C   LIG    1       -5.389  -4.059  -0.874  0.00  0.00    +0.520 C 
ATOM      7  O   LIG    1       -5.981  -4.433   0.116  0.00  0.00    -0.510 OA
ATOM      8  C   LIG    1       -2.893  -2.176   0.764  0.00  0.00    +0.030 C 
ENDROOT
BRANCH   1  11
ATOM      9  C   LIG    1        1.001  -1.038  -0.223  0.00  0.00    +0.140 C 
ATOM     10  C   LIG    1       -0.145  -0.069  -0.086  0.00  0.00    +0.080 A 
ATOM     11  C   LIG    1       -1.444  -0.394  -0.172  0.00  0.00    -0.160 A 
ATOM     12  C   LIG    1       -2.209   0.841   0.018  0.00  0.00    -0.090 A 
ATOM     13  C   LIG    1       -3.571   1.146   0.036  0.00  0.00    +0.050 A 
ATOM     14  C   LIG    1       -3.974   2.435   0.244  0.00  0.00    -0.030 A 
ATOM     15  C   LIG    1       -3.041   3.444   0.437  0.00  0.00    +0.020 A 
ATOM     16  C   LIG    1       -1.692   3.165   0.422  0.00  0.00    -0.010 A 
ATOM     17  C   LIG    1       -1.258   1.860   0.213  0.00  0.00    +0.100 A 
ATOM     18  N   LIG    1       -0.014   1.275   0.139  0.00  0.00    -0.590 N 
ATOM     19  H   LIG    1        0.829   1.744   0.237  0.00  0.00    +0.410 HD
ENDBRANCH   1  11
BRANCH   6  20
ATOM     20  C   LIG    1       -6.074  -4.086  -2.216  0.00  0.00    +0.150 C 
ATOM     21  C   LIG    1       -5.366  -5.088  -3.130  0.00  0.00    +0.040 C 
BRANCH  20  22
ATOM     22  O   LIG    1       -7.438  -4.476  -2.047  0.00  0.00    -0.350 OA
BRANCH  22  23
ATOM     23  C   LIG    1       -8.326  -3.921  -3.019  0.00  0.00    +0.160 C 
BRANCH  23  24
ATOM     24  C   LIG    1       -9.751  -4.404  -2.743  0.00  0.00    +0.170 C 
ATOM     25  C   LIG    1      -10.698  -3.909  -3.857  0.00  0.00    +0.020 C 
ATOM     26  C   LIG    1      -11.978  -3.536  -3.058  0.00  0.00    +0.010 C 
ATOM     27  C   LIG    1      -11.360  -3.021  -1.733  0.00  0.00    +0.200 C 
ATOM     28  O   LIG    1      -10.217  -3.860  -1.502  0.00  0.00    -0.360 OA
ENDBRANCH  23  24
ENDBRANCH  22  23
ENDBRANCH  20  22
ENDBRANCH   6  20
TORSDOF 5
