REMARK  Name = ZINCrH000004mEbW.0
REMARK                            x       y       z     vdW  Elec       q    Type
REMARK                         _______ _______ _______ _____ _____    ______ ____
ROOT
ATOM      1  N   LIG    1       -2.926   0.719   1.401  0.00  0.00    -0.610 N 
ATOM      2  C   LIG    1       -2.542  -0.470   2.172  0.00  0.00    +0.280 C 
ATOM      3  C   LIG    1       -2.818  -0.107   3.650  0.00  0.00    +0.130 C 
ATOM      4  C   LIG    1       -3.923   0.965   3.508  0.00  0.00    +0.080 C 
ATOM      5  C   LIG    1       -3.709   1.538   2.124  0.00  0.00    +0.520 C 
ATOM      6  O   LIG    1       -4.177   2.583   1.725  0.00  0.00    -0.520 OA
ENDROOT
BRANCH   3   7
ATOM      7  C   LIG    1       -3.324  -1.305   4.410  0.00  0.00    +0.180 A 
ATOM      8  N   LIG    1       -2.828  -1.790   5.523  0.00  0.00    -0.460 NA
ATOM      9  C   LIG    1       -3.596  -2.851   5.830  0.00  0.00    +0.180 A 
ATOM     10  N   LIG    1       -4.503  -2.956   4.905  0.00  0.00    -0.380 NA
ATOM     11  O   LIG    1       -4.368  -2.074   4.083  0.00  0.00    +0.080 OA
BRANCH   9  12
ATOM     12  C   LIG    1       -3.434  -3.753   7.026  0.00  0.00    +0.170 C 
BRANCH  12  13
ATOM     13  C   LIG    1       -4.256  -3.204   8.194  0.00  0.00    -0.060 C 
ATOM     14  C   LIG    1       -3.738  -1.807   8.593  0.00  0.00    +0.020 C 
ATOM     15  C   LIG    1       -3.865  -1.783  10.137  0.00  0.00    +0.010 C 
ATOM     16  C   LIG    1       -3.471  -3.227  10.536  0.00  0.00    +0.020 C 
ATOM     17  C   LIG    1       -5.733  -3.123   7.802  0.00  0.00    +0.030 C 
ATOM     18  C   LIG    1       -4.087  -4.107   9.428  0.00  0.00    +0.030 C 
ENDBRANCH  12  13
ENDBRANCH   9  12
ENDBRANCH   3   7
BRANCH   1  19
ATOM     19  C   LIG    1       -2.513   0.977   0.019  0.00  0.00    +0.350 C 
BRANCH  19  23
ATOM     20  C   LIG    1        1.155   3.169   0.008  0.00  0.00    +0.130 A 
ATOM     21  C   LIG    1        1.175   1.782   0.000  0.00  0.00    -0.030 A 
ATOM     22  C   LIG    1       -0.013   1.076   0.008  0.00  0.00    +0.070 A 
ATOM     23  C   LIG    1       -1.220   1.750   0.017  0.00  0.00    -0.150 A 
ATOM     24  C   LIG    1       -1.242   3.133   0.030  0.00  0.00    +0.080 A 
ATOM     25  C   LIG    1       -0.057   3.844   0.022  0.00  0.00    -0.080 A 
BRANCH  20  27
ATOM     26  C   LIG    1        2.225   5.292   0.009  0.00  0.00    +0.250 C 
ATOM     27  O   LIG    1        2.322   3.866   0.001  0.00  0.00    -0.320 OA
ENDBRANCH  20  27
ENDBRANCH  19  23
ENDBRANCH   1  19
TORSDOF 6
