REMARK  Name = ZINCpk00000FfZXz.0
REMARK                            x       y       z     vdW  Elec       q    Type
REMARK                         _______ _______ _______ _____ _____    ______ ____
ROOT
ATOM      1  O   LIG    1       -1.398   6.115  -0.261  0.00  0.00    -0.320 OA
ENDROOT
BRANCH   1   2
ATOM      2  C   LIG    1       -1.584   7.441  -0.360  0.00  0.00    +0.470 C 
ATOM      3  O   LIG    1       -0.632   8.185  -0.378  0.00  0.00    -0.500 OA
BRANCH   2   4
ATOM      4  C   LIG    1       -2.980   8.001  -0.447  0.00  0.00    +0.370 C 
BRANCH   4   5
ATOM      5  N   LIG    1       -2.915   9.461  -0.546  0.00  0.00    -0.720 N 
ATOM      6  H   LIG    1       -2.055   9.909  -0.547  0.00  0.00    +0.410 HD
ATOM      7  C   LIG    1       -4.050  10.182  -0.636  0.00  0.00    +0.570 C 
ATOM      8  O   LIG    1       -5.128   9.620  -0.634  0.00  0.00    -0.530 OA
BRANCH   7   9
ATOM      9  C   LIG    1       -3.985  11.655  -0.736  0.00  0.00    -0.140 A 
ATOM     10  C   LIG    1       -2.748  12.304  -0.732  0.00  0.00    +0.040 A 
ATOM     11  C   LIG    1       -2.694  13.679  -0.831  0.00  0.00    +0.000 A 
ATOM     12  C   LIG    1       -3.861  14.416  -0.923  0.00  0.00    +0.040 A 
ATOM     13  C   LIG    1       -5.090  13.780  -0.921  0.00  0.00    +0.000 A 
ATOM     14  C   LIG    1       -5.158  12.405  -0.829  0.00  0.00    +0.080 A 
ENDBRANCH   7   9
ENDBRANCH   4   5
ENDBRANCH   2   4
ENDBRANCH   1   2
BRANCH   1  15
ATOM     15  C   LIG    1       -0.026   5.646  -0.181  0.00  0.00    +0.270 C 
BRANCH  15  18
ATOM     16  N   LIG    1        1.158   3.482   0.010  0.00  0.00    -0.670 N 
ATOM     17  H   LIG    1        1.989   3.977   0.086  0.00  0.00    +0.420 HD
ATOM     18  C   LIG    1       -0.014   4.143  -0.076  0.00  0.00    +0.520 C 
ATOM     19  O   LIG    1       -1.059   3.527  -0.070  0.00  0.00    -0.480 OA
BRANCH  16  25
ATOM     20  C   LIG    1        2.239   1.389   0.580  0.00  0.00    -0.060 A 
ATOM     21  C   LIG    1        2.245  -0.007   0.555  0.00  0.00    +0.090 A 
ATOM     22  C   LIG    1        1.208  -0.688  -0.047  0.00  0.00    +0.000 A 
ATOM     23  C   LIG    1        0.160   0.006  -0.628  0.00  0.00    +0.080 A 
ATOM     24  C   LIG    1        0.141   1.387  -0.610  0.00  0.00    +0.030 A 
ATOM     25  C   LIG    1        1.175   2.089  -0.009  0.00  0.00    +0.200 A 
BRANCH  20  27
ATOM     26  N   LIG    1        4.165   2.668   1.698  0.00  0.00    -0.410 NA
ATOM     27  C   LIG    1        3.313   2.102   1.204  0.00  0.00    +0.250 C 
ENDBRANCH  20  27
ENDBRANCH  16  25
ENDBRANCH  15  18
ENDBRANCH   1  15
TORSDOF 8
