REMARK  Name = ZINCpe000000XUmg.0
REMARK                            x       y       z     vdW  Elec       q    Type
REMARK                         _______ _______ _______ _____ _____    ______ ____
ROOT
ATOM      1  N   LIG    1       -1.135  -6.589   2.537  0.00  0.00    -0.500 N 
ATOM      2  C   LIG    1       -2.180  -5.874   3.282  0.00  0.00    +0.180 C 
ATOM      3  C   LIG    1       -2.932  -4.938   2.330  0.00  0.00    +0.280 C 
ATOM      4  N   LIG    1       -1.952  -4.077   1.651  0.00  0.00    -0.630 N 
ATOM      5  C   LIG    1       -0.803  -4.715   0.992  0.00  0.00    +0.320 C 
ATOM      6  C   LIG    1       -2.106  -2.738   1.629  0.00  0.00    +0.710 C 
ATOM      7  N   LIG    1       -3.112  -2.164   2.317  0.00  0.00    -0.740 N 
ATOM      8  H   LIG    1       -3.769  -2.717   2.769  0.00  0.00    +0.400 HD
ATOM      9  O   LIG    1       -1.337  -2.048   0.987  0.00  0.00    -0.590 OA
ATOM     10  C   LIG    1       -0.132  -5.660   2.002  0.00  0.00    +0.180 C 
ENDROOT
BRANCH   1  17
ATOM     11  C   LIG    1       -1.438  -9.311   1.764  0.00  0.00    +0.100 C 
ATOM     12  C   LIG    1       -0.658  -8.911   2.991  0.00  0.00    -0.060 A 
ATOM     13  C   LIG    1       -0.064  -9.878   3.778  0.00  0.00    +0.010 A 
ATOM     14  C   LIG    1        0.651  -9.512   4.903  0.00  0.00    +0.000 A 
ATOM     15  C   LIG    1        0.774  -8.178   5.245  0.00  0.00    +0.000 A 
ATOM     16  C   LIG    1        0.187  -7.205   4.459  0.00  0.00    -0.020 A 
ATOM     17  C   LIG    1       -0.536  -7.570   3.331  0.00  0.00    +0.080 A 
ENDBRANCH   1  17
BRANCH   7  18
ATOM     18  C   LIG    1       -3.215  -0.704   2.385  0.00  0.00    +0.310 C 
BRANCH  18  19
ATOM     19  C   LIG    1       -4.435  -0.316   3.221  0.00  0.00    +0.140 C 
ATOM     20  C   LIG    1       -4.563   1.221   3.306  0.00  0.00    +0.030 C 
ATOM     21  C   LIG    1       -6.086   1.475   3.254  0.00  0.00    +0.030 C 
ATOM     22  C   LIG    1       -6.699   0.061   3.145  0.00  0.00    +0.160 C 
ATOM     23  O   LIG    1       -5.651  -0.752   2.574  0.00  0.00    -0.340 OA
BRANCH  22  24
ATOM     24  C   LIG    1       -7.902   0.079   2.237  0.00  0.00    +0.520 C 
ATOM     25  O   LIG    1       -7.861  -0.486   1.165  0.00  0.00    -0.520 OA
ATOM     26  N   LIG    1       -9.023   0.723   2.617  0.00  0.00    -0.850 N 
ATOM     27  H   LIG    1       -9.797   0.735   2.033  0.00  0.00    +0.410 HD
ATOM     28  H   LIG    1       -9.055   1.175   3.474  0.00  0.00    +0.400 HD
ENDBRANCH  22  24
ENDBRANCH  18  19
ENDBRANCH   7  18
TORSDOF 4
