REMARK  Name = ZINCpe000000YyZa.0
REMARK                            x       y       z     vdW  Elec       q    Type
REMARK                         _______ _______ _______ _____ _____    ______ ____
ROOT
ATOM      1  C   LIG    1       -1.699   1.211   3.451  0.00  0.00    -0.010 C 
ATOM      2  C   LIG    1       -0.750   2.223   4.096  0.00  0.00    +0.030 C 
ATOM      3  C   LIG    1       -1.386   2.769   5.378  0.00  0.00    +0.300 C 
ATOM      4  N   LIG    1       -1.744   1.639   6.246  0.00  0.00    -0.990 NA
ATOM      5  C   LIG    1       -2.580   0.563   5.696  0.00  0.00    +0.300 C 
ATOM      6  C   LIG    1       -1.930   0.042   4.411  0.00  0.00    +0.040 C 
ENDROOT
BRANCH   1  12
ATOM      7  C   LIG    1       -2.287   2.245  -1.443  0.00  0.00    -0.010 C 
ATOM      8  C   LIG    1       -1.570   0.899  -1.323  0.00  0.00    +0.050 C 
ATOM      9  C   LIG    1       -0.534   0.975  -0.196  0.00  0.00    +0.280 C 
ATOM     10  N   LIG    1       -1.203   1.414   1.036  0.00  0.00    -0.610 N 
ATOM     11  C   LIG    1       -1.999   2.649   1.006  0.00  0.00    +0.280 C 
ATOM     12  C   LIG    1       -1.091   0.697   2.171  0.00  0.00    +0.520 C 
ATOM     13  O   LIG    1       -0.501  -0.363   2.163  0.00  0.00    -0.530 OA
ATOM     14  C   LIG    1       -3.019   2.554  -0.134  0.00  0.00    +0.030 C 
BRANCH   7  18
ATOM     15  N   LIG    1       -4.037   3.263  -2.865  0.00  0.00    -0.860 N 
ATOM     16  H   LIG    1       -4.678   3.224  -3.592  0.00  0.00    +0.400 HD
ATOM     17  H   LIG    1       -3.938   4.078  -2.349  0.00  0.00    +0.400 HD
ATOM     18  C   LIG    1       -3.283   2.184  -2.572  0.00  0.00    +0.520 C 
ATOM     19  O   LIG    1       -3.407   1.165  -3.217  0.00  0.00    -0.540 OA
ENDBRANCH   7  18
ENDBRANCH   1  12
BRANCH   4  20
ATOM     20  S   LIG    1       -1.217   1.580   7.815  0.00  0.00    +2.720 S 
ATOM     21  O   LIG    1       -2.127   0.741   8.513  0.00  0.00    -0.950 OA
ATOM     22  O   LIG    1       -0.946   2.921   8.198  0.00  0.00    -0.950 OA
BRANCH  20  23
ATOM     23  C   LIG    1        0.333   0.741   7.813  0.00  0.00    -0.800 A 
ATOM     24  C   LIG    1        1.523   1.325   7.669  0.00  0.00    +0.160 A 
ATOM     25  C   LIG    1        2.604   0.461   7.703  0.00  0.00    -0.010 A 
ATOM     26  C   LIG    1        2.291  -0.826   7.865  0.00  0.00    +0.000 A 
ATOM     27  S   LIG    1        0.545  -0.996   7.992  0.00  0.00    +0.220 S 
ENDBRANCH  20  23
ENDBRANCH   4  20
TORSDOF 4
