REMARK  Name = ZINCtV000002I0Mf.0
REMARK                            x       y       z     vdW  Elec       q    Type
REMARK                         _______ _______ _______ _____ _____    ______ ____
ROOT
ATOM      1  C   LIG    1       -0.603  -2.100   0.039  0.00  0.00    +0.170 A 
ATOM      2  N   LIG    1        0.699  -2.002   0.194  0.00  0.00    -0.280 NA
ATOM      3  N   LIG    1        1.067  -0.776   0.083  0.00  0.00    -0.260 NA
ATOM      4  C   LIG    1        0.024  -0.013  -0.148  0.00  0.00    +0.240 A 
ATOM      5  N   LIG    1       -1.081  -0.837  -0.179  0.00  0.00    -0.410 N 
ENDROOT
BRANCH   4   6
ATOM      6  C   LIG    1        0.031   1.453  -0.335  0.00  0.00    -0.020 A 
ATOM      7  C   LIG    1       -1.057   2.089  -0.935  0.00  0.00    +0.050 A 
ATOM      8  C   LIG    1       -1.046   3.458  -1.102  0.00  0.00    +0.030 A 
ATOM      9  C   LIG    1        0.046   4.200  -0.685  0.00  0.00    -0.020 A 
ATOM     10  C   LIG    1        1.131   3.575  -0.094  0.00  0.00    +0.030 A 
ATOM     11 CL   LIG    1        0.056   5.922  -0.905  0.00  0.00    -0.060 Cl
ATOM     12  C   LIG    1        1.129   2.207   0.083  0.00  0.00    +0.090 A 
ENDBRANCH   4   6
BRANCH   5  13
ATOM     13  C   LIG    1       -2.414  -0.460  -0.392  0.00  0.00    +0.090 A 
ATOM     14  C   LIG    1       -3.084   0.293   0.562  0.00  0.00    +0.040 A 
ATOM     15  C   LIG    1       -4.397   0.666   0.348  0.00  0.00    +0.040 A 
ATOM     16  C   LIG    1       -5.046   0.283  -0.811  0.00  0.00    +0.040 A 
ATOM     17  C   LIG    1       -4.382  -0.472  -1.761  0.00  0.00    +0.040 A 
ATOM     18  C   LIG    1       -3.068  -0.844  -1.555  0.00  0.00    +0.030 A 
ENDBRANCH   5  13
BRANCH   1  19
ATOM     19  S   LIG    1       -1.555  -3.581   0.108  0.00  0.00    +0.040 S 
BRANCH  19  20
ATOM     20  C   LIG    1       -0.242  -4.785   0.430  0.00  0.00    +0.100 C 
BRANCH  20  21
ATOM     21  C   LIG    1       -0.848  -6.186   0.532  0.00  0.00    +0.220 C 
BRANCH  21  22
ATOM     22  O   LIG    1        0.188  -7.136   0.787  0.00  0.00    -0.310 OA
BRANCH  22  27
ATOM     23  C   LIG    1       -1.353 -12.530   1.283  0.00  0.00    +0.100 C 
ATOM     24  C   LIG    1       -0.941 -11.087   1.150  0.00  0.00    -0.120 A 
ATOM     25  C   LIG    1        0.390 -10.736   1.275  0.00  0.00    +0.050 A 
ATOM     26  C   LIG    1        0.771  -9.413   1.154  0.00  0.00    -0.010 A 
ATOM     27  C   LIG    1       -0.184  -8.438   0.907  0.00  0.00    +0.120 A 
ATOM     28  C   LIG    1       -1.520  -8.792   0.787  0.00  0.00    -0.070 A 
ATOM     29  C   LIG    1       -1.895 -10.117   0.903  0.00  0.00    +0.050 A 
ENDBRANCH  22  27
ENDBRANCH  21  22
ENDBRANCH  20  21
ENDBRANCH  19  20
ENDBRANCH   1  19
TORSDOF 7
