REMARK  Name = ZINCrD00000740o4.0
REMARK                            x       y       z     vdW  Elec       q    Type
REMARK                         _______ _______ _______ _____ _____    ______ ____
ROOT
ATOM      1  C   LIG    1        1.739   1.335   5.188  0.00  0.00    +0.080 C 
ATOM      2  C   LIG    1        1.879   2.445   4.144  0.00  0.00    +0.150 C 
ATOM      3  C   LIG    1        1.273   1.978   2.816  0.00  0.00    +0.240 C 
ATOM      4  N   LIG    1        1.585   2.981   1.786  0.00  0.00    -0.610 N 
ATOM      5  C   LIG    1        2.985   3.412   1.642  0.00  0.00    +0.280 C 
ATOM      6  C   LIG    1        3.508   3.812   3.031  0.00  0.00    +0.220 C 
ATOM      7  C   LIG    1        0.620   3.486   0.993  0.00  0.00    +0.530 C 
ATOM      8  O   LIG    1        0.910   4.236   0.086  0.00  0.00    -0.510 OA
ATOM      9  O   LIG    1        3.264   2.744   3.950  0.00  0.00    -0.370 OA
ENDROOT
BRANCH   7  10
ATOM     10  C   LIG    1       -0.822   3.117   1.233  0.00  0.00    -0.030 C 
ATOM     11  C   LIG    1       -1.701   3.747   0.148  0.00  0.00    +0.040 C 
ATOM     12  C   LIG    1       -1.604   5.271   0.245  0.00  0.00    +0.230 C 
ATOM     13  O   LIG    1       -1.999   5.691   1.552  0.00  0.00    -0.380 OA
ATOM     14  C   LIG    1       -1.183   5.171   2.604  0.00  0.00    +0.210 C 
ATOM     15  C   LIG    1       -1.264   3.642   2.602  0.00  0.00    +0.040 C 
BRANCH  10  16
ATOM     16  C   LIG    1       -0.972   1.618   1.196  0.00  0.00    +0.110 A 
ATOM     17  N   LIG    1       -1.555   0.996   2.201  0.00  0.00    -0.450 NA
ATOM     18  C   LIG    1       -1.709  -0.314   2.212  0.00  0.00    +0.270 A 
ATOM     19  C   LIG    1       -1.258  -1.088   1.159  0.00  0.00    +0.010 A 
ATOM     20  C   LIG    1       -0.639  -0.472   0.083  0.00  0.00    +0.050 A 
ATOM     21  C   LIG    1       -0.499   0.909   0.104  0.00  0.00    +0.060 A 
ATOM     22  F   LIG    1        0.093   1.553  -0.926  0.00  0.00    -0.120 F 
ENDBRANCH  10  16
ENDBRANCH   7  10
BRANCH   6  23
ATOM     23  C   LIG    1        4.989   4.081   2.953  0.00  0.00    -0.110 A 
ATOM     24  C   LIG    1        5.896   3.103   2.953  0.00  0.00    -0.010 A 
ATOM     25  S   LIG    1        7.509   3.795   2.849  0.00  0.00    +0.110 S 
ATOM     26  C   LIG    1        6.842   5.422   2.819  0.00  0.00    -0.040 A 
ATOM     27  C   LIG    1        5.511   5.361   2.882  0.00  0.00    +0.010 A 
ENDBRANCH   6  23
TORSDOF 3
