REMARK  Name = ZINCvU0000000H9o.0
REMARK                            x       y       z     vdW  Elec       q    Type
REMARK                         _______ _______ _______ _____ _____    ______ ____
ROOT
ATOM      1  N   LIG    1        2.334   0.822  -0.308  0.00  0.00    -0.310 N 
ATOM      2  N   LIG    1        3.514   1.281  -0.917  0.00  0.00    -0.270 NA
ATOM      3  C   LIG    1        4.518   0.706  -0.290  0.00  0.00    +0.280 A 
ATOM      4  N   LIG    1        4.036  -0.091   0.670  0.00  0.00    -0.480 NA
ATOM      5  C   LIG    1        2.721  -0.035   0.676  0.00  0.00    +0.330 A 
ENDROOT
BRANCH   3   6
ATOM      6  C   LIG    1        5.954   0.906  -0.601  0.00  0.00    +0.200 A 
ATOM      7  C   LIG    1        6.324   1.763  -1.635  0.00  0.00    +0.030 A 
ATOM      8  C   LIG    1        7.668   1.944  -1.911  0.00  0.00    +0.090 A 
ATOM      9  C   LIG    1        8.600   1.252  -1.149  0.00  0.00    -0.080 A 
ATOM     10  C   LIG    1        8.162   0.411  -0.141  0.00  0.00    +0.300 A 
ATOM     11 CL   LIG    1       10.298   1.438  -1.459  0.00  0.00    -0.040 Cl
ATOM     12  N   LIG    1        6.876   0.262   0.104  0.00  0.00    -0.430 NA
ENDBRANCH   3   6
BRANCH   5  13
ATOM     13  C   LIG    1        1.822  -0.774   1.590  0.00  0.00    -0.050 A 
ATOM     14  C   LIG    1        0.603  -0.216   1.975  0.00  0.00    +0.110 A 
ATOM     15  C   LIG    1       -0.234  -0.912   2.823  0.00  0.00    +0.010 A 
ATOM     16  C   LIG    1        0.140  -2.158   3.301  0.00  0.00    +0.180 A 
ATOM     17  C   LIG    1        1.353  -2.714   2.925  0.00  0.00    -0.220 A 
ATOM     18  F   LIG    1       -0.681  -2.832   4.136  0.00  0.00    -0.110 F 
ATOM     19  C   LIG    1        2.194  -2.030   2.074  0.00  0.00    +0.180 A 
BRANCH  17  20
ATOM     20  C   LIG    1        1.752  -4.070   3.448  0.00  0.00    +0.520 C 
ATOM     21  F   LIG    1        0.805  -5.020   3.052  0.00  0.00    -0.170 F 
ATOM     22  F   LIG    1        1.816  -4.030   4.845  0.00  0.00    -0.170 F 
ATOM     23  F   LIG    1        3.006  -4.417   2.934  0.00  0.00    -0.170 F 
ENDBRANCH  17  20
ENDBRANCH   5  13
BRANCH   1  27
ATOM     24  C   LIG    1       -1.553   1.776  -1.308  0.00  0.00    +0.330 A 
ATOM     25  C   LIG    1       -0.620   2.802  -1.236  0.00  0.00    -0.010 A 
ATOM     26  C   LIG    1        0.688   2.503  -0.902  0.00  0.00    +0.140 A 
ATOM     27  C   LIG    1        1.021   1.173  -0.649  0.00  0.00    +0.030 A 
ATOM     28  C   LIG    1        0.035   0.201  -0.741  0.00  0.00    +0.330 A 
ATOM     29  N   LIG    1       -1.201   0.524  -1.067  0.00  0.00    -0.520 NA
BRANCH  24  31
ATOM     30  C   LIG    1       -3.752   0.962  -1.693  0.00  0.00    +0.260 C 
ATOM     31  O   LIG    1       -2.839   2.060  -1.635  0.00  0.00    -0.300 OA
ENDBRANCH  24  31
ENDBRANCH   1  27
TORSDOF 5
