REMARK  Name = ZINCpk00000KfLSX.0
REMARK                            x       y       z     vdW  Elec       q    Type
REMARK                         _______ _______ _______ _____ _____    ______ ____
ROOT
ATOM      1  C   LIG    1       -4.878   1.423   0.220  0.00  0.00    +0.090 A 
ATOM      2  C   LIG    1       -6.054   2.149   0.326  0.00  0.00    +0.040 A 
ATOM      3  C   LIG    1       -6.016   3.531   0.325  0.00  0.00    +0.030 A 
ATOM      4  C   LIG    1       -4.806   4.193   0.224  0.00  0.00    +0.060 A 
ATOM      5  C   LIG    1       -3.628   3.478   0.124  0.00  0.00    +0.040 A 
ATOM      6  C   LIG    1       -3.657   2.090   0.124  0.00  0.00    +0.170 A 
ENDROOT
BRANCH   1   9
ATOM      7  C   LIG    1       -5.591  -2.053   0.203  0.00  0.00    -0.080 A 
ATOM      8  C   LIG    1       -6.020  -0.755   0.211  0.00  0.00    +0.330 A 
ATOM      9  N   LIG    1       -4.915   0.021   0.214  0.00  0.00    -0.300 N 
ATOM     10  N   LIG    1       -3.812  -0.845   0.217  0.00  0.00    -0.070 NA
ATOM     11  N   LIG    1       -4.247  -2.057   0.210  0.00  0.00    -0.160 NA
BRANCH   7  12
ATOM     12  C   LIG    1       -6.456  -3.246   0.194  0.00  0.00    +0.560 C 
ATOM     13  O   LIG    1       -7.665  -3.121   0.188  0.00  0.00    -0.500 OA
BRANCH  12  15
ATOM     14  C   LIG    1       -6.819  -5.606   0.182  0.00  0.00    +0.290 C 
ATOM     15  O   LIG    1       -5.907  -4.477   0.192  0.00  0.00    -0.340 OA
ENDBRANCH  12  15
ENDBRANCH   7  12
ENDBRANCH   1   9
BRANCH   6  16
ATOM     16  N   LIG    1       -2.466   1.364   0.022  0.00  0.00    -0.650 N 
ATOM     17  H   LIG    1       -2.417   0.461   0.374  0.00  0.00    +0.430 HD
ATOM     18  C   LIG    1       -1.387   1.917  -0.565  0.00  0.00    +0.580 C 
ATOM     19  O   LIG    1       -1.476   3.008  -1.095  0.00  0.00    -0.500 OA
BRANCH  18  20
ATOM     20  C   LIG    1       -0.093   1.197  -0.565  0.00  0.00    +0.010 A 
ATOM     21  C   LIG    1        1.024   1.766  -1.177  0.00  0.00    +0.320 A 
ATOM     22  N   LIG    1        2.175   1.117  -1.179  0.00  0.00    -0.440 NA
ATOM     23  C   LIG    1        2.268  -0.068  -0.602  0.00  0.00    +0.110 A 
ATOM     24  C   LIG    1        1.158  -0.637   0.007  0.00  0.00    +0.230 A 
ATOM     25  C   LIG    1        3.583  -0.804  -0.606  0.00  0.00    +0.160 C 
ATOM     26  N   LIG    1        0.006   0.004   0.014  0.00  0.00    -0.400 NA
ENDBRANCH  18  20
ENDBRANCH   6  16
TORSDOF 5
