REMARK  Name = ZINCqH0000006ZcI.0
REMARK                            x       y       z     vdW  Elec       q    Type
REMARK                         _______ _______ _______ _____ _____    ______ ____
ROOT
ATOM      1  C   LIG    1       -0.015   1.294   0.009  0.00  0.00    +0.100 A 
ATOM      2  N   LIG    1        0.002  -0.004   0.002  0.00  0.00    -0.440 NA
ATOM      3  C   LIG    1        1.204  -0.565  -0.013  0.00  0.00    +0.010 A 
ATOM      4  C   LIG    1        2.242   0.301  -0.018  0.00  0.00    -0.020 A 
ATOM      5  S   LIG    1        1.637   1.901  -0.003  0.00  0.00    +0.190 S 
ENDROOT
BRANCH   1   9
ATOM      6  C   LIG    1       -3.522   3.700   0.041  0.00  0.00    +0.120 A 
ATOM      7  C   LIG    1       -3.630   2.318   0.033  0.00  0.00    -0.030 A 
ATOM      8  C   LIG    1       -2.494   1.534   0.023  0.00  0.00    +0.080 A 
ATOM      9  C   LIG    1       -1.233   2.133   0.020  0.00  0.00    -0.030 A 
ATOM     10  C   LIG    1       -1.124   3.525   0.033  0.00  0.00    -0.010 A 
ATOM     11  C   LIG    1       -2.266   4.304   0.038  0.00  0.00    +0.100 A 
BRANCH   6  13
ATOM     12  C   LIG    1       -5.898   3.784   0.053  0.00  0.00    +0.240 C 
ATOM     13  O   LIG    1       -4.643   4.468   0.051  0.00  0.00    -0.300 OA
ENDBRANCH   6  13
BRANCH  11  14
ATOM     14  O   LIG    1       -2.163   5.660   0.046  0.00  0.00    -0.300 OA
ATOM     15  C   LIG    1       -0.845   6.211   0.043  0.00  0.00    +0.250 C 
ENDBRANCH  11  14
ENDBRANCH   1   9
BRANCH   3  16
ATOM     16  C   LIG    1        1.394  -2.026  -0.022  0.00  0.00    +0.600 C 
ATOM     17  N   LIG    1        0.324  -2.844  -0.016  0.00  0.00    -0.710 N 
ATOM     18  H   LIG    1       -0.572  -2.472  -0.006  0.00  0.00    +0.410 HD
ATOM     19  O   LIG    1        2.517  -2.493  -0.035  0.00  0.00    -0.530 OA
BRANCH  17  20
ATOM     20  C   LIG    1        0.513  -4.297  -0.025  0.00  0.00    +0.290 C 
ATOM     21  C   LIG    1        0.717  -4.794   1.408  0.00  0.00    +0.040 C 
BRANCH  20  22
ATOM     22  C   LIG    1       -0.705  -4.958  -0.618  0.00  0.00    -0.150 A 
ATOM     23  C   LIG    1       -0.570  -6.042  -1.472  0.00  0.00    +0.080 A 
ATOM     24  C   LIG    1       -1.718  -6.619  -1.993  0.00  0.00    -0.030 A 
ATOM     25  C   LIG    1       -2.950  -6.099  -1.646  0.00  0.00    +0.260 A 
ATOM     26  N   LIG    1       -3.041  -5.066  -0.831  0.00  0.00    -0.480 NA
ATOM     27  C   LIG    1       -1.971  -4.496  -0.312  0.00  0.00    +0.260 A 
ENDBRANCH  20  22
ENDBRANCH  17  20
ENDBRANCH   3  16
TORSDOF 6
