REMARK  Name = ZINCpe00000Ra2Xk.0
REMARK                            x       y       z     vdW  Elec       q    Type
REMARK                         _______ _______ _______ _____ _____    ______ ____
ROOT
ATOM      1  C   LIG    1       -0.292   7.429  -0.732  0.00  0.00    +0.250 C 
ATOM      2  C   LIG    1       -1.471   7.012   0.157  0.00  0.00    +0.270 C 
ATOM      3  N   LIG    1       -0.995   5.624   0.047  0.00  0.00    -0.630 N 
ATOM      4  C   LIG    1       -1.554   4.399   0.109  0.00  0.00    +0.630 C 
ATOM      5  O   LIG    1       -2.761   4.285   0.209  0.00  0.00    -0.520 OA
ATOM      6  C   LIG    1        0.359   6.162  -0.153  0.00  0.00    +0.280 C 
ENDROOT
BRANCH   4   7
ATOM      7  C   LIG    1       -0.706   3.203   0.056  0.00  0.00    -0.040 A 
ATOM      8  C   LIG    1       -0.392   2.477  -1.073  0.00  0.00    -0.110 A 
ATOM      9  C   LIG    1        0.433   1.423  -0.667  0.00  0.00    -0.060 A 
ATOM     10  C   LIG    1        0.613   1.528   0.671  0.00  0.00    +0.180 A 
ATOM     11  C   LIG    1       -0.855   2.761  -2.479  0.00  0.00    +0.120 C 
ATOM     12  N   LIG    1       -0.074   2.606   1.123  0.00  0.00    -0.420 N 
ATOM     13  C   LIG    1       -0.134   3.059   2.514  0.00  0.00    +0.320 C 
ENDBRANCH   4   7
BRANCH   1  17
ATOM     14  C   LIG    1        0.808  11.028  -0.199  0.00  0.00    +0.140 C 
ATOM     15  C   LIG    1        1.499  10.273   0.960  0.00  0.00    +0.090 C 
ATOM     16  C   LIG    1        0.939   8.870   0.875  0.00  0.00    +0.520 C 
ATOM     17  N   LIG    1        0.358   8.676  -0.322  0.00  0.00    -0.610 N 
ATOM     18  O   LIG    1        1.004   8.042   1.758  0.00  0.00    -0.510 OA
ATOM     19  C   LIG    1        0.465   9.871  -1.166  0.00  0.00    +0.300 C 
BRANCH  14  24
ATOM     20  C   LIG    1       -2.653  14.473   0.911  0.00  0.00    +0.200 C 
ATOM     21  C   LIG    1       -1.910  13.171   0.755  0.00  0.00    +0.170 A 
ATOM     22  N   LIG    1       -2.330  11.998   1.121  0.00  0.00    -0.380 NA
ATOM     23  O   LIG    1       -1.502  11.153   0.853  0.00  0.00    +0.090 OA
ATOM     24  C   LIG    1       -0.439  11.726   0.280  0.00  0.00    +0.180 A 
ATOM     25  N   LIG    1       -0.691  13.011   0.210  0.00  0.00    -0.470 NA
ENDBRANCH  14  24
ENDBRANCH   1  17
TORSDOF 3
