REMARK  Name = ZINCtV00000L6k7r.0
REMARK                            x       y       z     vdW  Elec       q    Type
REMARK                         _______ _______ _______ _____ _____    ______ ____
ROOT
ATOM      1  C   LIG    1        0.136   2.948  -1.558  0.00  0.00    +0.490 A 
ATOM      2  C   LIG    1       -0.279   1.616  -1.312  0.00  0.00    -0.230 A 
ATOM      3  C   LIG    1       -1.204   1.085  -0.319  0.00  0.00    -0.020 A 
ATOM      4  C   LIG    1       -1.365  -0.236  -0.368  0.00  0.00    -0.020 A 
ATOM      5  S   LIG    1       -0.394  -0.949  -1.642  0.00  0.00    +0.180 S 
ATOM      6  C   LIG    1        0.254   0.612  -2.122  0.00  0.00    +0.120 A 
ATOM      7  N   LIG    1        1.123   0.946  -3.084  0.00  0.00    -0.540 NA
ATOM      8  C   LIG    1        1.477   2.196  -3.274  0.00  0.00    +0.560 A 
ATOM      9  N   LIG    1        1.001   3.181  -2.534  0.00  0.00    -0.590 NA
ENDROOT
BRANCH   3  10
ATOM     10  C   LIG    1       -1.911   1.944   0.661  0.00  0.00    -0.030 A 
ATOM     11  C   LIG    1       -1.184   2.744   1.542  0.00  0.00    +0.030 A 
ATOM     12  C   LIG    1       -1.847   3.546   2.448  0.00  0.00    +0.040 A 
ATOM     13  C   LIG    1       -3.231   3.548   2.491  0.00  0.00    -0.020 A 
ATOM     14  C   LIG    1       -3.957   2.751   1.623  0.00  0.00    +0.040 A 
ATOM     15 CL   LIG    1       -4.059   4.555   3.638  0.00  0.00    -0.060 Cl
ATOM     16  C   LIG    1       -3.304   1.950   0.709  0.00  0.00    +0.060 A 
ENDBRANCH   3  10
BRANCH   1  17
ATOM     17  N   LIG    1       -0.354   3.990  -0.791  0.00  0.00    -0.690 N 
ATOM     18  H   LIG    1       -1.051   3.824  -0.137  0.00  0.00    +0.420 HD
BRANCH  17  19
ATOM     19  C   LIG    1        0.178   5.343  -0.967  0.00  0.00    +0.290 C 
BRANCH  19  20
ATOM     20  C   LIG    1       -0.530   6.299  -0.005  0.00  0.00    +0.210 C 
BRANCH  20  21
ATOM     21  C   LIG    1       -0.071   7.710  -0.271  0.00  0.00    -0.110 A 
ATOM     22  C   LIG    1        0.373   8.067  -1.530  0.00  0.00    +0.040 A 
ATOM     23  C   LIG    1        0.789   9.363  -1.774  0.00  0.00    +0.020 A 
ATOM     24  C   LIG    1        0.771  10.299  -0.758  0.00  0.00    +0.030 A 
ATOM     25  C   LIG    1        0.332   9.942   0.503  0.00  0.00    +0.020 A 
ATOM     26  C   LIG    1       -0.090   8.647   0.748  0.00  0.00    -0.030 A 
ATOM     27 CL   LIG    1       -0.642   8.197   2.331  0.00  0.00    -0.060 Cl
ENDBRANCH  20  21
BRANCH  20  29
ATOM     28  C   LIG    1       -2.705   6.966   0.825  0.00  0.00    +0.200 C 
ATOM     29  N   LIG    1       -1.982   6.210  -0.207  0.00  0.00    -0.520 NA
ATOM     30  C   LIG    1       -2.356   6.668  -1.553  0.00  0.00    +0.190 C 
ENDBRANCH  20  29
ENDBRANCH  19  20
ENDBRANCH  17  19
ENDBRANCH   1  17
TORSDOF 6
