REMARK  Name = ZINCpe000000WC2y.0
REMARK                            x       y       z     vdW  Elec       q    Type
REMARK                         _______ _______ _______ _____ _____    ______ ____
ROOT
ATOM      1  N   LIG    1        2.123   0.034   1.224  0.00  0.00    -0.490 N 
ATOM      2  C   LIG    1        0.757  -0.508   1.234  0.00  0.00    +0.200 C 
ATOM      3  C   LIG    1        0.002  -0.004   0.002  0.00  0.00    +0.200 C 
ATOM      4  N   LIG    1       -0.018   1.465   0.010  0.00  0.00    -0.520 NA
ATOM      5  C   LIG    1        1.348   2.008   0.000  0.00  0.00    +0.190 C 
ATOM      6  C   LIG    1        2.103   1.504   1.232  0.00  0.00    +0.210 C 
ENDROOT
BRANCH   1  11
ATOM      7  C   LIG    1        4.890  -0.596   3.559  0.00  0.00    +0.110 A 
ATOM      8  C   LIG    1        4.247  -1.478   4.417  0.00  0.00    +0.150 A 
ATOM      9  N   LIG    1        2.991  -1.822   4.215  0.00  0.00    -0.430 NA
ATOM     10  C   LIG    1        2.295  -1.350   3.200  0.00  0.00    +0.180 A 
ATOM     11  C   LIG    1        2.867  -0.462   2.297  0.00  0.00    +0.100 A 
ATOM     12  C   LIG    1        4.194  -0.080   2.473  0.00  0.00    +0.000 A 
BRANCH   7  14
ATOM     13  C   LIG    1        6.833  -0.827   4.910  0.00  0.00    +0.250 C 
ATOM     14  O   LIG    1        6.186  -0.247   3.776  0.00  0.00    -0.310 OA
ENDBRANCH   7  14
ENDBRANCH   1  11
BRANCH   4  15
ATOM     15  C   LIG    1       -0.800   1.987  -1.118  0.00  0.00    +0.220 C 
BRANCH  15  16
ATOM     16  C   LIG    1       -1.005   3.470  -0.944  0.00  0.00    +0.520 C 
ATOM     17  N   LIG    1       -1.700   4.167  -1.865  0.00  0.00    -0.620 N 
ATOM     18  C   LIG    1       -1.914   5.615  -1.716  0.00  0.00    +0.260 C 
ATOM     19  C   LIG    1       -1.509   6.301  -3.026  0.00  0.00    +0.140 C 
ATOM     20  O   LIG    1       -2.184   5.668  -4.116  0.00  0.00    -0.370 OA
ATOM     21  C   LIG    1       -1.846   4.291  -4.294  0.00  0.00    +0.130 C 
ATOM     22  C   LIG    1       -2.576   3.739  -5.520  0.00  0.00    +0.070 C 
ATOM     23  C   LIG    1       -1.899   7.779  -2.971  0.00  0.00    +0.080 C 
ATOM     24  C   LIG    1       -2.262   3.503  -3.052  0.00  0.00    +0.250 C 
ATOM     25  O   LIG    1       -0.545   4.036   0.025  0.00  0.00    -0.520 OA
ENDBRANCH  15  16
ENDBRANCH   4  15
TORSDOF 4
