REMARK  Name = ZINCrD00000F5LC5.0
REMARK                            x       y       z     vdW  Elec       q    Type
REMARK                         _______ _______ _______ _____ _____    ______ ____
ROOT
ATOM      1  C   LIG    1       -1.229   1.759   0.017  0.00  0.00    -0.120 A 
ATOM      2  C   LIG    1       -1.240   3.155   0.031  0.00  0.00    +0.060 A 
ATOM      3  C   LIG    1       -0.050   3.854   0.024  0.00  0.00    +0.050 A 
ATOM      4  C   LIG    1        1.155   3.176   0.008  0.00  0.00    +0.040 A 
ATOM      5  C   LIG    1        1.177   1.787   0.000  0.00  0.00    +0.130 A 
ATOM      6  C   LIG    1       -0.013   1.076   0.008  0.00  0.00    +0.110 A 
ENDROOT
BRANCH   5   7
ATOM      7  N   LIG    1        2.401   1.105  -0.015  0.00  0.00    -0.300 N 
ATOM      8  N   LIG    1        2.678  -0.107   0.631  0.00  0.00    -0.240 NA
ATOM      9  C   LIG    1        3.922  -0.428   0.384  0.00  0.00    +0.270 A 
ATOM     10  C   LIG    1        4.481   0.573  -0.419  0.00  0.00    -0.010 A 
ATOM     11  C   LIG    1        3.526   1.503  -0.650  0.00  0.00    -0.020 A 
BRANCH  11  12
ATOM     12  C   LIG    1        3.688   2.758  -1.469  0.00  0.00    +0.540 C 
ATOM     13  F   LIG    1        2.461   3.096  -2.051  0.00  0.00    -0.170 F 
ATOM     14  F   LIG    1        4.636   2.540  -2.474  0.00  0.00    -0.160 F 
ATOM     15  F   LIG    1        4.116   3.802  -0.642  0.00  0.00    -0.160 F 
ENDBRANCH  11  12
ENDBRANCH   5   7
BRANCH   1  18
ATOM     16  N   LIG    1       -3.676   1.670   0.029  0.00  0.00    -0.720 N 
ATOM     17  H   LIG    1       -3.685   2.640   0.034  0.00  0.00    +0.410 HD
ATOM     18  C   LIG    1       -2.502   1.007   0.019  0.00  0.00    +0.570 C 
ATOM     19  O   LIG    1       -2.490  -0.208   0.013  0.00  0.00    -0.510 OA
BRANCH  16  20
ATOM     20  C   LIG    1       -4.937   0.925   0.030  0.00  0.00    +0.390 C 
BRANCH  20  21
ATOM     21  C   LIG    1       -5.305   0.579  -1.352  0.00  0.00    +0.190 C 
ATOM     22  N   LIG    1       -5.588   0.312  -2.420  0.00  0.00    -0.400 NA
ENDBRANCH  20  21
BRANCH  20  23
ATOM     23  C   LIG    1       -6.038   1.788   0.650  0.00  0.00    +0.070 C 
BRANCH  23  24
ATOM     24  C   LIG    1       -5.717   2.044   2.124  0.00  0.00    +0.180 C 
BRANCH  24  25
ATOM     25  O   LIG    1       -6.745   2.850   2.702  0.00  0.00    -0.380 OA
BRANCH  25  27
ATOM     26  C   LIG    1       -7.167   4.506   4.411  0.00  0.00    +0.040 C 
ATOM     27  C   LIG    1       -6.541   3.149   4.085  0.00  0.00    +0.140 C 
ATOM     28  C   LIG    1       -7.196   2.065   4.943  0.00  0.00    +0.020 C 
ENDBRANCH  25  27
ENDBRANCH  24  25
ENDBRANCH  23  24
ENDBRANCH  20  23
ENDBRANCH  16  20
ENDBRANCH   1  18
TORSDOF 9
