REMARK  Name = ZINCrD00000hQ6e3.0
REMARK                            x       y       z     vdW  Elec       q    Type
REMARK                         _______ _______ _______ _____ _____    ______ ____
ROOT
ATOM      1  C   LIG    1        3.517   4.992   1.535  0.00  0.00    +0.400 A 
ATOM      2  N   LIG    1        2.699   4.621   2.511  0.00  0.00    -0.530 NA
ATOM      3  C   LIG    1        2.663   3.372   2.947  0.00  0.00    +0.260 A 
ATOM      4  N   LIG    1        3.422   2.422   2.454  0.00  0.00    -0.460 NA
ATOM      5  C   LIG    1        4.286   2.688   1.462  0.00  0.00    +0.160 A 
ATOM      6  C   LIG    1        5.111   1.698   0.912  0.00  0.00    +0.050 A 
ATOM      7  C   LIG    1        5.975   2.023  -0.091  0.00  0.00    +0.070 A 
ATOM      8  C   LIG    1        6.044   3.322  -0.585  0.00  0.00    +0.030 A 
ATOM      9  C   LIG    1        5.255   4.310  -0.072  0.00  0.00    +0.090 A 
ATOM     10  C   LIG    1        4.362   4.010   0.962  0.00  0.00    -0.120 A 
ENDROOT
BRANCH   1  17
ATOM     11  C   LIG    1        2.740   9.197  -2.563  0.00  0.00    +0.530 C 
ATOM     12  N   LIG    1        2.432   8.374  -1.542  0.00  0.00    -0.620 N 
ATOM     13  C   LIG    1        1.321   8.567  -0.604  0.00  0.00    +0.260 C 
ATOM     14  C   LIG    1        1.602   7.678   0.616  0.00  0.00    -0.010 C 
ATOM     15  C   LIG    1        2.544   8.419   1.595  0.00  0.00    +0.050 C 
ATOM     16  C   LIG    1        3.342   7.241   2.209  0.00  0.00    +0.220 C 
ATOM     17  N   LIG    1        3.543   6.296   1.091  0.00  0.00    -0.470 N 
ATOM     18  C   LIG    1        2.498   6.531   0.075  0.00  0.00    +0.180 C 
ATOM     19  C   LIG    1        3.155   7.148  -1.195  0.00  0.00    +0.280 C 
ATOM     20  O   LIG    1        3.620   8.894  -3.341  0.00  0.00    -0.530 OA
BRANCH  11  22
ATOM     21  C   LIG    1        2.874  11.495  -3.487  0.00  0.00    +0.060 C 
ATOM     22  C   LIG    1        1.992  10.493  -2.740  0.00  0.00    -0.020 C 
ATOM     23  C   LIG    1        0.715  10.239  -3.544  0.00  0.00    +0.050 C 
ENDBRANCH  11  22
ENDBRANCH   1  17
BRANCH   3  24
ATOM     24  C   LIG    1        1.709   3.025   4.060  0.00  0.00    +0.550 C 
ATOM     25  F   LIG    1        1.255   4.200   4.668  0.00  0.00    -0.160 F 
ATOM     26  F   LIG    1        2.365   2.232   5.008  0.00  0.00    -0.160 F 
ATOM     27  F   LIG    1        0.619   2.320   3.537  0.00  0.00    -0.160 F 
ENDBRANCH   3  24
TORSDOF 3
