REMARK  Name = ZINCrD0000074spY.0
REMARK                            x       y       z     vdW  Elec       q    Type
REMARK                         _______ _______ _______ _____ _____    ______ ____
ROOT
ATOM      1  C   LIG    1       -0.361   3.755   8.676  0.00  0.00    +0.560 C 
ATOM      2  N   LIG    1       -1.102   4.743   9.216  0.00  0.00    -0.630 N 
ATOM      3  H   LIG    1       -1.770   5.197   8.678  0.00  0.00    +0.420 HD
ATOM      4  O   LIG    1        0.477   3.186   9.350  0.00  0.00    -0.490 OA
ENDROOT
BRANCH   2   5
ATOM      5  C   LIG    1       -0.909   5.111  10.537  0.00  0.00    +0.040 A 
ATOM      6  C   LIG    1       -1.604   6.096  11.177  0.00  0.00    -0.200 A 
ATOM      7  C   LIG    1       -1.200   6.277  12.568  0.00  0.00    -0.070 A 
ATOM      8  C   LIG    1       -0.231   5.441  12.929  0.00  0.00    -0.270 A 
ATOM      9  C   LIG    1        0.155   5.669  14.385  0.00  0.00    +0.120 C 
ATOM     10  C   LIG    1       -1.021   6.464  14.987  0.00  0.00    +0.040 C 
ATOM     11  C   LIG    1       -1.585   7.175  13.741  0.00  0.00    +0.100 C 
ATOM     12  S   LIG    1        0.222   4.392  11.585  0.00  0.00    +0.320 S 
BRANCH   6  13
ATOM     13  C   LIG    1       -2.652   6.891  10.532  0.00  0.00    +0.590 C 
ATOM     14  O   LIG    1       -3.810   6.516  10.566  0.00  0.00    -0.530 OA
ATOM     15  N   LIG    1       -2.335   8.039   9.900  0.00  0.00    -0.850 N 
ATOM     16  H   LIG    1       -3.029   8.566   9.473  0.00  0.00    +0.400 HD
ATOM     17  H   LIG    1       -1.413   8.338   9.873  0.00  0.00    +0.400 HD
ENDBRANCH   6  13
ENDBRANCH   2   5
BRANCH   1  21
ATOM     18  C   LIG    1       -0.952   2.627   4.624  0.00  0.00    +0.200 A 
ATOM     19  C   LIG    1       -1.714   3.650   5.178  0.00  0.00    +0.000 A 
ATOM     20  C   LIG    1       -1.528   4.015   6.493  0.00  0.00    +0.070 A 
ATOM     21  C   LIG    1       -0.566   3.363   7.268  0.00  0.00    -0.140 A 
ATOM     22  C   LIG    1        0.201   2.338   6.707  0.00  0.00    +0.120 A 
ATOM     23  C   LIG    1        0.007   1.975   5.393  0.00  0.00    +0.030 A 
BRANCH  18  30
ATOM     24  C   LIG    1       -3.672   2.631   3.195  0.00  0.00    +0.160 C 
ATOM     25  C   LIG    1       -2.331   2.245   2.627  0.00  0.00    +0.090 A 
ATOM     26  C   LIG    1       -2.089   1.831   1.362  0.00  0.00    -0.100 A 
ATOM     27  C   LIG    1       -0.718   1.572   1.248  0.00  0.00    +0.090 A 
ATOM     28  N   LIG    1       -0.153   1.829   2.399  0.00  0.00    -0.290 NA
ATOM     29  C   LIG    1       -0.013   1.086   0.008  0.00  0.00    +0.160 C 
ATOM     30  N   LIG    1       -1.146   2.256   3.290  0.00  0.00    -0.340 N 
ENDBRANCH  18  30
ENDBRANCH   1  21
TORSDOF 4
