REMARK  Name = ZINCqH0000034DVe.2
REMARK                            x       y       z     vdW  Elec       q    Type
REMARK                         _______ _______ _______ _____ _____    ______ ____
ROOT
ATOM      1  C   LIG    1       -1.431   4.350  -0.099  0.00  0.00    +0.260 C 
ENDROOT
BRANCH   1   2
ATOM      2  C   LIG    1       -0.884   2.947  -0.044  0.00  0.00    -0.210 A 
ATOM      3  C   LIG    1        0.357   2.592   0.355  0.00  0.00    +0.250 A 
ATOM      4  N   LIG    1        0.459   1.249   0.257  0.00  0.00    -0.470 N 
ATOM      5  H   LIG    1        1.241   0.720   0.477  0.00  0.00    +0.440 HD
ATOM      6  N   LIG    1       -0.764   0.753  -0.212  0.00  0.00    -0.280 NA
ATOM      7  C   LIG    1       -1.577   1.772  -0.395  0.00  0.00    +0.130 A 
BRANCH   7   8
ATOM      8  C   LIG    1       -2.976   1.696  -0.884  0.00  0.00    +0.010 A 
ATOM      9  C   LIG    1       -3.974   2.444  -0.263  0.00  0.00    +0.050 A 
ATOM     10  C   LIG    1       -5.273   2.374  -0.724  0.00  0.00    +0.030 A 
ATOM     11  C   LIG    1       -5.587   1.555  -1.795  0.00  0.00    -0.030 A 
ATOM     12  C   LIG    1       -4.599   0.806  -2.412  0.00  0.00    +0.030 A 
ATOM     13 CL   LIG    1       -7.224   1.467  -2.367  0.00  0.00    -0.070 Cl
ATOM     14  C   LIG    1       -3.297   0.873  -1.961  0.00  0.00    +0.050 A 
ENDBRANCH   7   8
ENDBRANCH   1   2
BRANCH   1  16
ATOM     15  C   LIG    1       -0.150   5.057  -2.029  0.00  0.00    +0.190 C 
ATOM     16  N   LIG    1       -1.495   4.796  -1.498  0.00  0.00    -0.530 NA
BRANCH  16  17
ATOM     17  C   LIG    1       -2.354   5.979  -1.634  0.00  0.00    +0.230 C 
BRANCH  17  18
ATOM     18  C   LIG    1       -2.594   6.260  -3.095  0.00  0.00    -0.020 A 
ATOM     19  C   LIG    1       -1.738   7.095  -3.788  0.00  0.00    -0.010 A 
ATOM     20  C   LIG    1       -1.955   7.348  -5.130  0.00  0.00    +0.110 A 
ATOM     21  C   LIG    1       -3.035   6.775  -5.776  0.00  0.00    -0.660 A 
ATOM     22  C   LIG    1       -3.894   5.945  -5.081  0.00  0.00    +0.120 A 
ATOM     23  C   LIG    1       -3.674   5.687  -3.741  0.00  0.00    +0.010 A 
BRANCH  21  24
ATOM     24  S   LIG    1       -3.315   7.103  -7.484  0.00  0.00    +2.500 S 
ATOM     25  O   LIG    1       -4.032   5.966  -7.946  0.00  0.00    -0.940 OA
ATOM     26  O   LIG    1       -2.027   7.416  -7.997  0.00  0.00    -0.940 OA
ATOM     27  C   LIG    1       -4.378   8.573  -7.494  0.00  0.00    -0.260 C 
ENDBRANCH  21  24
ENDBRANCH  17  18
ENDBRANCH  16  17
ENDBRANCH   1  16
TORSDOF 6
