REMARK  Name = ZINCpe000000WlSh.0
REMARK                            x       y       z     vdW  Elec       q    Type
REMARK                         _______ _______ _______ _____ _____    ______ ____
ROOT
ATOM      1  C   LIG    1       -4.512   4.078   0.877  0.00  0.00    +0.240 A 
ATOM      2  C   LIG    1       -5.514   3.759   1.780  0.00  0.00    -0.090 A 
ATOM      3  C   LIG    1       -6.176   4.768   2.459  0.00  0.00    +0.200 A 
ATOM      4  C   LIG    1       -5.836   6.101   2.233  0.00  0.00    +0.020 A 
ATOM      5  O   LIG    1       -6.496   7.083   2.904  0.00  0.00    -0.290 OA
ATOM      6  C   LIG    1       -7.871   6.839   3.212  0.00  0.00    +0.310 C 
ATOM      7  C   LIG    1       -8.024   5.451   3.781  0.00  0.00    +0.490 C 
ATOM      8  O   LIG    1       -8.890   5.220   4.598  0.00  0.00    -0.490 OA
ATOM      9  C   LIG    1       -4.830   6.414   1.335  0.00  0.00    +0.200 A 
ATOM     10  N   LIG    1       -7.192   4.466   3.377  0.00  0.00    -0.660 N 
ATOM     11  H   LIG    1       -7.295   3.564   3.718  0.00  0.00    +0.420 HD
ATOM     12  C   LIG    1       -4.173   5.405   0.655  0.00  0.00    -0.710 A 
ENDROOT
BRANCH  12  13
ATOM     13  S   LIG    1       -2.898   5.806  -0.493  0.00  0.00    +2.700 S 
ATOM     14  O   LIG    1       -3.188   5.085  -1.683  0.00  0.00    -0.940 OA
ATOM     15  O   LIG    1       -2.755   7.219  -0.456  0.00  0.00    -0.950 OA
BRANCH  13  16
ATOM     16  N   LIG    1       -1.487   5.177   0.103  0.00  0.00    -1.110 NA
ATOM     17  H   LIG    1       -1.033   4.466  -0.375  0.00  0.00    +0.420 HD
BRANCH  16  18
ATOM     18  C   LIG    1       -0.924   5.696   1.352  0.00  0.00    +0.260 C 
ATOM     19  C   LIG    1       -1.363   4.806   2.517  0.00  0.00    +0.000 C 
ATOM     20  C   LIG    1       -0.775   5.347   3.822  0.00  0.00    +0.020 C 
ATOM     21  C   LIG    1        0.752   5.351   3.730  0.00  0.00    +0.010 C 
ATOM     22  C   LIG    1        1.191   6.240   2.566  0.00  0.00    +0.030 C 
ATOM     23  C   LIG    1        0.603   5.699   1.261  0.00  0.00    +0.000 C 
BRANCH  23  24
ATOM     24  C   LIG    1        1.042   6.589   0.096  0.00  0.00    +0.180 C 
BRANCH  24  25
ATOM     25  O   LIG    1        2.460   6.501  -0.063  0.00  0.00    -0.570 OA
ATOM     26  H   LIG    1        2.809   7.040  -0.785  0.00  0.00    +0.380 HD
ENDBRANCH  24  25
ENDBRANCH  23  24
ENDBRANCH  16  18
ENDBRANCH  13  16
ENDBRANCH  12  13
BRANCH   1  28
ATOM     27  C   LIG    1       -4.258   1.746   0.486  0.00  0.00    +0.250 C 
ATOM     28  O   LIG    1       -3.859   3.090   0.209  0.00  0.00    -0.300 OA
ENDBRANCH   1  28
TORSDOF 6
