REMARK  Name = ZINCqH0000006DUS.0
REMARK                            x       y       z     vdW  Elec       q    Type
REMARK                         _______ _______ _______ _____ _____    ______ ____
ROOT
ATOM      1  C   LIG    1        1.134   1.832   0.001  0.00  0.00    +0.220 A 
ATOM      2  C   LIG    1        0.921   3.188   0.010  0.00  0.00    -0.330 A 
ATOM      3  S   LIG    1       -0.807   3.514   0.028  0.00  0.00    +0.240 S 
ATOM      4  C   LIG    1       -1.170   1.794   0.017  0.00  0.00    -0.080 A 
ATOM      5  C   LIG    1       -0.013   1.076   0.008  0.00  0.00    -0.060 A 
ENDROOT
BRANCH   4   6
ATOM      6  C   LIG    1       -2.530   1.214   0.020  0.00  0.00    -0.040 A 
ATOM      7  C   LIG    1       -2.700  -0.171   0.008  0.00  0.00    +0.040 A 
ATOM      8  C   LIG    1       -3.972  -0.706   0.015  0.00  0.00    +0.010 A 
ATOM      9  C   LIG    1       -5.077   0.127   0.025  0.00  0.00    +0.030 A 
ATOM     10  C   LIG    1       -4.914   1.501   0.032  0.00  0.00    +0.020 A 
ATOM     11  C   LIG    1       -3.648   2.049   0.030  0.00  0.00    +0.030 A 
ENDBRANCH   4   6
BRANCH   1  13
ATOM     12  C   LIG    1        2.455  -0.144  -0.022  0.00  0.00    +0.250 C 
ATOM     13  O   LIG    1        2.376   1.283  -0.014  0.00  0.00    -0.270 OA
ENDBRANCH   1  13
BRANCH   2  14
ATOM     14  C   LIG    1        1.936   4.173   0.005  0.00  0.00    +0.550 C 
ATOM     15  O   LIG    1        3.107   3.840  -0.007  0.00  0.00    -0.490 OA
BRANCH  14  16
ATOM     16  O   LIG    1        1.607   5.482   0.015  0.00  0.00    -0.350 OA
BRANCH  16  17
ATOM     17  C   LIG    1        2.683   6.422   0.010  0.00  0.00    +0.360 C 
BRANCH  17  18
ATOM     18  C   LIG    1        2.127   7.823   0.022  0.00  0.00    +0.170 A 
ATOM     19  N   LIG    1        1.836   8.553  -1.024  0.00  0.00    -0.270 NA
ATOM     20  N   LIG    1        1.378   9.696  -0.643  0.00  0.00    -0.290 NA
ATOM     21  C   LIG    1        1.366   9.747   0.654  0.00  0.00    +0.190 A 
ATOM     22  C   LIG    1        0.919  10.878   1.546  0.00  0.00    +0.160 C 
ATOM     23  C   LIG    1        0.720  10.321   2.962  0.00  0.00    +0.030 C 
ATOM     24  C   LIG    1        1.948   9.496   3.358  0.00  0.00    +0.040 C 
ATOM     25  C   LIG    1        1.994   8.210   2.523  0.00  0.00    +0.290 C 
ATOM     26  N   LIG    1        1.842   8.561   1.112  0.00  0.00    -0.460 N 
ENDBRANCH  17  18
ENDBRANCH  16  17
ENDBRANCH  14  16
ENDBRANCH   2  14
TORSDOF 6
