REMARK  Name = ZINCrD00000dBYnu.0
REMARK                            x       y       z     vdW  Elec       q    Type
REMARK                         _______ _______ _______ _____ _____    ______ ____
ROOT
ATOM      1  N   LIG    1       -5.782   1.555  -1.332  0.00  0.00    -0.730 N 
ATOM      2  H   LIG    1       -5.233   1.592  -0.533  0.00  0.00    +0.400 HD
ATOM      3  C   LIG    1       -5.374   2.170  -2.460  0.00  0.00    +0.570 C 
ATOM      4  O   LIG    1       -6.062   2.123  -3.461  0.00  0.00    -0.540 OA
ENDROOT
BRANCH   3   5
ATOM      5  C   LIG    1       -4.092   2.899  -2.479  0.00  0.00    -0.180 A 
ATOM      6  C   LIG    1       -3.685   3.525  -3.643  0.00  0.00    +0.200 A 
ATOM      7  C   LIG    1       -2.463   4.221  -3.661  0.00  0.00    -0.220 A 
ATOM      8  C   LIG    1       -1.766   4.940  -4.618  0.00  0.00    +0.320 A 
ATOM      9  N   LIG    1       -0.636   5.385  -4.054  0.00  0.00    -0.420 N 
ATOM     10  H   LIG    1        0.037   5.918  -4.505  0.00  0.00    +0.450 HD
ATOM     11  N   LIG    1       -0.570   4.968  -2.720  0.00  0.00    -0.290 NA
ATOM     12  C   LIG    1       -1.648   4.263  -2.435  0.00  0.00    +0.120 A 
ATOM     13  C   LIG    1       -2.119   3.598  -1.279  0.00  0.00    -0.030 A 
ATOM     14 CL   LIG    1       -1.182   3.627   0.182  0.00  0.00    -0.050 Cl
ATOM     15  C   LIG    1       -3.304   2.945  -1.311  0.00  0.00    +0.100 A 
ENDBRANCH   3   5
BRANCH   1  16
ATOM     16  C   LIG    1       -7.055   0.831  -1.313  0.00  0.00    +0.260 C 
BRANCH  16  17
ATOM     17  C   LIG    1       -7.279   0.231   0.077  0.00  0.00    +0.010 C 
BRANCH  17  23
ATOM     18  C   LIG    1       -8.108  -2.086   1.929  0.00  0.00    +0.560 C 
ATOM     19  N   LIG    1       -8.853  -1.076   1.437  0.00  0.00    -0.610 N 
ATOM     20  C   LIG    1       -9.996  -0.441   2.117  0.00  0.00    +0.250 C 
ATOM     21  C   LIG    1      -10.853   0.162   0.975  0.00  0.00    +0.040 C 
ATOM     22  C   LIG    1       -9.758   0.650  -0.010  0.00  0.00    +0.040 C 
ATOM     23  C   LIG    1       -8.661  -0.425   0.132  0.00  0.00    +0.220 C 
ATOM     24  O   LIG    1       -7.134  -2.473   1.319  0.00  0.00    -0.530 OA
BRANCH  18  27
ATOM     25  C   LIG    1       -7.600  -3.873   3.742  0.00  0.00    +0.000 C 
ATOM     26  C   LIG    1       -7.558  -2.507   4.431  0.00  0.00    +0.060 C 
ATOM     27  C   LIG    1       -8.486  -2.733   3.236  0.00  0.00    -0.070 C 
BRANCH  25  29
ATOM     28  C   LIG    1       -7.255  -6.110   4.800  0.00  0.00    +0.030 C 
ATOM     29  C   LIG    1       -8.283  -5.020   4.489  0.00  0.00    +0.040 C 
ENDBRANCH  25  29
ENDBRANCH  18  27
ENDBRANCH  17  23
ENDBRANCH  16  17
ENDBRANCH   1  16
TORSDOF 6
