REMARK  Name = ZINCrD00000F5LmJ.0
REMARK                            x       y       z     vdW  Elec       q    Type
REMARK                         _______ _______ _______ _____ _____    ______ ____
ROOT
ATOM      1  C   LIG    1       -2.935   3.580  -0.035  0.00  0.00    +0.190 C 
ATOM      2  N   LIG    1       -2.818   4.857  -0.210  0.00  0.00    -0.350 NA
ATOM      3  C   LIG    1       -4.295   2.972   0.189  0.00  0.00    +0.100 C 
ENDROOT
BRANCH   1   7
ATOM      4  C   LIG    1        0.515   1.106  -0.089  0.00  0.00    +0.170 A 
ATOM      5  C   LIG    1       -0.739   0.542   0.117  0.00  0.00    +0.010 A 
ATOM      6  C   LIG    1       -1.861   1.341   0.130  0.00  0.00    +0.080 A 
ATOM      7  C   LIG    1       -1.736   2.721  -0.054  0.00  0.00    -0.070 A 
ATOM      8  C   LIG    1       -0.474   3.283  -0.261  0.00  0.00    +0.080 A 
ATOM      9  C   LIG    1        0.643   2.478  -0.278  0.00  0.00    -0.020 A 
BRANCH   4  12
ATOM     10  C   LIG    1        2.764  -1.881  -0.503  0.00  0.00    +0.110 C 
ATOM     11  C   LIG    1        1.572  -0.964  -0.592  0.00  0.00    +0.510 C 
ATOM     12  N   LIG    1        1.650   0.292  -0.107  0.00  0.00    -0.680 N 
ATOM     13  H   LIG    1        2.495   0.630   0.229  0.00  0.00    +0.410 HD
ATOM     14  O   LIG    1        0.542  -1.354  -1.099  0.00  0.00    -0.520 OA
ENDBRANCH   4  12
ENDBRANCH   1   7
BRANCH   2  15
ATOM     15  O   LIG    1       -3.969   5.683  -0.192  0.00  0.00    -0.210 OA
BRANCH  15  16
ATOM     16  C   LIG    1       -3.692   7.069  -0.399  0.00  0.00    +0.240 C 
BRANCH  16  17
ATOM     17  C   LIG    1       -4.981   7.849  -0.360  0.00  0.00    +0.520 C 
ATOM     18  N   LIG    1       -4.979   9.168  -0.637  0.00  0.00    -0.550 N 
ATOM     19  C   LIG    1       -3.715   9.885  -0.850  0.00  0.00    +0.270 C 
ATOM     20  C   LIG    1       -3.788  11.206  -0.073  0.00  0.00    +0.020 C 
ATOM     21  C   LIG    1       -4.914  12.060  -0.656  0.00  0.00    +0.080 C 
ATOM     22  C   LIG    1       -6.191  11.266  -0.736  0.00  0.00    -0.120 A 
ATOM     23  C   LIG    1       -7.397  11.942  -0.821  0.00  0.00    +0.030 A 
ATOM     24  C   LIG    1       -8.586  11.238  -0.916  0.00  0.00    -0.020 A 
ATOM     25  C   LIG    1       -8.577   9.855  -0.910  0.00  0.00    +0.030 A 
ATOM     26  C   LIG    1       -7.380   9.174  -0.819  0.00  0.00    +0.010 A 
ATOM     27  C   LIG    1       -6.184   9.878  -0.733  0.00  0.00    +0.150 A 
ATOM     28  O   LIG    1       -6.020   7.290  -0.080  0.00  0.00    -0.490 OA
ENDBRANCH  16  17
ENDBRANCH  15  16
ENDBRANCH   2  15
TORSDOF 5
