REMARK  Name = ZINCvU0000000IUZ.0
REMARK                            x       y       z     vdW  Elec       q    Type
REMARK                         _______ _______ _______ _____ _____    ______ ____
ROOT
ATOM      1  C   LIG    1       -3.445   3.235  -2.510  0.00  0.00    +0.100 A 
ATOM      2  C   LIG    1       -2.597   2.888  -3.481  0.00  0.00    -0.060 A 
ATOM      3  S   LIG    1       -1.168   2.180  -2.731  0.00  0.00    +0.150 S 
ATOM      4  C   LIG    1       -1.850   2.420  -1.182  0.00  0.00    +0.270 A 
ATOM      5  N   LIG    1       -3.020   2.967  -1.289  0.00  0.00    -0.460 NA
ENDROOT
BRANCH   4   6
ATOM      6  N   LIG    1       -1.240   2.072   0.020  0.00  0.00    -0.480 N 
ATOM      7  C   LIG    1       -1.823   2.397   1.190  0.00  0.00    +0.510 C 
ATOM      8  O   LIG    1       -2.923   2.910   1.198  0.00  0.00    -0.460 OA
ATOM      9  C   LIG    1       -1.110   2.124   2.489  0.00  0.00    +0.120 C 
BRANCH   6  10
ATOM     10  C   LIG    1       -0.019   1.384   0.012  0.00  0.00    +0.060 A 
ATOM     11  C   LIG    1        1.177   2.089   0.006  0.00  0.00    +0.070 A 
ATOM     12  C   LIG    1        2.379   1.409  -0.007  0.00  0.00    +0.020 A 
ATOM     13  C   LIG    1        2.393   0.026  -0.014  0.00  0.00    +0.070 A 
ATOM     14  C   LIG    1        1.205  -0.681  -0.008  0.00  0.00    +0.000 A 
ATOM     15  C   LIG    1       -0.002  -0.006   0.005  0.00  0.00    +0.120 A 
ATOM     16  F   LIG    1       -1.163  -0.697   0.011  0.00  0.00    -0.120 F 
ENDBRANCH   6  10
ENDBRANCH   4   6
BRANCH   1  17
ATOM     17  C   LIG    1       -4.781   3.874  -2.785  0.00  0.00    +0.210 C 
BRANCH  17  18
ATOM     18  S   LIG    1       -6.039   2.587  -2.974  0.00  0.00    +0.010 S 
BRANCH  18  23
ATOM     19  N   LIG    1       -8.723   3.130  -3.500  0.00  0.00    -0.400 N 
ATOM     20  C   LIG    1       -9.521   4.237  -3.692  0.00  0.00    +0.140 A 
ATOM     21  C   LIG    1       -8.728   5.316  -3.582  0.00  0.00    +0.170 A 
ATOM     22  N   LIG    1       -7.477   4.898  -3.325  0.00  0.00    -0.480 NA
ATOM     23  C   LIG    1       -7.457   3.586  -3.279  0.00  0.00    +0.190 A 
BRANCH  19  27
ATOM     24  C   LIG    1       -9.944  -0.859  -3.584  0.00  0.00    +0.140 A 
ATOM     25  C   LIG    1      -10.636   0.062  -2.811  0.00  0.00    +0.000 A 
ATOM     26  C   LIG    1      -10.232   1.383  -2.783  0.00  0.00    +0.070 A 
ATOM     27  C   LIG    1       -9.134   1.788  -3.529  0.00  0.00    +0.070 A 
ATOM     28  C   LIG    1       -8.445   0.867  -4.306  0.00  0.00    +0.070 A 
ATOM     29  C   LIG    1       -8.847  -0.454  -4.330  0.00  0.00    -0.050 A 
BRANCH  24  31
ATOM     30  C   LIG    1       -9.584  -3.052  -4.429  0.00  0.00    +0.240 C 
ATOM     31  O   LIG    1      -10.342  -2.158  -3.611  0.00  0.00    -0.310 OA
ENDBRANCH  24  31
ENDBRANCH  19  27
ENDBRANCH  18  23
ENDBRANCH  17  18
ENDBRANCH   1  17
TORSDOF 7
