REMARK  Name = ZINCrH000004v4tB.0
REMARK                            x       y       z     vdW  Elec       q    Type
REMARK                         _______ _______ _______ _____ _____    ______ ____
ROOT
ATOM      1  O   LIG    1       -3.929  -1.146   1.779  0.00  0.00    -0.570 OA
ATOM      2  C   LIG    1       -4.632  -2.106   1.528  0.00  0.00    +0.710 C 
ATOM      3  N   LIG    1       -5.936  -1.929   1.238  0.00  0.00    -0.730 N 
ATOM      4  H   LIG    1       -6.497  -2.695   1.038  0.00  0.00    +0.400 HD
ATOM      5  N   LIG    1       -4.107  -3.347   1.540  0.00  0.00    -0.690 N 
ATOM      6  H   LIG    1       -4.647  -4.105   1.264  0.00  0.00    +0.410 HD
ENDROOT
BRANCH   3   7
ATOM      7  C   LIG    1       -6.507  -0.580   1.225  0.00  0.00    +0.260 C 
ATOM      8  C   LIG    1       -6.920  -0.187   2.646  0.00  0.00    +0.010 C 
ATOM      9  C   LIG    1       -7.484   1.237   2.634  0.00  0.00    +0.280 C 
ATOM     10  N   LIG    1       -8.572   1.307   1.649  0.00  0.00    -0.610 N 
ATOM     11  C   LIG    1       -8.307   0.866   0.272  0.00  0.00    +0.300 C 
ATOM     12  C   LIG    1       -9.789   1.766   2.001  0.00  0.00    +0.590 C 
ATOM     13  O   LIG    1      -10.711   1.712   1.211  0.00  0.00    -0.530 OA
ATOM     14  C   LIG    1       -7.734  -0.554   0.310  0.00  0.00    +0.030 C 
BRANCH  12  15
ATOM     15  C   LIG    1      -10.002   2.334   3.344  0.00  0.00    -0.230 A 
ATOM     16  C   LIG    1       -9.123   3.081   4.072  0.00  0.00    +0.230 A 
ATOM     17  O   LIG    1       -9.702   3.402   5.233  0.00  0.00    -0.170 OA
ATOM     18  C   LIG    1      -10.939   2.886   5.310  0.00  0.00    +0.180 A 
ATOM     19  C   LIG    1      -11.204   2.209   4.182  0.00  0.00    -0.010 A 
ENDBRANCH  12  15
ENDBRANCH   3   7
BRANCH   5  20
ATOM     20  C   LIG    1       -2.784  -3.543   1.950  0.00  0.00    +0.200 A 
ATOM     21  C   LIG    1       -2.233  -2.733   2.935  0.00  0.00    +0.030 A 
ATOM     22  C   LIG    1       -0.928  -2.933   3.341  0.00  0.00    +0.090 A 
ATOM     23  C   LIG    1       -0.169  -3.935   2.766  0.00  0.00    -0.200 A 
ATOM     24  C   LIG    1       -0.712  -4.739   1.781  0.00  0.00    +0.090 A 
ATOM     25  C   LIG    1       -2.016  -4.544   1.369  0.00  0.00    -0.010 A 
BRANCH  23  26
ATOM     26  C   LIG    1        1.254  -4.150   3.212  0.00  0.00    +0.510 C 
ATOM     27  F   LIG    1        1.800  -2.933   3.633  0.00  0.00    -0.180 F 
ATOM     28  F   LIG    1        2.006  -4.655   2.146  0.00  0.00    -0.180 F 
ATOM     29  F   LIG    1        1.277  -5.063   4.272  0.00  0.00    -0.180 F 
ENDBRANCH  23  26
ENDBRANCH   5  20
TORSDOF 4
