REMARK  Name = ZINCpe000000YhN3.1
REMARK                            x       y       z     vdW  Elec       q    Type
REMARK                         _______ _______ _______ _____ _____    ______ ____
ROOT
ATOM      1  N   LIG    1        4.212  -4.075   0.925  0.00  0.00    -0.670 NA
ATOM      2  H   LIG    1        3.954  -4.953   1.350  0.00  0.00    +0.360 HD
ENDROOT
BRANCH   1   6
ATOM      3  N   LIG    1        1.786  -1.762  -0.025  0.00  0.00    -0.530 N 
ATOM      4  C   LIG    1        0.901  -2.932  -0.022  0.00  0.00    +0.270 C 
ATOM      5  C   LIG    1        1.791  -4.122   0.399  0.00  0.00    +0.070 C 
ATOM      6  C   LIG    1        3.193  -3.637  -0.038  0.00  0.00    +0.150 C 
ATOM      7  C   LIG    1        3.079  -2.128  -0.045  0.00  0.00    +0.530 C 
ATOM      8  O   LIG    1        4.019  -1.361  -0.064  0.00  0.00    -0.520 OA
BRANCH   3  12
ATOM      9  C   LIG    1        1.734   3.165   0.002  0.00  0.00    +0.360 C 
ATOM     10  N   LIG    1        1.308   1.764  -0.001  0.00  0.00    -0.370 N 
ATOM     11  C   LIG    1        2.126   0.679  -0.015  0.00  0.00    +0.230 A 
ATOM     12  C   LIG    1        1.339  -0.427  -0.013  0.00  0.00    +0.000 A 
ATOM     13  C   LIG    1        0.002  -0.004   0.002  0.00  0.00    +0.230 A 
ATOM     14  N   LIG    1       -0.016   1.304   0.009  0.00  0.00    -0.280 NA
ENDBRANCH   3  12
ENDBRANCH   1   6
BRANCH   1  15
ATOM     15  C   LIG    1        5.533  -4.166   0.288  0.00  0.00    +0.290 C 
BRANCH  15  16
ATOM     16  C   LIG    1        6.550  -4.618   1.305  0.00  0.00    -0.060 A 
ATOM     17  C   LIG    1        6.962  -5.886   1.518  0.00  0.00    +0.230 A 
ATOM     18  N   LIG    1        7.869  -5.881   2.498  0.00  0.00    -0.480 NA
ATOM     19  C   LIG    1        8.049  -4.638   2.920  0.00  0.00    +0.240 A 
ATOM     20  C   LIG    1        8.881  -4.089   3.919  0.00  0.00    +0.090 A 
ATOM     21  C   LIG    1        8.862  -2.751   4.143  0.00  0.00    +0.080 A 
ATOM     22  C   LIG    1        8.007  -1.925   3.371  0.00  0.00    -0.050 A 
ATOM     23  C   LIG    1        7.211  -2.477   2.410  0.00  0.00    +0.320 A 
ATOM     24  N   LIG    1        7.234  -3.818   2.181  0.00  0.00    -0.350 N 
BRANCH  22  25
ATOM     25  C   LIG    1        7.980  -0.511   3.599  0.00  0.00    +0.260 C 
ATOM     26  N   LIG    1        7.958   0.610   3.780  0.00  0.00    -0.400 NA
ENDBRANCH  22  25
ENDBRANCH  15  16
ENDBRANCH   1  15
TORSDOF 5
