REMARK  Name = ZINCvU0000000Grp.0
REMARK                            x       y       z     vdW  Elec       q    Type
REMARK                         _______ _______ _______ _____ _____    ______ ____
ROOT
ATOM      1  C   LIG    1       -0.018   1.503   0.010  0.00  0.00    +0.040 C 
ENDROOT
BRANCH   1   2
ATOM      2  C   LIG    1        0.002  -0.004   0.002  0.00  0.00    -0.090 A 
ATOM      3  C   LIG    1       -1.185  -0.712   0.015  0.00  0.00    +0.030 A 
ATOM      4  C   LIG    1       -1.167  -2.094   0.003  0.00  0.00    +0.000 A 
ATOM      5  C   LIG    1        0.040  -2.768  -0.013  0.00  0.00    -0.070 A 
ATOM      6  C   LIG    1        1.227  -2.061  -0.021  0.00  0.00    +0.000 A 
ATOM      7  C   LIG    1        0.060  -4.275  -0.022  0.00  0.00    +0.090 C 
ATOM      8  C   LIG    1        1.208  -0.679  -0.013  0.00  0.00    +0.070 A 
ENDBRANCH   1   2
BRANCH   1   9
ATOM      9  C   LIG    1       -0.724   1.989   1.250  0.00  0.00    +0.430 C 
ATOM     10  O   LIG    1       -1.905   2.261   1.208  0.00  0.00    -0.430 OA
BRANCH   9  11
ATOM     11  C   LIG    1        0.021   2.132   2.512  0.00  0.00    -0.170 A 
ATOM     12  C   LIG    1        1.381   1.814   2.565  0.00  0.00    +0.070 A 
ATOM     13  C   LIG    1        2.073   1.956   3.750  0.00  0.00    +0.000 A 
ATOM     14  C   LIG    1        1.421   2.403   4.886  0.00  0.00    -0.050 A 
ATOM     15  C   LIG    1        0.074   2.715   4.843  0.00  0.00    +0.000 A 
ATOM     16  C   LIG    1        2.183   2.550   6.178  0.00  0.00    +0.100 C 
ATOM     17  C   LIG    1       -0.630   2.583   3.664  0.00  0.00    +0.090 A 
ENDBRANCH   9  11
ENDBRANCH   1   9
BRANCH   1  18
ATOM     18  S   LIG    1       -0.894   2.102  -1.456  0.00  0.00    +0.070 S 
BRANCH  18  23
ATOM     19  N   LIG    1        0.039   1.700  -4.066  0.00  0.00    -0.410 N 
ATOM     20  C   LIG    1        1.126   1.100  -4.642  0.00  0.00    +0.390 A 
ATOM     21  N   LIG    1        1.857   0.615  -3.679  0.00  0.00    -0.280 NA
ATOM     22  N   LIG    1        1.315   0.868  -2.542  0.00  0.00    -0.280 NA
ATOM     23  C   LIG    1        0.198   1.535  -2.717  0.00  0.00    +0.170 A 
BRANCH  19  29
ATOM     24  C   LIG    1       -1.214   3.719  -4.543  0.00  0.00    +0.150 A 
ATOM     25  C   LIG    1       -2.256   4.357  -5.197  0.00  0.00    -0.060 A 
ATOM     26  C   LIG    1       -3.104   3.635  -6.016  0.00  0.00    +0.080 A 
ATOM     27  C   LIG    1       -2.913   2.277  -6.189  0.00  0.00    +0.000 A 
ATOM     28  C   LIG    1       -1.873   1.634  -5.545  0.00  0.00    +0.080 A 
ATOM     29  C   LIG    1       -1.018   2.351  -4.722  0.00  0.00    +0.060 A 
BRANCH  24  31
ATOM     30  C   LIG    1       -0.645   5.824  -3.596  0.00  0.00    +0.250 C 
ATOM     31  O   LIG    1       -0.383   4.426  -3.732  0.00  0.00    -0.300 OA
ENDBRANCH  24  31
ENDBRANCH  19  29
ENDBRANCH  18  23
ENDBRANCH   1  18
TORSDOF 7
