REMARK  Name = ZINCpk00000eav6G.0
REMARK                            x       y       z     vdW  Elec       q    Type
REMARK                         _______ _______ _______ _____ _____    ______ ____
ROOT
ATOM      1  C   LIG    1       -0.057   5.144   1.223  0.00  0.00    +0.520 C 
ATOM      2  N   LIG    1       -0.038   3.796   1.216  0.00  0.00    -0.620 N 
ATOM      3  C   LIG    1        1.237   3.066   1.200  0.00  0.00    +0.280 C 
ATOM      4  C   LIG    1        1.238   2.109   0.002  0.00  0.00    +0.280 C 
ATOM      5  N   LIG    1       -0.016   1.344   0.009  0.00  0.00    -0.620 N 
ATOM      6  C   LIG    1       -1.291   2.074   0.019  0.00  0.00    +0.270 C 
ATOM      7  C   LIG    1        0.002  -0.004   0.002  0.00  0.00    +0.520 C 
ATOM      8  O   LIG    1        1.060  -0.596  -0.011  0.00  0.00    -0.520 OA
ATOM      9  C   LIG    1       -1.293   3.031   1.224  0.00  0.00    +0.270 C 
ATOM     10  O   LIG    1        0.985   5.764   1.217  0.00  0.00    -0.520 OA
ENDROOT
BRANCH   1  11
ATOM     11  C   LIG    1       -1.372   5.879   1.239  0.00  0.00    +0.120 C 
BRANCH  11  16
ATOM     12  C   LIG    1       -0.776   9.419   0.057  0.00  0.00    +0.130 A 
ATOM     13  C   LIG    1       -0.648  10.093   1.262  0.00  0.00    -0.080 A 
ATOM     14  C   LIG    1       -0.754   9.402   2.454  0.00  0.00    +0.050 A 
ATOM     15  C   LIG    1       -0.994   8.040   2.445  0.00  0.00    -0.020 A 
ATOM     16  C   LIG    1       -1.117   7.365   1.245  0.00  0.00    -0.030 A 
ATOM     17  C   LIG    1       -1.011   8.051   0.051  0.00  0.00    -0.010 A 
BRANCH  12  19
ATOM     18  C   LIG    1       -0.429  11.502  -1.034  0.00  0.00    +0.250 C 
ATOM     19  O   LIG    1       -0.671  10.096  -1.117  0.00  0.00    -0.320 OA
ENDBRANCH  12  19
ENDBRANCH  11  16
ENDBRANCH   1  11
BRANCH   7  20
ATOM     20  C   LIG    1       -1.293  -0.775   0.010  0.00  0.00    +0.070 C 
BRANCH  20  21
ATOM     21  C   LIG    1       -0.993  -2.276  -0.001  0.00  0.00    +0.170 C 
ATOM     22  C   LIG    1       -2.304  -3.073   0.134  0.00  0.00    +0.010 C 
ATOM     23  C   LIG    1       -2.345  -3.955  -1.138  0.00  0.00    +0.000 C 
ATOM     24  C   LIG    1       -0.855  -3.978  -1.564  0.00  0.00    +0.190 C 
ATOM     25  O   LIG    1       -0.394  -2.645  -1.254  0.00  0.00    -0.360 OA
ENDBRANCH  20  21
ENDBRANCH   7  20
TORSDOF 5
