REMARK  Name = ZINCpk00000l7jYT.0
REMARK                            x       y       z     vdW  Elec       q    Type
REMARK                         _______ _______ _______ _____ _____    ______ ____
ROOT
ATOM      1  O   LIG    1        2.286  -0.351   2.705  0.00  0.00    -0.520 OA
ATOM      2  C   LIG    1        2.393   0.857   2.787  0.00  0.00    +0.570 C 
ATOM      3  N   LIG    1        1.291   1.627   2.880  0.00  0.00    -0.590 N 
ATOM      4  C   LIG    1       -0.053   1.047   2.728  0.00  0.00    +0.250 C 
ATOM      5  C   LIG    1       -0.911   1.498   3.915  0.00  0.00    +0.220 C 
ATOM      6  O   LIG    1       -0.844   2.922   4.031  0.00  0.00    -0.370 OA
ATOM      7  C   LIG    1        0.465   3.426   4.299  0.00  0.00    +0.100 C 
ATOM      8  C   LIG    1        1.002   2.799   5.589  0.00  0.00    -0.020 C 
ATOM      9  C   LIG    1        0.113   3.223   6.762  0.00  0.00    +0.220 C 
ATOM     10  O   LIG    1        0.081   4.649   6.842  0.00  0.00    -0.380 OA
ATOM     11  C   LIG    1       -0.458   5.287   5.683  0.00  0.00    +0.220 C 
ATOM     12  C   LIG    1        0.406   4.947   4.466  0.00  0.00    +0.040 C 
ATOM     13  C   LIG    1        1.396   3.072   3.135  0.00  0.00    +0.300 C 
ENDROOT
BRANCH   2  14
ATOM     14  C   LIG    1        3.739   1.484   2.784  0.00  0.00    +0.150 A 
ATOM     15  C   LIG    1        4.884   0.698   2.860  0.00  0.00    -0.020 A 
ATOM     16  C   LIG    1        6.127   1.340   2.848  0.00  0.00    +0.370 A 
ATOM     17  N   LIG    1        6.166   2.665   2.776  0.00  0.00    -0.540 NA
ATOM     18  C   LIG    1        5.056   3.373   2.711  0.00  0.00    +0.530 A 
ATOM     19  N   LIG    1        3.868   2.809   2.714  0.00  0.00    -0.520 NA
BRANCH  16  20
ATOM     20  N   LIG    1        7.298   0.604   2.917  0.00  0.00    -0.470 N 
ATOM     21  C   LIG    1        7.306  -0.265   4.100  0.00  0.00    +0.200 C 
ATOM     22  C   LIG    1        8.543  -1.165   4.066  0.00  0.00    +0.040 C 
ATOM     23  C   LIG    1        9.802  -0.294   4.042  0.00  0.00    +0.000 C 
ATOM     24  C   LIG    1        9.746   0.636   2.826  0.00  0.00    +0.030 C 
ATOM     25  C   LIG    1        8.474   1.484   2.896  0.00  0.00    +0.210 C 
ENDBRANCH  16  20
ENDBRANCH   2  14
TORSDOF 2
