REMARK  Name = ZINCrD00000hQ77P.0
REMARK                            x       y       z     vdW  Elec       q    Type
REMARK                         _______ _______ _______ _____ _____    ______ ____
ROOT
ATOM      1  C   LIG    1       -1.178   2.148   0.019  0.00  0.00    +0.570 C 
ATOM      2  N   LIG    1       -0.170   1.623   0.744  0.00  0.00    -0.600 N 
ATOM      3  C   LIG    1        1.148   2.275   0.806  0.00  0.00    +0.230 C 
ATOM      4  C   LIG    1        1.389   2.711   2.251  0.00  0.00    +0.080 C 
ATOM      5  C   LIG    1        1.069   1.593   3.208  0.00  0.00    -0.050 A 
ATOM      6  C   LIG    1        1.612   1.666   4.484  0.00  0.00    -0.020 A 
ATOM      7  C   LIG    1        1.349   0.678   5.418  0.00  0.00    +0.110 A 
ATOM      8  C   LIG    1        0.536  -0.393   5.075  0.00  0.00    -0.010 A 
ATOM      9  C   LIG    1        0.002  -0.465   3.806  0.00  0.00    +0.040 A 
ATOM     10  C   LIG    1        0.269   0.524   2.869  0.00  0.00    -0.100 A 
ATOM     11  C   LIG    1        1.165   3.498  -0.113  0.00  0.00    +0.060 C 
ATOM     12  C   LIG    1       -0.341   0.377   1.498  0.00  0.00    +0.280 C 
ATOM     13  C   LIG    1        0.351  -0.767   0.754  0.00  0.00    +0.050 C 
ATOM     14  O   LIG    1       -1.030   3.215  -0.544  0.00  0.00    -0.520 OA
ENDROOT
BRANCH   1  18
ATOM     15  C   LIG    1       -4.872   0.074  -0.296  0.00  0.00    -0.090 A 
ATOM     16  C   LIG    1       -4.857   1.457  -0.288  0.00  0.00    +0.030 A 
ATOM     17  C   LIG    1       -3.661   2.137  -0.186  0.00  0.00    +0.080 A 
ATOM     18  C   LIG    1       -2.464   1.426  -0.090  0.00  0.00    -0.120 A 
ATOM     19  C   LIG    1       -2.485   0.030  -0.104  0.00  0.00    +0.040 A 
ATOM     20  C   LIG    1       -3.689  -0.637  -0.202  0.00  0.00    +0.020 A 
BRANCH  15  21
ATOM     21  C   LIG    1       -6.182  -0.662  -0.408  0.00  0.00    +0.320 C 
BRANCH  21  23
ATOM     22  C   LIG    1       -7.625  -1.539  -2.165  0.00  0.00    +0.540 C 
ATOM     23  N   LIG    1       -6.493  -0.893  -1.821  0.00  0.00    -0.720 N 
ATOM     24  H   LIG    1       -5.884  -0.582  -2.509  0.00  0.00    +0.400 HD
ATOM     25  O   LIG    1       -8.388  -1.929  -1.302  0.00  0.00    -0.540 OA
BRANCH  22  27
ATOM     26  C   LIG    1       -9.054  -2.409  -3.923  0.00  0.00    +0.150 C 
ATOM     27  C   LIG    1       -7.937  -1.771  -3.584  0.00  0.00    -0.090 C 
ENDBRANCH  22  27
ENDBRANCH  21  23
ENDBRANCH  15  21
ENDBRANCH   1  18
BRANCH   7  28
ATOM     28  O   LIG    1        1.884   0.757   6.665  0.00  0.00    -0.500 OA
ATOM     29  H   LIG    1        1.329   1.230   7.301  0.00  0.00    +0.390 HD
ENDBRANCH   7  28
TORSDOF 5
