REMARK  Name = ZINCvU00000004Ve.0
REMARK                            x       y       z     vdW  Elec       q    Type
REMARK                         _______ _______ _______ _____ _____    ______ ____
ROOT
ATOM      1  C   LIG    1       -7.143   7.952  -0.433  0.00  0.00    +0.150 A 
ATOM      2  N   LIG    1       -6.233   7.016  -0.333  0.00  0.00    -0.440 NA
ATOM      3  C   LIG    1       -5.045   7.663  -0.335  0.00  0.00    +0.230 A 
ATOM      4  N   LIG    1       -5.303   8.942  -0.430  0.00  0.00    -0.370 NA
ATOM      5  O   LIG    1       -6.501   9.122  -0.493  0.00  0.00    +0.090 OA
ENDROOT
BRANCH   3   6
ATOM      6  C   LIG    1       -3.702   7.040  -0.239  0.00  0.00    -0.120 A 
ATOM      7  C   LIG    1       -2.550   7.833  -0.253  0.00  0.00    +0.150 A 
ATOM      8  C   LIG    1       -1.321   7.207  -0.162  0.00  0.00    -0.030 A 
ATOM      9  C   LIG    1       -1.271   5.822  -0.060  0.00  0.00    +0.340 A 
ATOM     10  N   LIG    1       -2.380   5.100  -0.055  0.00  0.00    -0.520 NA
ATOM     11  C   LIG    1       -3.571   5.658  -0.135  0.00  0.00    +0.360 A 
BRANCH   9  12
ATOM     12  O   LIG    1       -0.069   5.201   0.029  0.00  0.00    -0.240 OA
BRANCH  12  13
ATOM     13  C   LIG    1       -0.049   3.842   0.005  0.00  0.00    +0.090 A 
ATOM     14  C   LIG    1       -0.355   3.163  -1.165  0.00  0.00    +0.000 A 
ATOM     15  C   LIG    1       -0.334   1.782  -1.187  0.00  0.00    +0.020 A 
ATOM     16  C   LIG    1       -0.010   1.076  -0.043  0.00  0.00    +0.010 A 
ATOM     17  C   LIG    1        0.290   1.751   1.127  0.00  0.00    +0.020 A 
ATOM     18  C   LIG    1        0.277   3.132   1.152  0.00  0.00    +0.020 A 
ENDBRANCH  12  13
ENDBRANCH   9  12
ENDBRANCH   3   6
BRANCH   1  20
ATOM     19  C   LIG    1       -8.999   6.876  -1.678  0.00  0.00    +0.120 C 
ATOM     20  C   LIG    1       -8.636   7.747  -0.474  0.00  0.00    +0.290 C 
BRANCH  20  21
ATOM     21  C   LIG    1       -9.323   9.083  -0.595  0.00  0.00    -0.140 A 
ATOM     22  C   LIG    1       -8.694  10.127  -1.247  0.00  0.00    +0.070 A 
ATOM     23  C   LIG    1       -9.324  11.353  -1.358  0.00  0.00    +0.030 A 
ATOM     24  C   LIG    1      -10.583  11.534  -0.818  0.00  0.00    +0.080 A 
ATOM     25  C   LIG    1      -11.212  10.490  -0.165  0.00  0.00    -0.180 A 
ATOM     26  C   LIG    1      -10.584   9.263  -0.059  0.00  0.00    +0.110 A 
BRANCH  25  27
ATOM     27  C   LIG    1      -12.585  10.687   0.424  0.00  0.00    +0.510 C 
ATOM     28  F   LIG    1      -12.539  10.456   1.803  0.00  0.00    -0.170 F 
ATOM     29  F   LIG    1      -13.481   9.791  -0.170  0.00  0.00    -0.170 F 
ATOM     30  F   LIG    1      -13.011  11.998   0.185  0.00  0.00    -0.180 F 
ENDBRANCH  25  27
ENDBRANCH  20  21
BRANCH  20  31
ATOM     31  O   LIG    1       -9.061   7.101   0.728  0.00  0.00    -0.520 OA
ATOM     32  H   LIG    1       -8.863   7.597   1.533  0.00  0.00    +0.390 HD
ENDBRANCH  20  31
ENDBRANCH   1  20
TORSDOF 7
