REMARK  Name = ZINCtj00000nxsHW.0
REMARK                            x       y       z     vdW  Elec       q    Type
REMARK                         _______ _______ _______ _____ _____    ______ ____
ROOT
ATOM      1  N   LIG    1        4.001   1.812  -1.003  0.00  0.00    -0.690 N 
ATOM      2  H   LIG    1        4.197   2.717  -0.715  0.00  0.00    +0.410 HD
ATOM      3  C   LIG    1        4.132   1.476  -2.302  0.00  0.00    +0.610 C 
ATOM      4  O   LIG    1        3.887   0.341  -2.664  0.00  0.00    -0.530 OA
ENDROOT
BRANCH   3   5
ATOM      5  C   LIG    1        4.573   2.484  -3.284  0.00  0.00    -0.090 A 
ATOM      6  C   LIG    1        4.744   2.273  -4.623  0.00  0.00    +0.140 A 
ATOM      7  N   LIG    1        5.151   3.444  -5.153  0.00  0.00    -0.380 N 
ATOM      8  N   LIG    1        5.220   4.365  -4.099  0.00  0.00    -0.070 NA
ATOM      9  C   LIG    1        4.521   0.981  -5.364  0.00  0.00    +0.200 C 
ATOM     10  N   LIG    1        4.867   3.768  -3.014  0.00  0.00    -0.170 NA
BRANCH   7  11
ATOM     11  C   LIG    1        5.461   3.704  -6.562  0.00  0.00    +0.290 C 
ATOM     12  C   LIG    1        4.539   4.808  -7.118  0.00  0.00    +0.090 C 
ATOM     13  C   LIG    1        5.490   5.946  -7.547  0.00  0.00    +0.290 C 
ATOM     14  N   LIG    1        6.793   5.274  -7.788  0.00  0.00    -0.510 N 
ATOM     15  H   LIG    1        7.550   5.939  -7.726  0.00  0.00    +0.440 HD
ATOM     16  H   LIG    1        6.794   4.821  -8.690  0.00  0.00    +0.440 HD
ATOM     17  C   LIG    1        6.891   4.267  -6.701  0.00  0.00    +0.290 C 
ENDBRANCH   7  11
ENDBRANCH   3   5
BRANCH   1  18
ATOM     18  C   LIG    1        3.563   0.810  -0.028  0.00  0.00    +0.400 C 
BRANCH  18  22
ATOM     19  C   LIG    1        4.980   1.891   3.857  0.00  0.00    +0.140 A 
ATOM     20  C   LIG    1        4.997   0.563   3.456  0.00  0.00    -0.010 A 
ATOM     21  C   LIG    1        4.539   0.216   2.199  0.00  0.00    +0.070 A 
ATOM     22  C   LIG    1        4.063   1.192   1.342  0.00  0.00    -0.140 A 
ATOM     23  C   LIG    1        4.050   2.517   1.738  0.00  0.00    +0.080 A 
ATOM     24  C   LIG    1        4.502   2.868   2.995  0.00  0.00    -0.070 A 
BRANCH  19  26
ATOM     25  C   LIG    1        5.383   3.621   5.437  0.00  0.00    +0.240 C 
ATOM     26  O   LIG    1        5.430   2.235   5.092  0.00  0.00    -0.310 OA
ENDBRANCH  19  26
ENDBRANCH  18  22
BRANCH  18  27
ATOM     27  C   LIG    1        2.058   0.747  -0.014  0.00  0.00    +0.190 A 
ATOM     28  N   LIG    1        1.254   1.775  -0.000  0.00  0.00    -0.470 NA
ATOM     29  C   LIG    1       -0.016   1.343   0.009  0.00  0.00    +0.140 A 
ATOM     30  C   LIG    1        0.002  -0.004   0.002  0.00  0.00    +0.130 A 
ATOM     31  N   LIG    1        1.317  -0.382  -0.013  0.00  0.00    -0.450 N 
ATOM     32  C   LIG    1        1.827  -1.756  -0.025  0.00  0.00    +0.330 C 
ENDBRANCH  18  27
ENDBRANCH   1  18
TORSDOF 6
