REMARK  Name = ZINCrD000000ANwK.0
REMARK                            x       y       z     vdW  Elec       q    Type
REMARK                         _______ _______ _______ _____ _____    ______ ____
ROOT
ATOM      1  O   LIG    1        4.769  -0.198  -1.697  0.00  0.00    -0.550 OA
ATOM      2  C   LIG    1        4.085  -0.467  -2.666  0.00  0.00    +0.720 C 
ATOM      3  N   LIG    1        4.669  -0.857  -3.816  0.00  0.00    -0.630 N 
ATOM      4  C   LIG    1        3.963  -1.218  -5.059  0.00  0.00    +0.240 C 
ATOM      5  C   LIG    1        4.942  -2.143  -5.819  0.00  0.00    +0.040 C 
ATOM      6  C   LIG    1        6.311  -1.493  -5.486  0.00  0.00    +0.040 C 
ATOM      7  C   LIG    1        6.115  -1.000  -4.037  0.00  0.00    +0.250 C 
ATOM      8  N   LIG    1        2.743  -0.375  -2.589  0.00  0.00    -0.740 N 
ATOM      9  H   LIG    1        2.197  -0.590  -3.361  0.00  0.00    +0.390 HD
ENDROOT
BRANCH   8  10
ATOM     10  C   LIG    1        2.108   0.049  -1.338  0.00  0.00    +0.250 C 
ATOM     11  C   LIG    1        0.680  -0.499  -1.278  0.00  0.00    +0.050 C 
ATOM     12  C   LIG    1        0.002  -0.004   0.002  0.00  0.00    +0.200 C 
ATOM     13  N   LIG    1       -0.018   1.464   0.010  0.00  0.00    -0.440 N 
ATOM     14  C   LIG    1        1.344   2.014   0.000  0.00  0.00    +0.220 C 
ATOM     15  C   LIG    1        2.062   1.579  -1.280  0.00  0.00    +0.030 C 
BRANCH  13  16
ATOM     16  C   LIG    1       -0.740   1.945   1.091  0.00  0.00    +0.230 A 
ATOM     17  N   LIG    1       -0.929   3.200   1.359  0.00  0.00    -0.500 NA
ATOM     18  C   LIG    1       -1.645   3.480   2.433  0.00  0.00    +0.240 A 
ATOM     19  C   LIG    1       -2.080   2.412   3.103  0.00  0.00    -0.090 A 
ATOM     20  S   LIG    1       -1.516   0.971   2.262  0.00  0.00    +0.090 S 
ENDBRANCH  13  16
ENDBRANCH   8  10
BRANCH   7  21
ATOM     21  C   LIG    1        6.806   0.353  -3.851  0.00  0.00    +0.180 C 
BRANCH  21  22
ATOM     22  O   LIG    1        6.705   0.755  -2.483  0.00  0.00    -0.270 OA
BRANCH  22  23
ATOM     23  C   LIG    1        7.271   1.944  -2.146  0.00  0.00    +0.130 A 
ATOM     24  C   LIG    1        7.916   2.704  -3.111  0.00  0.00    -0.100 A 
ATOM     25  C   LIG    1        8.486   3.915  -2.767  0.00  0.00    +0.040 A 
ATOM     26  C   LIG    1        8.424   4.363  -1.460  0.00  0.00    -0.040 A 
ATOM     27  C   LIG    1        7.787   3.604  -0.496  0.00  0.00    +0.050 A 
ATOM     28  C   LIG    1        7.211   2.395  -0.836  0.00  0.00    -0.020 A 
ENDBRANCH  22  23
ENDBRANCH  21  22
ENDBRANCH   7  21
TORSDOF 5
