REMARK  Name = ZINCvU0000000EWa.0
REMARK                            x       y       z     vdW  Elec       q    Type
REMARK                         _______ _______ _______ _____ _____    ______ ____
ROOT
ATOM      1  C   LIG    1        1.567  -3.111   1.353  0.00  0.00    +0.510 C 
ATOM      2  N   LIG    1        2.569  -3.319   2.231  0.00  0.00    -0.730 N 
ATOM      3  H   LIG    1        2.402  -3.812   3.049  0.00  0.00    +0.390 HD
ATOM      4  O   LIG    1        1.776  -2.494   0.330  0.00  0.00    -0.520 OA
ENDROOT
BRANCH   1   5
ATOM      5  C   LIG    1        0.188  -3.644   1.643  0.00  0.00    +0.070 C 
BRANCH   5   6
ATOM      6  C   LIG    1       -0.754  -3.272   0.497  0.00  0.00    +0.200 C 
BRANCH   6   7
ATOM      7  C   LIG    1       -2.101  -3.908   0.726  0.00  0.00    -0.090 A 
ATOM      8  C   LIG    1       -2.820  -3.607   1.868  0.00  0.00    +0.040 A 
ATOM      9  C   LIG    1       -4.058  -4.185   2.078  0.00  0.00    -0.010 A 
ATOM     10  C   LIG    1       -4.573  -5.076   1.148  0.00  0.00    +0.110 A 
ATOM     11  C   LIG    1       -3.846  -5.381   0.006  0.00  0.00    -0.010 A 
ATOM     12  C   LIG    1       -2.612  -4.796  -0.202  0.00  0.00    +0.040 A 
BRANCH  10  13
ATOM     13  O   LIG    1       -5.787  -5.650   1.355  0.00  0.00    -0.500 OA
ATOM     14  H   LIG    1       -5.750  -6.485   1.841  0.00  0.00    +0.390 HD
ENDBRANCH  10  13
ENDBRANCH   6   7
BRANCH   6  17
ATOM     15  C   LIG    1       -1.178   0.821   0.341  0.00  0.00    +0.200 C 
ATOM     16  C   LIG    1       -1.027  -0.642   0.397  0.00  0.00    -0.180 C 
ATOM     17  C   LIG    1       -0.906  -1.809   0.441  0.00  0.00    -0.170 C 
ENDBRANCH   6  17
ENDBRANCH   5   6
ENDBRANCH   1   5
BRANCH   2  18
ATOM     18  C   LIG    1        3.910  -2.801   1.949  0.00  0.00    +0.330 C 
BRANCH  18  19
ATOM     19  C   LIG    1        4.852  -3.173   3.096  0.00  0.00    -0.080 C 
ATOM     20  C   LIG    1        5.364  -2.038   3.985  0.00  0.00    +0.050 C 
ATOM     21  C   LIG    1        6.309  -2.717   2.989  0.00  0.00    +0.080 C 
BRANCH  19  22
ATOM     22  C   LIG    1        4.585  -4.504   3.750  0.00  0.00    +0.080 A 
ATOM     23  N   LIG    1        5.045  -5.636   3.332  0.00  0.00    -0.450 NA
ATOM     24  C   LIG    1        4.718  -6.708   4.018  0.00  0.00    +0.080 A 
ATOM     25  C   LIG    1        3.930  -6.464   5.087  0.00  0.00    -0.190 A 
ATOM     26  C   LIG    1        5.184  -8.092   3.644  0.00  0.00    +0.160 C 
ATOM     27  S   LIG    1        3.638  -4.728   5.155  0.00  0.00    +0.140 S 
BRANCH  25  28
ATOM     28  C   LIG    1        3.411  -7.473   6.036  0.00  0.00    -0.020 A 
ATOM     29  C   LIG    1        2.063  -7.466   6.398  0.00  0.00    +0.020 A 
ATOM     30  C   LIG    1        1.583  -8.414   7.278  0.00  0.00    +0.010 A 
ATOM     31  C   LIG    1        2.438  -9.362   7.811  0.00  0.00    +0.020 A 
ATOM     32  C   LIG    1        3.777  -9.371   7.461  0.00  0.00    +0.010 A 
ATOM     33  C   LIG    1        4.268  -8.432   6.577  0.00  0.00    +0.030 A 
ENDBRANCH  25  28
ENDBRANCH  19  22
ENDBRANCH  18  19
ENDBRANCH   2  18
TORSDOF 9
