REMARK  Name = ZINCqH0000007ft0.0
REMARK                            x       y       z     vdW  Elec       q    Type
REMARK                         _______ _______ _______ _____ _____    ______ ____
ROOT
ATOM      1  C   LIG    1        2.430   0.818   0.109  0.00  0.00    -0.140 A 
ATOM      2  C   LIG    1        2.383  -0.573   0.206  0.00  0.00    +0.060 A 
ATOM      3  C   LIG    1        3.555  -1.296   0.293  0.00  0.00    +0.010 A 
ATOM      4  C   LIG    1        4.775  -0.643   0.296  0.00  0.00    +0.080 A 
ATOM      5  C   LIG    1        4.829   0.737   0.205  0.00  0.00    -0.130 A 
ATOM      6  C   LIG    1        3.665   1.471   0.112  0.00  0.00    +0.120 A 
ENDROOT
BRANCH   1   9
ATOM      7  N   LIG    1       -0.011   0.966   0.007  0.00  0.00    -0.660 N 
ATOM      8  H   LIG    1       -0.045  -0.003  -0.013  0.00  0.00    +0.420 HD
ATOM      9  C   LIG    1        1.179   1.599   0.010  0.00  0.00    +0.560 C 
ATOM     10  O   LIG    1        1.223   2.811  -0.069  0.00  0.00    -0.510 OA
BRANCH   7  17
ATOM     11  C   LIG    1       -2.376   1.156  -0.473  0.00  0.00    +0.100 A 
ATOM     12  C   LIG    1       -3.548   1.894  -0.450  0.00  0.00    -0.040 A 
ATOM     13  C   LIG    1       -3.549   3.175   0.070  0.00  0.00    +0.050 A 
ATOM     14  C   LIG    1       -2.381   3.724   0.569  0.00  0.00    -0.050 A 
ATOM     15  C   LIG    1       -1.207   2.991   0.553  0.00  0.00    +0.070 A 
ATOM     16 CL   LIG    1       -2.389   5.333   1.220  0.00  0.00    -0.060 Cl
ATOM     17  C   LIG    1       -1.199   1.708   0.028  0.00  0.00    +0.130 A 
BRANCH  11  19
ATOM     18  C   LIG    1       -3.617  -0.605  -1.481  0.00  0.00    +0.250 C 
ATOM     19  O   LIG    1       -2.374  -0.104  -0.984  0.00  0.00    -0.320 OA
ENDBRANCH  11  19
ENDBRANCH   7  17
ENDBRANCH   1   9
BRANCH   5  20
ATOM     20  C   LIG    1        6.162   1.439   0.209  0.00  0.00    +0.360 C 
BRANCH  20  21
ATOM     21  N   LIG    1        6.542   1.758   1.588  0.00  0.00    -0.570 N 
ATOM     22  C   LIG    1        6.179   2.919   2.108  0.00  0.00    +0.530 C 
ATOM     23  C   LIG    1        6.634   3.116   3.538  0.00  0.00    +0.180 C 
ATOM     24  S   LIG    1        7.536   1.571   3.898  0.00  0.00    -0.120 S 
ATOM     25  O   LIG    1        5.538   3.747   1.497  0.00  0.00    -0.450 OA
ATOM     26  C   LIG    1        7.252   0.875   2.292  0.00  0.00    +0.550 C 
ATOM     27  O   LIG    1        7.636  -0.211   1.903  0.00  0.00    -0.430 OA
ENDBRANCH  20  21
ENDBRANCH   5  20
TORSDOF 5
