REMARK  Name = ZINCpe000000XWgt.0
REMARK                            x       y       z     vdW  Elec       q    Type
REMARK                         _______ _______ _______ _____ _____    ______ ____
ROOT
ATOM      1  N   LIG    1       -4.074   0.030   1.689  0.00  0.00    -0.730 N 
ATOM      2  H   LIG    1       -4.618  -0.289   0.952  0.00  0.00    +0.410 HD
ATOM      3  C   LIG    1       -2.938   0.711   1.441  0.00  0.00    +0.520 C 
ATOM      4  O   LIG    1       -2.257   1.111   2.361  0.00  0.00    -0.520 OA
ENDROOT
BRANCH   1  10
ATOM      5  C   LIG    1       -4.615  -3.545   8.096  0.00  0.00    +0.140 C 
ATOM      6  C   LIG    1       -4.753  -2.746   6.826  0.00  0.00    -0.000 A 
ATOM      7  C   LIG    1       -3.865  -2.709   5.812  0.00  0.00    +0.120 A 
ATOM      8  N   LIG    1       -4.379  -1.867   4.871  0.00  0.00    -0.450 N 
ATOM      9  C   LIG    1       -3.789  -1.493   3.584  0.00  0.00    +0.270 C 
ATOM     10  C   LIG    1       -4.486  -0.228   3.071  0.00  0.00    +0.240 C 
ATOM     11  C   LIG    1       -6.004  -0.425   3.122  0.00  0.00    +0.040 C 
ATOM     12  C   LIG    1       -6.461  -0.458   4.586  0.00  0.00    +0.160 C 
ATOM     13  C   LIG    1       -5.568  -1.416   5.337  0.00  0.00    +0.200 A 
ATOM     14  N   LIG    1       -5.783  -1.945   6.506  0.00  0.00    -0.480 NA
ENDBRANCH   1  10
BRANCH   3  15
ATOM     15  C   LIG    1       -2.513   0.977   0.019  0.00  0.00    +0.120 C 
BRANCH  15  16
ATOM     16  C   LIG    1       -1.220   1.750   0.017  0.00  0.00    -0.060 A 
ATOM     17  C   LIG    1       -0.013   1.076   0.008  0.00  0.00    +0.060 A 
ATOM     18  C   LIG    1        1.175   1.782   0.000  0.00  0.00    +0.040 A 
ATOM     19  C   LIG    1        1.155   3.170   0.008  0.00  0.00    +0.130 A 
ATOM     20  C   LIG    1       -0.059   3.844   0.023  0.00  0.00    +0.020 A 
ATOM     21  C   LIG    1       -1.242   3.133   0.031  0.00  0.00    +0.060 A 
BRANCH  19  22
ATOM     22  N   LIG    1        2.359   3.890   0.001  0.00  0.00    -0.330 N 
ATOM     23  C   LIG    1        2.512   5.232   0.001  0.00  0.00    +0.470 A 
ATOM     24  N   LIG    1        3.796   5.476  -0.004  0.00  0.00    -0.330 NA
ATOM     25  N   LIG    1        4.465   4.380  -0.016  0.00  0.00    -0.030 NA
ATOM     26  N   LIG    1        3.665   3.369  -0.014  0.00  0.00    -0.080 NA
ENDBRANCH  19  22
ENDBRANCH  15  16
ENDBRANCH   3  15
TORSDOF 4
