REMARK  Name = ZINCkj00000kKtQY.1
REMARK                            x       y       z     vdW  Elec       q    Type
REMARK                         _______ _______ _______ _____ _____    ______ ____
ROOT
ATOM      1  N   LIG    1        0.189  -0.242   2.588  0.00  0.00    -0.380 N 
ATOM      2  C   LIG    1       -1.154  -0.809   2.756  0.00  0.00    +0.250 C 
ATOM      3  C   LIG    1       -2.025  -0.434   1.555  0.00  0.00    +0.070 C 
ATOM      4  C   LIG    1       -2.121   1.092   1.459  0.00  0.00    +0.060 C 
ATOM      5  C   LIG    1       -0.710   1.677   1.359  0.00  0.00    +0.010 C 
ATOM      6  C   LIG    1        0.113   1.224   2.567  0.00  0.00    +0.280 C 
ATOM      7  H   LIG    1        0.585  -0.569   1.719  0.00  0.00    +0.420 HD
ENDROOT
BRANCH   1   8
ATOM      8  C   LIG    1        1.043  -0.670   3.704  0.00  0.00    +0.270 C 
BRANCH   8  10
ATOM      9  C   LIG    1        2.917  -0.741   2.053  0.00  0.00    +0.120 C 
ATOM     10  C   LIG    1        2.487  -0.243   3.434  0.00  0.00    +0.080 C 
BRANCH  10  11
ATOM     11  C   LIG    1        3.405  -0.844   4.501  0.00  0.00    +0.440 C 
ATOM     12  F   LIG    1        3.013  -0.389   5.764  0.00  0.00    -0.170 F 
ATOM     13  F   LIG    1        4.726  -0.454   4.254  0.00  0.00    -0.150 F 
ATOM     14  F   LIG    1        3.316  -2.240   4.459  0.00  0.00    -0.170 F 
ENDBRANCH  10  11
BRANCH  10  15
ATOM     15  O   LIG    1        2.578   1.183   3.477  0.00  0.00    -0.520 OA
ATOM     16  H   LIG    1        2.321   1.568   4.325  0.00  0.00    +0.410 HD
ENDBRANCH  10  15
ENDBRANCH   8  10
ENDBRANCH   1   8
BRANCH   5  17
ATOM     17  C   LIG    1       -0.043   1.185   0.073  0.00  0.00    +0.310 C 
BRANCH  17  18
ATOM     18  N   LIG    1       -0.764   1.717  -1.086  0.00  0.00    -0.390 N 
ATOM     19  C   LIG    1       -0.244   2.429  -2.101  0.00  0.00    +0.490 A 
ATOM     20  N   LIG    1       -1.212   2.714  -2.934  0.00  0.00    -0.530 NA
ATOM     21  C   LIG    1       -2.359   2.203  -2.487  0.00  0.00    +0.440 A 
ATOM     22  N   LIG    1       -2.134   1.579  -1.361  0.00  0.00    -0.320 NA
ENDBRANCH  17  18
ENDBRANCH   5  17
TORSDOF 6
