REMARK  Name = ZINCkj00000kKtQY.0
REMARK                            x       y       z     vdW  Elec       q    Type
REMARK                         _______ _______ _______ _____ _____    ______ ____
ROOT
ATOM      1  N   LIG    1       -0.644   1.547   1.182  0.00  0.00    -0.370 N 
ATOM      2  C   LIG    1        0.064   1.022   0.009  0.00  0.00    +0.250 C 
ATOM      3  C   LIG    1       -0.620   1.518  -1.267  0.00  0.00    +0.060 C 
ATOM      4  C   LIG    1       -0.590   3.049  -1.294  0.00  0.00    +0.060 C 
ATOM      5  C   LIG    1       -1.265   3.585  -0.028  0.00  0.00    -0.020 C 
ATOM      6  C   LIG    1       -0.558   3.012   1.202  0.00  0.00    +0.270 C 
ATOM      7  H   LIG    1       -1.613   1.268   1.142  0.00  0.00    +0.420 HD
ENDROOT
BRANCH   1   8
ATOM      8  C   LIG    1       -0.032   1.006   2.404  0.00  0.00    +0.270 C 
BRANCH   8  10
ATOM      9  C   LIG    1       -1.796  -0.762   2.331  0.00  0.00    +0.130 C 
ATOM     10  C   LIG    1       -0.297  -0.499   2.483  0.00  0.00    +0.080 C 
BRANCH  10  11
ATOM     11  C   LIG    1        0.179  -1.029   3.837  0.00  0.00    +0.440 C 
ATOM     12  F   LIG    1        1.550  -0.789   3.976  0.00  0.00    -0.170 F 
ATOM     13  F   LIG    1       -0.062  -2.405   3.909  0.00  0.00    -0.150 F 
ATOM     14  F   LIG    1       -0.515  -0.379   4.863  0.00  0.00    -0.170 F 
ENDBRANCH  10  11
BRANCH  10  15
ATOM     15  O   LIG    1        0.412  -1.163   1.435  0.00  0.00    -0.510 OA
ATOM     16  H   LIG    1        1.371  -1.039   1.469  0.00  0.00    +0.400 HD
ENDBRANCH  10  15
ENDBRANCH   8  10
ENDBRANCH   1   8
BRANCH   5  17
ATOM     17  C   LIG    1       -1.173   5.112  -0.007  0.00  0.00    +0.350 C 
BRANCH  17  18
ATOM     18  N   LIG    1       -1.946   5.664  -1.121  0.00  0.00    -0.390 N 
ATOM     19  C   LIG    1       -2.936   6.571  -1.044  0.00  0.00    +0.480 A 
ATOM     20  N   LIG    1       -3.368   6.803  -2.257  0.00  0.00    -0.540 NA
ATOM     21  C   LIG    1       -2.689   6.061  -3.130  0.00  0.00    +0.440 A 
ATOM     22  N   LIG    1       -1.806   5.346  -2.482  0.00  0.00    -0.320 NA
ENDBRANCH  17  18
ENDBRANCH   5  17
TORSDOF 6
