REMARK  Name = ZINCqH0000006iCc.0
REMARK                            x       y       z     vdW  Elec       q    Type
REMARK                         _______ _______ _______ _____ _____    ______ ____
ROOT
ATOM      1  N   LIG    1       -0.721   1.571  -1.179  0.00  0.00    -0.470 N 
ATOM      2  C   LIG    1       -1.735   0.902  -1.819  0.00  0.00    +0.130 A 
ATOM      3  C   LIG    1       -2.366  -0.320  -1.591  0.00  0.00    -0.010 A 
ATOM      4  C   LIG    1       -3.368  -0.740  -2.413  0.00  0.00    +0.070 A 
ATOM      5  C   LIG    1       -3.781   0.049  -3.499  0.00  0.00    -0.200 A 
ATOM      6  C   LIG    1       -3.170   1.280  -3.739  0.00  0.00    +0.150 A 
ATOM      7  C   LIG    1       -2.142   1.706  -2.903  0.00  0.00    -0.120 A 
ATOM      8  C   LIG    1       -1.289   2.898  -2.866  0.00  0.00    -0.150 A 
ATOM      9  C   LIG    1       -1.329   4.060  -3.824  0.00  0.00    +0.130 C 
ATOM     10  C   LIG    1       -0.466   2.755  -1.816  0.00  0.00    +0.070 A 
ATOM     11  C   LIG    1        0.585   3.752  -1.400  0.00  0.00    +0.140 C 
ENDROOT
BRANCH   5  12
ATOM     12  C   LIG    1       -4.864  -0.417  -4.376  0.00  0.00    +0.420 C 
ATOM     13  O   LIG    1       -5.221   0.264  -5.314  0.00  0.00    -0.430 OA
BRANCH  12  14
ATOM     14  C   LIG    1       -5.531  -1.742  -4.110  0.00  0.00    +0.180 C 
BRANCH  14  15
ATOM     15  C   LIG    1       -6.923  -1.729  -4.689  0.00  0.00    +0.130 A 
ATOM     16  C   LIG    1       -7.112  -2.047  -6.020  0.00  0.00    -0.010 A 
ATOM     17  C   LIG    1       -8.396  -2.032  -6.542  0.00  0.00    +0.070 A 
ATOM     18  C   LIG    1       -9.446  -1.695  -5.702  0.00  0.00    -0.020 A 
ATOM     19  C   LIG    1       -9.180  -1.389  -4.381  0.00  0.00    +0.270 A 
ATOM     20  N   LIG    1       -7.946  -1.419  -3.917  0.00  0.00    -0.470 NA
ENDBRANCH  14  15
BRANCH  14  21
ATOM     21  C   LIG    1       -4.749  -2.820  -4.738  0.00  0.00    +0.210 C 
ATOM     22  N   LIG    1       -4.146  -3.651  -5.223  0.00  0.00    -0.390 NA
ENDBRANCH  14  21
ENDBRANCH  12  14
ENDBRANCH   5  12
BRANCH   1  23
ATOM     23  C   LIG    1       -0.013   1.086   0.008  0.00  0.00    +0.310 C 
BRANCH  23  24
ATOM     24  C   LIG    1       -0.729   1.579   1.267  0.00  0.00    +0.170 C 
BRANCH  24  26
ATOM     25  C   LIG    1       -0.628   1.513   3.661  0.00  0.00    +0.200 C 
ATOM     26  O   LIG    1       -0.038   1.106   2.425  0.00  0.00    -0.390 OA
ENDBRANCH  24  26
ENDBRANCH  23  24
ENDBRANCH   1  23
TORSDOF 7
