REMARK  Name = ZINCpk000000nKev.0
REMARK                            x       y       z     vdW  Elec       q    Type
REMARK                         _______ _______ _______ _____ _____    ______ ____
ROOT
ATOM      1  C   LIG    1        1.403   2.085  -0.111  0.00  0.00    +0.260 C 
ATOM      2  C   LIG    1        0.235   1.137  -0.101  0.00  0.00    +0.520 C 
ATOM      3  N   LIG    1        0.372  -0.185  -0.209  0.00  0.00    -0.720 N 
ATOM      4  H   LIG    1       -0.436  -0.720  -0.258  0.00  0.00    +0.400 HD
ATOM      5  C   LIG    1        1.649  -0.884  -0.260  0.00  0.00    +0.250 C 
ATOM      6  C   LIG    1        2.766   0.060  -0.711  0.00  0.00    +0.280 C 
ATOM      7  O   LIG    1       -0.882   1.596   0.006  0.00  0.00    -0.530 OA
ATOM      8  N   LIG    1        2.644   1.314   0.052  0.00  0.00    -0.630 N 
ATOM      9  C   LIG    1        3.631   1.736   0.868  0.00  0.00    +0.720 C 
ATOM     10  N   LIG    1        4.703   0.951   1.091  0.00  0.00    -0.740 N 
ATOM     11  H   LIG    1        4.731   0.053   0.726  0.00  0.00    +0.390 HD
ATOM     12  O   LIG    1        3.553   2.826   1.402  0.00  0.00    -0.560 OA
ENDROOT
BRANCH  10  13
ATOM     13  C   LIG    1        5.826   1.454   1.886  0.00  0.00    +0.270 C 
ATOM     14  C   LIG    1        5.572   1.208   3.388  0.00  0.00    +0.040 C 
ATOM     15  C   LIG    1        6.725   0.288   3.844  0.00  0.00    +0.180 C 
ATOM     16  N   LIG    1        7.814   0.537   2.864  0.00  0.00    -0.450 N 
ATOM     17  C   LIG    1        7.111   0.662   1.562  0.00  0.00    +0.220 C 
BRANCH  16  18
ATOM     18  C   LIG    1        8.718  -0.519   2.844  0.00  0.00    +0.310 A 
ATOM     19  N   LIG    1        8.913  -1.194   1.722  0.00  0.00    -0.500 NA
ATOM     20  C   LIG    1        9.766  -2.199   1.659  0.00  0.00    +0.300 A 
ATOM     21  C   LIG    1       10.481  -2.592   2.772  0.00  0.00    -0.040 A 
ATOM     22  C   LIG    1       10.302  -1.915   3.970  0.00  0.00    +0.110 A 
ATOM     23  C   LIG    1        9.405  -0.861   4.005  0.00  0.00    -0.100 A 
ATOM     24 CL   LIG    1        9.141   0.021   5.477  0.00  0.00    -0.040 Cl
ENDBRANCH  16  18
ENDBRANCH  10  13
BRANCH   1  26
ATOM     25  C   LIG    1       -0.024   3.889   0.864  0.00  0.00    +0.020 C 
ATOM     26  C   LIG    1        1.264   3.082   1.041  0.00  0.00    +0.030 C 
ATOM     27  C   LIG    1        1.212   2.323   2.369  0.00  0.00    +0.020 C 
ENDBRANCH   1  26
TORSDOF 3
