REMARK  Name = ZINCrD000000AgAz.0
REMARK                            x       y       z     vdW  Elec       q    Type
REMARK                         _______ _______ _______ _____ _____    ______ ____
ROOT
ATOM      1  O   LIG    1        4.138   5.693   1.561  0.00  0.00    -0.540 OA
ATOM      2  C   LIG    1        4.178   4.495   1.746  0.00  0.00    +0.520 C 
ATOM      3  N   LIG    1        3.465   3.667   0.957  0.00  0.00    -0.610 N 
ATOM      4  C   LIG    1        2.631   4.196  -0.134  0.00  0.00    +0.300 C 
ATOM      5  C   LIG    1        1.224   3.604  -0.001  0.00  0.00    +0.170 C 
ATOM      6  N   LIG    1        1.315   2.139   0.056  0.00  0.00    -0.530 NA
ATOM      7  C   LIG    1        2.057   1.698   1.245  0.00  0.00    +0.170 C 
ATOM      8  C   LIG    1        3.498   2.211   1.164  0.00  0.00    +0.280 C 
ENDROOT
BRANCH   6   9
ATOM      9  C   LIG    1       -0.019   1.526   0.010  0.00  0.00    +0.210 C 
BRANCH   9  10
ATOM     10  C   LIG    1       -0.558   1.584  -1.420  0.00  0.00    +0.190 C 
BRANCH  10  11
ATOM     11  O   LIG    1        0.259   0.776  -2.270  0.00  0.00    -0.290 OA
BRANCH  11  12
ATOM     12  C   LIG    1       -0.085   0.717  -3.584  0.00  0.00    +0.140 A 
ATOM     13  C   LIG    1       -1.186   1.423  -4.045  0.00  0.00    -0.070 A 
ATOM     14  C   LIG    1       -1.535   1.362  -5.381  0.00  0.00    +0.060 A 
ATOM     15  C   LIG    1       -0.787   0.599  -6.258  0.00  0.00    -0.020 A 
ATOM     16  C   LIG    1        0.311  -0.106  -5.801  0.00  0.00    +0.070 A 
ATOM     17  C   LIG    1        0.668  -0.044  -4.467  0.00  0.00    -0.070 A 
ATOM     18 CL   LIG    1        2.051  -0.923  -3.896  0.00  0.00    -0.060 Cl
ENDBRANCH  11  12
ENDBRANCH  10  11
ENDBRANCH   9  10
ENDBRANCH   6   9
BRANCH   2  19
ATOM     19  C   LIG    1        5.026   3.932   2.857  0.00  0.00    +0.080 C 
BRANCH  19  20
ATOM     20  C   LIG    1        5.727   5.075   3.594  0.00  0.00    +0.220 C 
BRANCH  20  21
ATOM     21  O   LIG    1        6.530   4.541   4.647  0.00  0.00    -0.320 OA
BRANCH  21  22
ATOM     22  C   LIG    1        7.225   5.430   5.405  0.00  0.00    +0.130 A 
ATOM     23  C   LIG    1        7.138   6.788   5.136  0.00  0.00    -0.080 A 
ATOM     24  C   LIG    1        7.841   7.691   5.911  0.00  0.00    +0.050 A 
ATOM     25  C   LIG    1        8.638   7.240   6.948  0.00  0.00    -0.040 A 
ATOM     26  C   LIG    1        8.730   5.887   7.214  0.00  0.00    +0.050 A 
ATOM     27  C   LIG    1        8.025   4.981   6.445  0.00  0.00    -0.020 A 
ENDBRANCH  21  22
ENDBRANCH  20  21
ENDBRANCH  19  20
ENDBRANCH   2  19
TORSDOF 8
