REMARK  Name = ZINCnE00000rhmLa.0
REMARK                            x       y       z     vdW  Elec       q    Type
REMARK                         _______ _______ _______ _____ _____    ______ ____
ROOT
ATOM      1  N   LIG    1        2.140  -4.847   0.270  0.00  0.00    -0.550 N 
ATOM      2  C   LIG    1        0.802  -4.920   0.280  0.00  0.00    +0.660 C 
ATOM      3  N   LIG    1        0.002  -3.848   0.195  0.00  0.00    -0.700 NA
ATOM      4  C   LIG    1        0.504  -2.600   0.097  0.00  0.00    +0.530 C 
ATOM      5  C   LIG    1        1.968  -2.439   0.074  0.00  0.00    -0.270 C 
ATOM      6  C   LIG    1        2.559  -1.183  -0.029  0.00  0.00    +0.210 C 
ATOM      7  O   LIG    1       -0.232  -1.634   0.026  0.00  0.00    -0.550 OA
ATOM      8  O   LIG    1        0.286  -6.017   0.370  0.00  0.00    -0.570 OA
ATOM      9  C   LIG    1        2.780  -3.663   0.172  0.00  0.00    +0.570 C 
ATOM     10  O   LIG    1        3.996  -3.610   0.163  0.00  0.00    -0.520 OA
ENDROOT
BRANCH   1  17
ATOM     11  C   LIG    1        2.855  -6.183  -2.140  0.00  0.00    +0.100 C 
ATOM     12  C   LIG    1        3.261  -6.709  -0.787  0.00  0.00    -0.070 A 
ATOM     13  C   LIG    1        4.001  -7.871  -0.691  0.00  0.00    +0.000 A 
ATOM     14  C   LIG    1        4.374  -8.354   0.549  0.00  0.00    +0.000 A 
ATOM     15  C   LIG    1        4.008  -7.676   1.697  0.00  0.00    +0.000 A 
ATOM     16  C   LIG    1        3.273  -6.511   1.608  0.00  0.00    +0.020 A 
ATOM     17  C   LIG    1        2.891  -6.026   0.364  0.00  0.00    +0.150 A 
ENDBRANCH   1  17
BRANCH   6  18
ATOM     18  C   LIG    1        1.772  -0.061  -0.334  0.00  0.00    -0.210 A 
ATOM     19  C   LIG    1        1.848   1.163   0.295  0.00  0.00    +0.060 A 
ATOM     20  C   LIG    1        0.962   2.081  -0.205  0.00  0.00    -0.120 A 
ATOM     21  C   LIG    1        0.184   1.637  -1.206  0.00  0.00    -0.090 A 
ATOM     22 BR   LIG    1        0.844   3.845   0.466  0.00  0.00    -0.050 Br
ATOM     23  S   LIG    1        0.533   0.010  -1.579  0.00  0.00    +0.390 S 
ENDBRANCH   6  18
TORSDOF 2
