REMARK  Name = ZINCpk00000AAqF7.1
REMARK                            x       y       z     vdW  Elec       q    Type
REMARK                         _______ _______ _______ _____ _____    ______ ____
ROOT
ATOM      1  C   LIG    1       -1.164  -0.489   0.994  0.00  0.00    +0.060 C 
ATOM      2  C   LIG    1       -0.011   0.004   0.118  0.00  0.00    +0.170 C 
ATOM      3  C   LIG    1        1.357  -0.287   0.789  0.00  0.00    +0.070 C 
ATOM      4  C   LIG    1        2.250   0.815   0.167  0.00  0.00    +0.240 C 
ATOM      5  N   LIG    1        1.374   1.997   0.064  0.00  0.00    -0.620 N 
ATOM      6  C   LIG    1        1.787   3.279   0.022  0.00  0.00    +0.610 C 
ATOM      7  O   LIG    1        0.973   4.176  -0.096  0.00  0.00    -0.510 OA
ATOM      8  C   LIG    1       -0.024   1.544   0.015  0.00  0.00    +0.270 C 
ENDROOT
BRANCH   6   9
ATOM      9  C   LIG    1        3.215   3.593   0.118  0.00  0.00    +0.000 A 
ATOM     10  C   LIG    1        3.757   4.853   0.247  0.00  0.00    +0.090 A 
ATOM     11  C   LIG    1        5.148   4.712   0.305  0.00  0.00    -0.040 A 
ATOM     12  C   LIG    1        5.434   3.354   0.208  0.00  0.00    +0.010 A 
ATOM     13  C   LIG    1        6.843   3.240   0.269  0.00  0.00    -0.050 A 
ATOM     14  C   LIG    1        7.337   4.484   0.394  0.00  0.00    +0.230 A 
ATOM     15  O   LIG    1        6.325   5.367   0.416  0.00  0.00    -0.170 OA
ATOM     16  N   LIG    1        4.247   2.675   0.101  0.00  0.00    -0.540 N 
ATOM     17  H   LIG    1        4.150   1.714   0.023  0.00  0.00    +0.420 HD
ENDBRANCH   6   9
BRANCH   2  18
ATOM     18  N   LIG    1       -0.076  -0.605  -1.213  0.00  0.00    -0.720 N 
ATOM     19  H   LIG    1        0.649  -1.168  -1.524  0.00  0.00    +0.400 HD
ATOM     20  C   LIG    1       -1.145  -0.383  -2.004  0.00  0.00    +0.510 C 
ATOM     21  O   LIG    1       -2.052   0.321  -1.614  0.00  0.00    -0.510 OA
BRANCH  20  22
ATOM     22  C   LIG    1       -1.212  -1.010  -3.373  0.00  0.00    +0.160 C 
BRANCH  22  23
ATOM     23  C   LIG    1       -2.498  -0.607  -4.047  0.00  0.00    -0.020 A 
ATOM     24  C   LIG    1       -3.695  -1.209  -3.916  0.00  0.00    +0.170 A 
ATOM     25  N   LIG    1       -4.579  -0.545  -4.676  0.00  0.00    -0.490 NA
ATOM     26  C   LIG    1       -3.972   0.439  -5.281  0.00  0.00    +0.400 A 
ATOM     27  N   LIG    1       -2.672   0.436  -4.915  0.00  0.00    -0.560 N 
ATOM     28  H   LIG    1       -1.989   1.058  -5.213  0.00  0.00    +0.420 HD
ENDBRANCH  22  23
ENDBRANCH  20  22
ENDBRANCH   2  18
TORSDOF 4
