REMARK  Name = ZINCpk00000AAqF7.0
REMARK                            x       y       z     vdW  Elec       q    Type
REMARK                         _______ _______ _______ _____ _____    ______ ____
ROOT
ATOM      1  C   LIG    1       -2.573   0.262   1.283  0.00  0.00    +0.060 C 
ATOM      2  C   LIG    1       -2.449   1.117   0.020  0.00  0.00    +0.170 C 
ATOM      3  C   LIG    1       -3.664   2.070  -0.130  0.00  0.00    +0.070 C 
ATOM      4  C   LIG    1       -3.737   2.301  -1.654  0.00  0.00    +0.220 C 
ATOM      5  N   LIG    1       -3.050   1.173  -2.300  0.00  0.00    -0.620 N 
ATOM      6  C   LIG    1       -2.878   1.014  -3.627  0.00  0.00    +0.610 C 
ATOM      7  O   LIG    1       -2.289   0.037  -4.051  0.00  0.00    -0.510 OA
ATOM      8  C   LIG    1       -2.579   0.246  -1.255  0.00  0.00    +0.280 C 
ENDROOT
BRANCH   6   9
ATOM      9  C   LIG    1       -3.399   2.018  -4.558  0.00  0.00    +0.000 A 
ATOM     10  C   LIG    1       -3.292   1.976  -5.931  0.00  0.00    +0.090 A 
ATOM     11  C   LIG    1       -3.920   3.119  -6.441  0.00  0.00    -0.040 A 
ATOM     12  C   LIG    1       -4.403   3.846  -5.358  0.00  0.00    +0.010 A 
ATOM     13  C   LIG    1       -5.031   4.993  -5.898  0.00  0.00    -0.050 A 
ATOM     14  C   LIG    1       -4.908   4.920  -7.235  0.00  0.00    +0.230 A 
ATOM     15  O   LIG    1       -4.243   3.799  -7.563  0.00  0.00    -0.170 OA
ATOM     16  N   LIG    1       -4.087   3.164  -4.211  0.00  0.00    -0.540 N 
ATOM     17  H   LIG    1       -4.307   3.442  -3.308  0.00  0.00    +0.420 HD
ENDBRANCH   6   9
BRANCH   2  18
ATOM     18  N   LIG    1       -1.191   1.867   0.018  0.00  0.00    -0.730 N 
ATOM     19  H   LIG    1       -1.204   2.837   0.023  0.00  0.00    +0.400 HD
ATOM     20  C   LIG    1       -0.014   1.209   0.009  0.00  0.00    +0.520 C 
ATOM     21  O   LIG    1        0.002  -0.004   0.002  0.00  0.00    -0.510 OA
BRANCH  20  22
ATOM     22  C   LIG    1        1.280   1.980   0.001  0.00  0.00    +0.150 C 
BRANCH  22  23
ATOM     23  C   LIG    1        2.439   1.016  -0.016  0.00  0.00    +0.010 A 
ATOM     24  C   LIG    1        3.438   0.996  -0.918  0.00  0.00    +0.130 A 
ATOM     25  N   LIG    1        4.271  -0.031  -0.563  0.00  0.00    -0.570 N 
ATOM     26  H   LIG    1        5.083  -0.298  -1.021  0.00  0.00    +0.420 HD
ATOM     27  C   LIG    1        3.752  -0.602   0.545  0.00  0.00    +0.400 A 
ATOM     28  N   LIG    1        2.658   0.033   0.869  0.00  0.00    -0.470 NA
ENDBRANCH  22  23
ENDBRANCH  20  22
ENDBRANCH   2  18
TORSDOF 4
