REMARK  Name = ZINCqH0000006vRn.0
REMARK                            x       y       z     vdW  Elec       q    Type
REMARK                         _______ _______ _______ _____ _____    ______ ____
ROOT
ATOM      1  C   LIG    1        3.337   9.728  -0.328  0.00  0.00    +0.500 C 
ATOM      2  N   LIG    1        2.206   9.043  -0.064  0.00  0.00    -0.670 N 
ATOM      3  H   LIG    1        1.369   9.517   0.060  0.00  0.00    +0.420 HD
ATOM      4  O   LIG    1        4.396   9.142  -0.410  0.00  0.00    -0.500 OA
ENDROOT
BRANCH   2   5
ATOM      5  C   LIG    1        2.240   7.647   0.030  0.00  0.00    +0.150 A 
ATOM      6  C   LIG    1        1.163   6.894  -0.420  0.00  0.00    -0.010 A 
ATOM      7  C   LIG    1        1.197   5.516  -0.328  0.00  0.00    +0.050 A 
ATOM      8  C   LIG    1        2.303   4.883   0.207  0.00  0.00    +0.000 A 
ATOM      9  C   LIG    1        3.379   5.631   0.663  0.00  0.00    +0.100 A 
ATOM     10  C   LIG    1        3.349   7.014   0.572  0.00  0.00    +0.030 A 
BRANCH   9  11
ATOM     11  O   LIG    1        4.464   5.008   1.194  0.00  0.00    -0.240 OA
BRANCH  11  12
ATOM     12  C   LIG    1        4.624   5.045   2.541  0.00  0.00    +0.270 A 
ATOM     13  C   LIG    1        5.660   4.335   3.140  0.00  0.00    +0.230 A 
ATOM     14  N   LIG    1        5.815   4.377   4.450  0.00  0.00    -0.400 NA
ATOM     15  C   LIG    1        4.982   5.084   5.194  0.00  0.00    +0.190 A 
ATOM     16  C   LIG    1        3.951   5.791   4.601  0.00  0.00    +0.260 A 
ATOM     17  N   LIG    1        3.793   5.757   3.289  0.00  0.00    -0.480 NA
ENDBRANCH  11  12
ENDBRANCH   9  11
ENDBRANCH   2   5
BRANCH   1  18
ATOM     18  C   LIG    1        3.285  11.222  -0.520  0.00  0.00    +0.150 C 
ATOM     19  C   LIG    1        3.403  11.915   0.838  0.00  0.00    +0.100 C 
BRANCH  18  20
ATOM     20  C   LIG    1        4.425  11.654  -1.406  0.00  0.00    -0.110 A 
ATOM     21  C   LIG    1        4.853  10.832  -2.432  0.00  0.00    +0.040 A 
ATOM     22  C   LIG    1        5.896  11.230  -3.247  0.00  0.00    +0.000 A 
ATOM     23  C   LIG    1        6.516  12.447  -3.031  0.00  0.00    +0.010 A 
ATOM     24  C   LIG    1        6.092  13.266  -2.002  0.00  0.00    +0.010 A 
ATOM     25  C   LIG    1        5.046  12.870  -1.189  0.00  0.00    +0.040 A 
ENDBRANCH  18  20
BRANCH  18  27
ATOM     26  C   LIG    1        1.833  10.983  -2.412  0.00  0.00    +0.220 C 
ATOM     27  O   LIG    1        2.044  11.581  -1.131  0.00  0.00    -0.360 OA
ENDBRANCH  18  27
ENDBRANCH   1  18
TORSDOF 6
