REMARK  Name = ZINCrg000000mWmj.0
REMARK                            x       y       z     vdW  Elec       q    Type
REMARK                         _______ _______ _______ _____ _____    ______ ____
ROOT
ATOM      1  C   LIG    1        4.178  -0.825   0.485  0.00  0.00    +0.210 C 
ATOM      2  C   LIG    1        4.093  -1.245   1.954  0.00  0.00    +0.090 C 
ENDROOT
BRANCH   1   3
ATOM      3  N   LIG    1        5.584  -0.759   0.076  0.00  0.00    -0.400 N 
ATOM      4  C   LIG    1        6.538   0.028   0.610  0.00  0.00    +0.530 A 
ATOM      5  N   LIG    1        7.675  -0.179  -0.003  0.00  0.00    -0.500 NA
ATOM      6  C   LIG    1        7.514  -1.101  -0.956  0.00  0.00    +0.330 A 
ATOM      7  N   LIG    1        8.364  -1.683  -1.883  0.00  0.00    -0.510 N 
ATOM      8  C   LIG    1        9.774  -1.288  -1.932  0.00  0.00    +0.340 C 
ATOM      9  C   LIG    1        7.899  -2.623  -2.728  0.00  0.00    +0.710 A 
ATOM     10  O   LIG    1        8.660  -3.125  -3.532  0.00  0.00    -0.530 OA
ATOM     11  N   LIG    1        6.612  -3.012  -2.712  0.00  0.00    -0.550 N 
ATOM     12  C   LIG    1        6.155  -4.032  -3.659  0.00  0.00    +0.350 C 
ATOM     13  C   LIG    1        5.736  -2.478  -1.835  0.00  0.00    +0.600 A 
ATOM     14  O   LIG    1        4.573  -2.840  -1.830  0.00  0.00    -0.520 OA
ATOM     15  C   LIG    1        6.183  -1.496  -0.925  0.00  0.00    -0.160 A 
ENDBRANCH   1   3
BRANCH   1  16
ATOM     16  C   LIG    1        3.542   0.530   0.313  0.00  0.00    +0.420 C 
ATOM     17  O   LIG    1        4.228   1.532   0.338  0.00  0.00    -0.430 OA
BRANCH  16  22
ATOM     18  C   LIG    1        0.078   1.444  -0.204  0.00  0.00    -0.260 A 
ATOM     19  C   LIG    1        0.013   0.060  -0.123  0.00  0.00    +0.130 A 
ATOM     20  N   LIG    1        1.250  -0.416   0.071  0.00  0.00    -0.520 N 
ATOM     21  H   LIG    1        1.482  -1.353   0.163  0.00  0.00    +0.420 HD
ATOM     22  C   LIG    1        2.143   0.636   0.121  0.00  0.00    -0.110 A 
ATOM     23  C   LIG    1       -1.241  -0.768  -0.235  0.00  0.00    +0.160 C 
ATOM     24  C   LIG    1        1.436   1.806  -0.048  0.00  0.00    -0.000 A 
ATOM     25  C   LIG    1        2.001   3.203  -0.064  0.00  0.00    +0.140 C 
BRANCH  18  27
ATOM     26  C   LIG    1       -1.770   2.953   0.764  0.00  0.00    +0.080 C 
ATOM     27  C   LIG    1       -1.048   2.358  -0.417  0.00  0.00    +0.430 C 
ATOM     28  O   LIG    1       -1.399   2.636  -1.545  0.00  0.00    -0.450 OA
ENDBRANCH  18  27
ENDBRANCH  16  22
ENDBRANCH   1  16
TORSDOF 4
