REMARK  Name = ZINCvU00000005zA.0
REMARK                            x       y       z     vdW  Elec       q    Type
REMARK                         _______ _______ _______ _____ _____    ______ ____
ROOT
ATOM      1  C   LIG    1       -0.555   6.344  -0.948  0.00  0.00    +0.200 A 
ATOM      2  N   LIG    1       -0.380   7.569  -0.541  0.00  0.00    -0.240 NA
ATOM      3  N   LIG    1        0.174   7.576   0.618  0.00  0.00    -0.280 NA
ATOM      4  C   LIG    1        0.381   6.344   1.022  0.00  0.00    +0.160 A 
ATOM      5  N   LIG    1       -0.073   5.517   0.032  0.00  0.00    -0.420 N 
ENDROOT
BRANCH   5   6
ATOM      6  C   LIG    1       -0.054   4.114   0.024  0.00  0.00    +0.090 A 
ATOM      7  C   LIG    1        1.157   3.436   0.009  0.00  0.00    +0.070 A 
ATOM      8  C   LIG    1        1.174   2.055   0.002  0.00  0.00    +0.010 A 
ATOM      9  C   LIG    1       -0.016   1.347   0.009  0.00  0.00    +0.120 A 
ATOM     10  C   LIG    1       -1.225   2.022   0.019  0.00  0.00    +0.010 A 
ATOM     11  F   LIG    1        0.002  -0.004   0.002  0.00  0.00    -0.130 F 
ATOM     12  C   LIG    1       -1.246   3.403   0.032  0.00  0.00    +0.070 A 
ENDBRANCH   5   6
BRANCH   1  14
ATOM     13  C   LIG    1       -0.175   6.148  -3.391  0.00  0.00    +0.070 C 
ATOM     14  C   LIG    1       -1.172   5.915  -2.254  0.00  0.00    +0.230 C 
BRANCH  14  15
ATOM     15  N   LIG    1       -2.389   6.701  -2.502  0.00  0.00    -0.530 NA
ATOM     16  C   LIG    1       -3.333   6.575  -1.383  0.00  0.00    +0.190 C 
ATOM     17  C   LIG    1       -3.019   6.309  -3.769  0.00  0.00    +0.210 C 
ENDBRANCH  14  15
ENDBRANCH   1  14
BRANCH   4  18
ATOM     18  S   LIG    1        1.108   5.851   2.549  0.00  0.00    +0.050 S 
BRANCH  18  19
ATOM     19  C   LIG    1        1.428   7.473   3.284  0.00  0.00    +0.240 C 
BRANCH  19  20
ATOM     20  C   LIG    1        2.068   7.295   4.637  0.00  0.00    +0.180 A 
ATOM     21  N   LIG    1        3.344   7.220   4.879  0.00  0.00    -0.360 NA
ATOM     22  O   LIG    1        3.543   7.077   6.066  0.00  0.00    +0.100 OA
ATOM     23  C   LIG    1        2.372   7.046   6.721  0.00  0.00    +0.230 A 
ATOM     24  N   LIG    1        1.425   7.190   5.810  0.00  0.00    -0.460 NA
BRANCH  23  25
ATOM     25  C   LIG    1        2.178   6.886   8.177  0.00  0.00    -0.030 A 
ATOM     26  C   LIG    1        0.891   6.878   8.716  0.00  0.00    +0.100 A 
ATOM     27  C   LIG    1        0.716   6.724  10.076  0.00  0.00    +0.040 A 
ATOM     28  C   LIG    1        1.816   6.589  10.907  0.00  0.00    -0.010 A 
ATOM     29  C   LIG    1        3.096   6.601  10.378  0.00  0.00    +0.040 A 
ATOM     30 CL   LIG    1        1.589   6.402  12.618  0.00  0.00    -0.050 Cl
ATOM     31  C   LIG    1        3.283   6.749   9.020  0.00  0.00    +0.090 A 
ENDBRANCH  23  25
ENDBRANCH  19  20
ENDBRANCH  18  19
ENDBRANCH   4  18
TORSDOF 7
