REMARK  Name = ZINCqH0000008w8Y.0
REMARK                            x       y       z     vdW  Elec       q    Type
REMARK                         _______ _______ _______ _____ _____    ______ ____
ROOT
ATOM      1  C   LIG    1        0.111   0.992   2.401  0.00  0.00    +0.540 C 
ATOM      2  N   LIG    1        1.052   1.768   2.973  0.00  0.00    -0.660 N 
ATOM      3  H   LIG    1        1.306   2.608   2.558  0.00  0.00    +0.420 HD
ATOM      4  O   LIG    1       -0.138  -0.101   2.865  0.00  0.00    -0.500 OA
ENDROOT
BRANCH   2   5
ATOM      5  C   LIG    1        1.664   1.363   4.166  0.00  0.00    +0.130 A 
ATOM      6  C   LIG    1        0.942   0.641   5.107  0.00  0.00    +0.070 A 
ATOM      7  C   LIG    1        1.548   0.237   6.280  0.00  0.00    -0.030 A 
ATOM      8  C   LIG    1        2.874   0.563   6.525  0.00  0.00    +0.090 A 
ATOM      9  C   LIG    1        3.594   1.290   5.588  0.00  0.00    +0.050 A 
ATOM     10  C   LIG    1        2.991   1.689   4.412  0.00  0.00    +0.040 A 
BRANCH   8  11
ATOM     11  O   LIG    1        3.468   0.170   7.683  0.00  0.00    -0.310 OA
BRANCH  11  12
ATOM     12  C   LIG    1        2.667  -0.575   8.602  0.00  0.00    +0.600 C 
ATOM     13  F   LIG    1        1.562   0.192   8.988  0.00  0.00    -0.160 F 
ATOM     14  F   LIG    1        3.429  -0.895   9.731  0.00  0.00    -0.130 F 
ATOM     15  F   LIG    1        2.225  -1.752   7.989  0.00  0.00    -0.160 F 
ENDBRANCH  11  12
ENDBRANCH   8  11
ENDBRANCH   2   5
BRANCH   1  17
ATOM     16  C   LIG    1        0.183   1.165  -0.072  0.00  0.00    +0.100 C 
ATOM     17  C   LIG    1       -0.632   1.480   1.184  0.00  0.00    +0.020 C 
BRANCH  17  18
ATOM     18  S   LIG    1       -2.242   0.650   1.085  0.00  0.00    +0.070 S 
BRANCH  18  19
ATOM     19  C   LIG    1       -3.012   1.443  -0.287  0.00  0.00    +0.110 A 
ATOM     20  N   LIG    1       -2.498   2.405  -1.021  0.00  0.00    -0.250 NA
ATOM     21  N   LIG    1       -3.324   2.754  -1.943  0.00  0.00    -0.280 NA
ATOM     22  C   LIG    1       -4.428   2.036  -1.846  0.00  0.00    +0.200 A 
ATOM     23  C   LIG    1       -5.633   2.005  -2.577  0.00  0.00    +0.080 A 
ATOM     24  C   LIG    1       -6.605   1.125  -2.217  0.00  0.00    +0.070 A 
ATOM     25  C   LIG    1       -6.399   0.261  -1.126  0.00  0.00    +0.030 A 
ATOM     26  C   LIG    1       -5.243   0.299  -0.433  0.00  0.00    +0.240 A 
ATOM     27  N   LIG    1       -4.255   1.177  -0.781  0.00  0.00    -0.380 N 
ENDBRANCH  18  19
ENDBRANCH  17  18
ENDBRANCH   1  17
TORSDOF 6
