REMARK  Name = ZINCbu0000001gUp.0
REMARK                            x       y       z     vdW  Elec       q    Type
REMARK                         _______ _______ _______ _____ _____    ______ ____
ROOT
ATOM      1  C   LIG    1       -0.718   1.572   1.248  0.00  0.00    +0.070 A 
ATOM      2  N   LIG    1       -1.114   2.827   1.322  0.00  0.00    -0.450 NA
ATOM      3  C   LIG    1       -1.735   3.297   2.387  0.00  0.00    +0.320 A 
ATOM      4  C   LIG    1       -1.996   2.480   3.472  0.00  0.00    -0.050 A 
ATOM      5  C   LIG    1       -1.594   1.153   3.431  0.00  0.00    +0.120 A 
ATOM      6 CL   LIG    1       -2.814   3.108   4.869  0.00  0.00    -0.000 Cl
ATOM      7  C   LIG    1       -0.948   0.694   2.292  0.00  0.00    -0.050 A 
ATOM      8 CL   LIG    1       -0.429  -0.959   2.182  0.00  0.00    -0.010 Cl
ENDROOT
BRANCH   1  10
ATOM      9  C   LIG    1        1.423   1.615  -0.003  0.00  0.00    +0.120 C 
ATOM     10  C   LIG    1       -0.013   1.086   0.008  0.00  0.00    +0.250 C 
BRANCH  10  11
ATOM     11  N   LIG    1       -0.723   1.572  -1.182  0.00  0.00    -0.630 N 
ATOM     12  H   LIG    1       -0.737   2.581  -1.177  0.00  0.00    +0.440 HD
ATOM     13  H   LIG    1       -1.670   1.223  -1.175  0.00  0.00    +0.440 HD
ATOM     14  H   LIG    1       -0.251   1.247  -2.012  0.00  0.00    +0.440 HD
ENDBRANCH  10  11
ENDBRANCH   1  10
TORSDOF 2
