REMARK  Name = ZINCpk000004FCZH.0
REMARK                            x       y       z     vdW  Elec       q    Type
REMARK                         _______ _______ _______ _____ _____    ______ ____
ROOT
ATOM      1  C   LIG    1        1.995  -3.041   2.496  0.00  0.00    +0.400 A 
ATOM      2  N   LIG    1        2.406  -3.640   1.400  0.00  0.00    -0.300 NA
ATOM      3  N   LIG    1        2.033  -2.985   0.361  0.00  0.00    -0.040 NA
ATOM      4  N   LIG    1        1.376  -1.931   0.709  0.00  0.00    -0.070 NA
ATOM      5  N   LIG    1        1.327  -1.928   2.114  0.00  0.00    -0.390 N 
ENDROOT
BRANCH   1   9
ATOM      6  C   LIG    1        1.366  -3.543   6.018  0.00  0.00    +0.260 C 
ATOM      7  C   LIG    1        2.513  -2.507   6.006  0.00  0.00    +0.040 C 
ATOM      8  C   LIG    1        3.012  -2.477   4.549  0.00  0.00    +0.200 C 
ATOM      9  N   LIG    1        2.210  -3.465   3.795  0.00  0.00    -0.420 N 
ATOM     10  C   LIG    1        0.928  -3.593   4.533  0.00  0.00    +0.190 C 
BRANCH   6  13
ATOM     11  C   LIG    1       -0.851  -2.877   9.067  0.00  0.00    +0.110 C 
ATOM     12  C   LIG    1        0.283  -3.346   8.192  0.00  0.00    +0.510 C 
ATOM     13  N   LIG    1        0.264  -3.087   6.869  0.00  0.00    -0.730 N 
ATOM     14  H   LIG    1       -0.478  -2.599   6.481  0.00  0.00    +0.400 HD
ATOM     15  O   LIG    1        1.211  -3.957   8.677  0.00  0.00    -0.540 OA
ENDBRANCH   6  13
ENDBRANCH   1   9
BRANCH   5  16
ATOM     16  C   LIG    1        0.687  -0.933   2.979  0.00  0.00    +0.330 C 
BRANCH  16  17
ATOM     17  C   LIG    1       -0.815  -1.215   3.056  0.00  0.00    -0.020 C 
ATOM     18  C   LIG    1       -1.447  -0.987   1.681  0.00  0.00    +0.000 C 
ATOM     19  C   LIG    1       -2.949  -1.268   1.758  0.00  0.00    +0.020 C 
ATOM     20  C   LIG    1       -3.593  -0.327   2.778  0.00  0.00    -0.020 C 
ATOM     21  C   LIG    1       -3.367   1.124   2.346  0.00  0.00    +0.010 C 
ATOM     22  C   LIG    1       -1.865   1.405   2.269  0.00  0.00    -0.020 C 
ATOM     23  C   LIG    1       -1.232   1.177   3.644  0.00  0.00    +0.020 C 
ATOM     24  C   LIG    1       -2.960  -0.554   4.153  0.00  0.00    +0.020 C 
ATOM     25  C   LIG    1       -1.221   0.463   1.250  0.00  0.00    +0.020 C 
ATOM     26  C   LIG    1       -1.458  -0.273   4.075  0.00  0.00    -0.010 C 
ENDBRANCH  16  17
ENDBRANCH   5  16
TORSDOF 4
