REMARK  Name = ZINCpe00000MAm0J.0
REMARK                            x       y       z     vdW  Elec       q    Type
REMARK                         _______ _______ _______ _____ _____    ______ ____
ROOT
ATOM      1  C   LIG    1        7.888  -0.264   3.803  0.00  0.00    +0.200 C 
ATOM      2  N   LIG    1        8.691  -0.189   2.575  0.00  0.00    -0.530 NA
ATOM      3  C   LIG    1        9.987  -0.862   2.750  0.00  0.00    +0.150 C 
ATOM      4  C   LIG    1       10.813  -0.716   1.470  0.00  0.00    +0.220 C 
ATOM      5  O   LIG    1       10.072  -1.240   0.364  0.00  0.00    -0.380 OA
ATOM      6  C   LIG    1        8.809  -0.601   0.167  0.00  0.00    +0.170 C 
ATOM      7  C   LIG    1        8.079  -1.244  -1.013  0.00  0.00    +0.030 C 
ATOM      8  C   LIG    1        6.748  -0.526  -1.232  0.00  0.00    +0.290 C 
ATOM      9  N   LIG    1        5.988  -0.524   0.025  0.00  0.00    -0.590 N 
ATOM     10  C   LIG    1        6.635  -0.018   1.244  0.00  0.00    +0.310 C 
ATOM     11  C   LIG    1        4.721  -0.982   0.061  0.00  0.00    +0.580 C 
ATOM     12  O   LIG    1        4.070  -0.888   1.083  0.00  0.00    -0.540 OA
ATOM     13  C   LIG    1        7.963  -0.758   1.434  0.00  0.00    +0.090 C 
ENDROOT
BRANCH  11  14
ATOM     14  C   LIG    1        4.124  -1.599  -1.142  0.00  0.00    -0.090 A 
ATOM     15  C   LIG    1        4.773  -2.655  -1.784  0.00  0.00    +0.030 A 
ATOM     16  C   LIG    1        4.210  -3.226  -2.907  0.00  0.00    +0.020 A 
ATOM     17  C   LIG    1        3.005  -2.755  -3.397  0.00  0.00    +0.030 A 
ATOM     18  C   LIG    1        2.354  -1.712  -2.761  0.00  0.00    +0.030 A 
ATOM     19  C   LIG    1        2.908  -1.129  -1.641  0.00  0.00    -0.070 A 
BRANCH  19  20
ATOM     20  C   LIG    1        2.200   0.010  -0.954  0.00  0.00    +0.380 C 
BRANCH  20  21
ATOM     21  N   LIG    1        2.747   1.284  -1.429  0.00  0.00    -0.370 N 
ATOM     22  C   LIG    1        2.058   2.305  -1.967  0.00  0.00    +0.470 A 
ATOM     23  N   LIG    1        2.907   3.256  -2.261  0.00  0.00    -0.550 NA
ATOM     24  C   LIG    1        4.141   2.880  -1.927  0.00  0.00    +0.410 A 
ATOM     25  N   LIG    1        4.094   1.679  -1.414  0.00  0.00    -0.310 NA
ENDBRANCH  20  21
ENDBRANCH  19  20
ENDBRANCH  11  14
TORSDOF 3
