REMARK  Name = ZINCqH0000005rSW.0
REMARK                            x       y       z     vdW  Elec       q    Type
REMARK                         _______ _______ _______ _____ _____    ______ ____
ROOT
ATOM      1  N   LIG    1       -0.082   5.250   0.029  0.00  0.00    -0.660 N 
ATOM      2  H   LIG    1       -0.854   5.717   0.387  0.00  0.00    +0.410 HD
ATOM      3  C   LIG    1        0.956   5.949  -0.471  0.00  0.00    +0.590 C 
ATOM      4  O   LIG    1        1.878   5.366  -1.010  0.00  0.00    -0.490 OA
ENDROOT
BRANCH   3   5
ATOM      5  C   LIG    1        0.975   7.415  -0.364  0.00  0.00    -0.230 A 
ATOM      6  C   LIG    1        1.957   8.198  -0.822  0.00  0.00    +0.150 A 
ATOM      7  C   LIG    1        1.778   9.576  -0.621  0.00  0.00    -0.090 A 
ATOM      8  C   LIG    1        2.627  10.645  -0.991  0.00  0.00    +0.180 A 
ATOM      9  C   LIG    1        2.285  11.930  -0.705  0.00  0.00    -0.040 A 
ATOM     10  C   LIG    1        1.096  12.216  -0.046  0.00  0.00    +0.130 A 
ATOM     11  C   LIG    1        0.249  11.199   0.326  0.00  0.00    +0.080 A 
ATOM     12  C   LIG    1        0.580   9.870   0.043  0.00  0.00    -0.100 A 
ATOM     13  S   LIG    1       -0.286   8.377   0.387  0.00  0.00    +0.170 S 
BRANCH   9  14
ATOM     14  N   LIG    1        3.187  13.034  -1.101  0.00  0.00    +0.030 N 
ATOM     15  O   LIG    1        2.886  14.187  -0.848  0.00  0.00    -0.150 OA
ATOM     16  O   LIG    1        4.231  12.790  -1.679  0.00  0.00    -0.150 OA
ENDBRANCH   9  14
ENDBRANCH   3   5
BRANCH   1  21
ATOM     17  C   LIG    1        1.198   1.794   0.028  0.00  0.00    -0.120 A 
ATOM     18  C   LIG    1        0.002   1.076   0.037  0.00  0.00    +0.030 A 
ATOM     19  C   LIG    1       -1.205   1.746   0.039  0.00  0.00    +0.040 A 
ATOM     20  C   LIG    1       -1.234   3.128   0.042  0.00  0.00    -0.090 A 
ATOM     21  C   LIG    1       -0.048   3.852   0.032  0.00  0.00    +0.140 A 
ATOM     22  C   LIG    1       -2.556   3.851   0.049  0.00  0.00    +0.100 C 
ATOM     23  C   LIG    1        1.169   3.189   0.025  0.00  0.00    +0.090 A 
BRANCH  17  27
ATOM     24  C   LIG    1        3.800  -0.977   0.014  0.00  0.00    +0.290 C 
ATOM     25  N   LIG    1        2.518  -0.268   0.022  0.00  0.00    -0.730 N 
ATOM     26  H   LIG    1        1.687  -0.769   0.029  0.00  0.00    +0.400 HD
ATOM     27  C   LIG    1        2.492   1.079   0.020  0.00  0.00    +0.560 C 
ATOM     28  O   LIG    1        3.533   1.707   0.011  0.00  0.00    -0.530 OA
ENDBRANCH  17  27
ENDBRANCH   1  21
TORSDOF 4
