REMARK  Name = ZINCrH000004tJPW.0
REMARK                            x       y       z     vdW  Elec       q    Type
REMARK                         _______ _______ _______ _____ _____    ______ ____
ROOT
ATOM      1  C   LIG    1        1.084   1.151  -0.058  0.00  0.00    +0.150 A 
ATOM      2  C   LIG    1        1.036   2.536  -0.142  0.00  0.00    +0.040 A 
ATOM      3  C   LIG    1        2.208   3.267  -0.163  0.00  0.00    +0.040 A 
ATOM      4  C   LIG    1        3.433   2.616  -0.111  0.00  0.00    +0.100 A 
ATOM      5  C   LIG    1        3.480   1.230  -0.032  0.00  0.00    +0.060 A 
ATOM      6  C   LIG    1        2.309   0.500  -0.005  0.00  0.00    +0.000 A 
ENDROOT
BRANCH   1   9
ATOM      7  O   LIG    1       -1.163   2.014   1.078  0.00  0.00    -0.520 OA
ATOM      8  C   LIG    1       -1.191   0.899   0.601  0.00  0.00    +0.520 C 
ATOM      9  N   LIG    1       -0.106   0.410  -0.031  0.00  0.00    -0.680 N 
ATOM     10  H   LIG    1       -0.149  -0.453  -0.472  0.00  0.00    +0.410 HD
BRANCH   8  11
ATOM     11  C   LIG    1       -2.438   0.061   0.715  0.00  0.00    +0.060 C 
BRANCH  11  12
ATOM     12  C   LIG    1       -3.511   0.845   1.472  0.00  0.00    +0.170 C 
BRANCH  12  13
ATOM     13  C   LIG    1       -4.759   0.006   1.587  0.00  0.00    -0.020 A 
ATOM     14  C   LIG    1       -5.044  -0.848   2.586  0.00  0.00    -0.060 A 
ATOM     15  C   LIG    1       -6.305  -1.414   2.294  0.00  0.00    -0.060 A 
ATOM     16  C   LIG    1       -6.712  -0.879   1.129  0.00  0.00    +0.160 A 
ATOM     17  O   LIG    1       -5.771  -0.019   0.705  0.00  0.00    -0.180 OA
ENDBRANCH  12  13
ENDBRANCH  11  12
ENDBRANCH   8  11
ENDBRANCH   1   9
BRANCH   4  18
ATOM     18  N   LIG    1        4.620   3.356  -0.138  0.00  0.00    -1.060 N 
ATOM     19  H   LIG    1        4.905   3.844   0.650  0.00  0.00    +0.430 HD
BRANCH  18  20
ATOM     20  S   LIG    1        5.539   3.398  -1.515  0.00  0.00    +2.690 S 
ATOM     21  O   LIG    1        5.720   2.048  -1.919  0.00  0.00    -0.940 OA
ATOM     22  O   LIG    1        6.620   4.282  -1.250  0.00  0.00    -0.950 OA
BRANCH  20  23
ATOM     23  C   LIG    1        4.565   4.165  -2.768  0.00  0.00    -0.690 A 
ATOM     24  C   LIG    1        3.683   3.409  -3.517  0.00  0.00    +0.170 A 
ATOM     25  C   LIG    1        2.915   4.011  -4.496  0.00  0.00    -0.020 A 
ATOM     26  C   LIG    1        3.038   5.369  -4.734  0.00  0.00    +0.160 A 
ATOM     27  C   LIG    1        3.926   6.124  -3.987  0.00  0.00    -0.030 A 
ATOM     28  F   LIG    1        2.292   5.957  -5.695  0.00  0.00    -0.130 F 
ATOM     29  C   LIG    1        4.688   5.522  -3.004  0.00  0.00    +0.160 A 
ENDBRANCH  20  23
ENDBRANCH  18  20
ENDBRANCH   4  18
TORSDOF 7
