REMARK  Name = ZINCrD0000073qaV.0
REMARK                            x       y       z     vdW  Elec       q    Type
REMARK                         _______ _______ _______ _____ _____    ______ ____
ROOT
ATOM      1  N   LIG    1       -8.694  -0.553   0.039  0.00  0.00    -0.610 N 
ATOM      2  C   LIG    1       -7.370  -0.303   0.034  0.00  0.00    +0.520 C 
ATOM      3  O   LIG    1       -6.579  -1.222   0.025  0.00  0.00    -0.510 OA
ATOM      4  C   LIG    1       -9.650   0.557   0.050  0.00  0.00    +0.290 C 
ENDROOT
BRANCH   1   5
ATOM      5  C   LIG    1       -9.178  -1.936   0.033  0.00  0.00    +0.350 C 
BRANCH   5   9
ATOM      6  C   LIG    1       -9.627  -3.306   4.057  0.00  0.00    +0.100 A 
ATOM      7  C   LIG    1       -8.422  -3.479   3.395  0.00  0.00    -0.040 A 
ATOM      8  C   LIG    1       -8.281  -3.040   2.091  0.00  0.00    +0.080 A 
ATOM      9  C   LIG    1       -9.337  -2.419   1.452  0.00  0.00    -0.120 A 
ATOM     10  C   LIG    1      -10.541  -2.244   2.109  0.00  0.00    +0.040 A 
ATOM     11  C   LIG    1      -10.690  -2.686   3.411  0.00  0.00    +0.070 A 
ATOM     12  F   LIG    1      -11.866  -2.515   4.054  0.00  0.00    -0.130 F 
BRANCH   6  14
ATOM     13  C   LIG    1       -8.635  -4.370   5.938  0.00  0.00    +0.250 C 
ATOM     14  O   LIG    1       -9.769  -3.742   5.337  0.00  0.00    -0.310 OA
ENDBRANCH   6  14
ENDBRANCH   5   9
ENDBRANCH   1   5
BRANCH   2  15
ATOM     15  C   LIG    1       -6.873   1.120   0.040  0.00  0.00    +0.270 C 
BRANCH  15  16
ATOM     16  O   LIG    1       -5.421   1.125   0.033  0.00  0.00    -0.320 OA
BRANCH  16  17
ATOM     17  C   LIG    1       -4.812   2.328   0.037  0.00  0.00    +0.550 C 
ATOM     18  O   LIG    1       -5.478   3.346   0.046  0.00  0.00    -0.480 OA
BRANCH  17  19
ATOM     19  C   LIG    1       -3.347   2.410   0.031  0.00  0.00    -0.010 A 
ATOM     20  C   LIG    1       -2.628   3.563   0.046  0.00  0.00    +0.090 A 
ATOM     21  C   LIG    1       -1.221   3.164   0.030  0.00  0.00    -0.150 A 
ATOM     22  C   LIG    1       -0.011   3.861   0.022  0.00  0.00    +0.080 A 
ATOM     23  C   LIG    1        1.168   3.171   0.008  0.00  0.00    +0.000 A 
ATOM     24  C   LIG    1        1.171   1.783   0.001  0.00  0.00    +0.070 A 
ATOM     25  C   LIG    1       -0.013   1.076   0.008  0.00  0.00    +0.030 A 
ATOM     26  C   LIG    1       -1.225   1.756   0.017  0.00  0.00    +0.080 A 
ATOM     27  O   LIG    1       -2.510   1.351   0.021  0.00  0.00    -0.170 OA
ENDBRANCH  17  19
ENDBRANCH  16  17
ENDBRANCH  15  16
ENDBRANCH   2  15
TORSDOF 7
