REMARK  Name = ZINCrD000000CJ4E.0
REMARK                            x       y       z     vdW  Elec       q    Type
REMARK                         _______ _______ _______ _____ _____    ______ ____
ROOT
ATOM      1  O   LIG    1       -0.222  -2.804  -0.002  0.00  0.00    -0.520 OA
ATOM      2  C   LIG    1       -1.261  -2.172   0.004  0.00  0.00    +0.570 C 
ATOM      3  N   LIG    1       -2.440  -2.815   0.114  0.00  0.00    -0.590 N 
ATOM      4  C   LIG    1       -3.709  -2.071   0.139  0.00  0.00    +0.270 C 
ATOM      5  C   LIG    1       -4.529  -2.544   1.339  0.00  0.00    +0.210 C 
ATOM      6  O   LIG    1       -4.629  -3.970   1.310  0.00  0.00    -0.370 OA
ATOM      7  C   LIG    1       -3.375  -4.647   1.421  0.00  0.00    +0.200 C 
ATOM      8  C   LIG    1       -2.496  -4.282   0.219  0.00  0.00    +0.270 C 
ENDROOT
BRANCH   7   9
ATOM      9  C   LIG    1       -3.606  -6.136   1.442  0.00  0.00    -0.080 A 
ATOM     10  C   LIG    1       -4.729  -6.662   0.882  0.00  0.00    +0.050 A 
ATOM     11  C   LIG    1       -4.958  -8.037   0.888  0.00  0.00    +0.010 A 
ATOM     12  C   LIG    1       -4.069  -8.893   1.462  0.00  0.00    +0.030 A 
ATOM     13  C   LIG    1       -2.900  -8.386   2.054  0.00  0.00    -0.050 A 
ATOM     14  C   LIG    1       -1.959  -9.239   2.657  0.00  0.00    +0.030 A 
ATOM     15  C   LIG    1       -0.838  -8.712   3.221  0.00  0.00    +0.000 A 
ATOM     16  C   LIG    1       -0.607  -7.338   3.212  0.00  0.00    +0.010 A 
ATOM     17  C   LIG    1       -1.496  -6.482   2.637  0.00  0.00    +0.010 A 
ATOM     18  C   LIG    1       -2.665  -6.988   2.044  0.00  0.00    -0.040 A 
ENDBRANCH   7   9
BRANCH   2  19
ATOM     19  C   LIG    1       -1.230  -0.696  -0.111  0.00  0.00    +0.190 A 
ATOM     20  C   LIG    1       -0.015   0.004  -0.075  0.00  0.00    -0.160 A 
ATOM     21  C   LIG    1        1.390  -0.364   0.060  0.00  0.00    +0.010 A 
ATOM     22  C   LIG    1        2.098   0.779   0.023  0.00  0.00    +0.260 A 
ATOM     23  N   LIG    1        1.255   1.847  -0.124  0.00  0.00    -0.570 N 
ATOM     24  H   LIG    1        1.536   2.775  -0.176  0.00  0.00    +0.430 HD
ATOM     25  C   LIG    1       -0.042   1.415  -0.188  0.00  0.00    +0.320 A 
ATOM     26  N   LIG    1       -1.216   2.016  -0.319  0.00  0.00    -0.510 NA
ATOM     27  C   LIG    1       -2.332   1.316  -0.351  0.00  0.00    +0.520 A 
ATOM     28  N   LIG    1       -2.355   0.003  -0.250  0.00  0.00    -0.510 NA
ENDBRANCH   2  19
TORSDOF 2
