REMARK  Name = ZINCnE000005rO9w.0
REMARK                            x       y       z     vdW  Elec       q    Type
REMARK                         _______ _______ _______ _____ _____    ______ ____
ROOT
ATOM      1  C   LIG    1       -2.894   7.687   0.379  0.00  0.00    -0.060 A 
ATOM      2  N   LIG    1       -1.655   7.321   0.283  0.00  0.00    -0.260 NA
ATOM      3  N   LIG    1       -1.370   5.979   0.167  0.00  0.00    -0.470 NA
ATOM      4  C   LIG    1       -2.437   5.134   0.150  0.00  0.00    +0.360 A 
ATOM      5  N   LIG    1       -2.424   3.817   0.044  0.00  0.00    -0.620 NA
ATOM      6  S   LIG    1       -3.849   6.196   0.311  0.00  0.00    -0.050 S 
ENDROOT
BRANCH   5   7
ATOM      7  C   LIG    1       -1.246   3.162  -0.186  0.00  0.00    +0.260 A 
ATOM      8  C   LIG    1       -0.390   3.593  -1.202  0.00  0.00    -0.040 A 
ATOM      9  C   LIG    1        0.796   2.927  -1.429  0.00  0.00    +0.040 A 
ATOM     10  C   LIG    1        1.139   1.834  -0.653  0.00  0.00    -0.070 A 
ATOM     11  C   LIG    1        0.296   1.401   0.356  0.00  0.00    +0.060 A 
ATOM     12  C   LIG    1       -0.896   2.054   0.591  0.00  0.00    -0.230 A 
BRANCH  12  13
ATOM     13  C   LIG    1       -1.815   1.577   1.685  0.00  0.00    +0.520 C 
ATOM     14  F   LIG    1       -3.051   1.220   1.134  0.00  0.00    -0.180 F 
ATOM     15  F   LIG    1       -2.000   2.603   2.619  0.00  0.00    -0.180 F 
ATOM     16  F   LIG    1       -1.249   0.466   2.320  0.00  0.00    -0.200 F 
ENDBRANCH  12  13
ENDBRANCH   5   7
BRANCH   1  17
ATOM     17  S   LIG    1       -3.505   9.332   0.543  0.00  0.00    +0.050 S 
BRANCH  17  18
ATOM     18  C   LIG    1       -1.945  10.249   0.533  0.00  0.00    +0.100 C 
BRANCH  18  21
ATOM     19  C   LIG    1       -1.486  14.040   0.811  0.00  0.00    +0.290 C 
ATOM     20  N   LIG    1       -1.211  12.607   0.682  0.00  0.00    -0.620 N 
ATOM     21  C   LIG    1       -2.229  11.724   0.666  0.00  0.00    +0.530 C 
ATOM     22  O   LIG    1       -3.373  12.115   0.759  0.00  0.00    -0.520 OA
ATOM     23  C   LIG    1        0.171  12.134   0.570  0.00  0.00    +0.280 C 
ENDBRANCH  18  21
ENDBRANCH  17  18
ENDBRANCH   1  17
TORSDOF 5
