REMARK  Name = ZINCrH000004uGkC.0
REMARK                            x       y       z     vdW  Elec       q    Type
REMARK                         _______ _______ _______ _____ _____    ______ ____
ROOT
ATOM      1  C   LIG    1       -4.910  -6.276   0.847  0.00  0.00    +0.120 C 
ATOM      2  C   LIG    1       -5.003  -7.001   2.207  0.00  0.00    +0.050 C 
ATOM      3  C   LIG    1       -3.550  -7.080   2.719  0.00  0.00    +0.030 C 
ATOM      4  C   LIG    1       -2.702  -6.395   1.626  0.00  0.00    +0.170 C 
ATOM      5  N   LIG    1       -3.651  -5.491   0.926  0.00  0.00    -0.480 NA
ENDROOT
BRANCH   1   7
ATOM      6  O   LIG    1       -5.921  -4.158   0.591  0.00  0.00    -0.500 OA
ATOM      7  C   LIG    1       -6.090  -5.357   0.658  0.00  0.00    +0.520 C 
ATOM      8  N   LIG    1       -7.333  -5.869   0.561  0.00  0.00    -0.730 N 
ATOM      9  H   LIG    1       -7.469  -6.828   0.614  0.00  0.00    +0.400 HD
BRANCH   8  10
ATOM     10  C   LIG    1       -8.480  -4.976   0.377  0.00  0.00    +0.400 C 
BRANCH  10  11
ATOM     11  C   LIG    1       -9.745  -5.793   0.299  0.00  0.00    -0.040 A 
ATOM     12  C   LIG    1      -10.520  -6.143   1.341  0.00  0.00    -0.030 A 
ATOM     13  C   LIG    1      -11.594  -6.899   0.818  0.00  0.00    -0.070 A 
ATOM     14  C   LIG    1      -11.410  -6.966  -0.513  0.00  0.00    +0.180 A 
ATOM     15  O   LIG    1      -10.292  -6.289  -0.822  0.00  0.00    -0.170 OA
ENDBRANCH  10  11
ENDBRANCH   8  10
ENDBRANCH   1   7
BRANCH   5  16
ATOM     16  C   LIG    1       -3.160  -5.147  -0.415  0.00  0.00    +0.270 C 
BRANCH  16  17
ATOM     17  C   LIG    1       -2.032  -4.155  -0.298  0.00  0.00    +0.130 A 
ATOM     18  C   LIG    1       -0.749  -4.521  -0.285  0.00  0.00    -0.130 A 
ATOM     19  S   LIG    1        0.233  -3.065  -0.142  0.00  0.00    +0.120 S 
ATOM     20  C   LIG    1       -1.180  -2.103  -0.102  0.00  0.00    +0.300 A 
ATOM     21  N   LIG    1       -2.233  -2.854  -0.198  0.00  0.00    -0.510 NA
BRANCH  20  22
ATOM     22  N   LIG    1       -1.198  -0.721   0.010  0.00  0.00    -0.640 N 
ATOM     23  H   LIG    1       -2.035  -0.238  -0.071  0.00  0.00    +0.420 HD
BRANCH  22  24
ATOM     24  C   LIG    1       -0.009  -0.024   0.240  0.00  0.00    +0.160 A 
ATOM     25  C   LIG    1        0.954  -0.550   1.093  0.00  0.00    -0.030 A 
ATOM     26  C   LIG    1        2.128   0.141   1.318  0.00  0.00    +0.050 A 
ATOM     27  C   LIG    1        2.346   1.357   0.695  0.00  0.00    -0.010 A 
ATOM     28  C   LIG    1        1.391   1.884  -0.154  0.00  0.00    +0.040 A 
ATOM     29  C   LIG    1        0.214   1.198  -0.384  0.00  0.00    -0.010 A 
ENDBRANCH  22  24
ENDBRANCH  20  22
ENDBRANCH  16  17
ENDBRANCH   5  16
TORSDOF 7
