REMARK  Name = ZINCnE000001Qa27.0
REMARK                            x       y       z     vdW  Elec       q    Type
REMARK                         _______ _______ _______ _____ _____    ______ ____
ROOT
ATOM      1  S   LIG    1        2.619   1.003  -0.067  0.00  0.00    +2.690 S 
ATOM      2  O   LIG    1        2.121  -0.327  -0.015  0.00  0.00    -0.960 OA
ATOM      3  O   LIG    1        3.481   1.550   0.922  0.00  0.00    -0.950 OA
ENDROOT
BRANCH   1   4
ATOM      4  C   LIG    1        1.211   2.060  -0.139  0.00  0.00    -0.690 A 
ATOM      5  C   LIG    1        1.130   3.155   0.694  0.00  0.00    +0.170 A 
ATOM      6  C   LIG    1        0.010   3.989   0.639  0.00  0.00    -0.150 A 
ATOM      7  C   LIG    1       -1.014   3.713  -0.270  0.00  0.00    +0.110 A 
ATOM      8  C   LIG    1       -0.919   2.613  -1.098  0.00  0.00    -0.130 A 
ATOM      9  C   LIG    1       -2.026   2.310  -2.075  0.00  0.00    +0.100 C 
ATOM     10  C   LIG    1        0.190   1.789  -1.033  0.00  0.00    +0.000 A 
ATOM     11  C   LIG    1        0.286   0.590  -1.941  0.00  0.00    +0.090 C 
BRANCH   6  12
ATOM     12  C   LIG    1       -0.088   5.159   1.532  0.00  0.00    +0.520 C 
ATOM     13  O   LIG    1       -1.069   5.887   1.482  0.00  0.00    -0.680 OA
ATOM     14  O   LIG    1        0.813   5.401   2.323  0.00  0.00    -0.680 OA
ENDBRANCH   6  12
ENDBRANCH   1   4
BRANCH   1  15
ATOM     15  N   LIG    1        3.416   1.148  -1.512  0.00  0.00    -1.060 N 
ATOM     16  H   LIG    1        3.543   0.368  -2.075  0.00  0.00    +0.420 HD
BRANCH  15  22
ATOM     17  C   LIG    1        4.352   4.348  -5.122  0.00  0.00    +0.100 C 
ATOM     18  C   LIG    1        4.370   3.970  -3.663  0.00  0.00    -0.070 A 
ATOM     19  C   LIG    1        4.870   4.855  -2.726  0.00  0.00    -0.010 A 
ATOM     20  C   LIG    1        4.888   4.512  -1.387  0.00  0.00    +0.040 A 
ATOM     21  C   LIG    1        4.406   3.283  -0.980  0.00  0.00    -0.010 A 
ATOM     22  C   LIG    1        3.903   2.392  -1.919  0.00  0.00    +0.160 A 
ATOM     23  C   LIG    1        3.891   2.737  -3.264  0.00  0.00    -0.110 A 
ATOM     24  C   LIG    1        3.351   1.771  -4.287  0.00  0.00    +0.090 C 
ENDBRANCH  15  22
ENDBRANCH   1  15
TORSDOF 4
