REMARK  Name = ZINCrD00000F5Lri.0
REMARK                            x       y       z     vdW  Elec       q    Type
REMARK                         _______ _______ _______ _____ _____    ______ ____
ROOT
ATOM      1  C   LIG    1        2.288  -0.907   6.161  0.00  0.00    +0.160 C 
ENDROOT
BRANCH   1   2
ATOM      2  C   LIG    1        2.697   0.106   5.122  0.00  0.00    +0.170 A 
ATOM      3  N   LIG    1        3.290   1.247   5.345  0.00  0.00    -0.280 NA
ATOM      4  N   LIG    1        3.490   1.856   4.230  0.00  0.00    -0.290 NA
ATOM      5  C   LIG    1        3.033   1.131   3.245  0.00  0.00    +0.180 A 
ATOM      6  C   LIG    1        3.074   1.486   1.781  0.00  0.00    +0.150 C 
ATOM      7  C   LIG    1        1.862   2.353   1.433  0.00  0.00    +0.020 C 
ATOM      8  C   LIG    1        1.417   2.055  -0.000  0.00  0.00    +0.020 C 
ATOM      9  C   LIG    1       -0.019   1.526   0.010  0.00  0.00    +0.010 C 
ATOM     10  C   LIG    1        0.002  -0.004   0.002  0.00  0.00    +0.000 C 
ATOM     11  C   LIG    1       -0.962  -0.533   1.066  0.00  0.00    +0.010 C 
ATOM     12  C   LIG    1       -0.263  -1.611   1.897  0.00  0.00    +0.020 C 
ATOM     13  C   LIG    1        0.368  -0.972   3.135  0.00  0.00    +0.010 C 
ATOM     14  C   LIG    1        1.889  -1.112   3.063  0.00  0.00    +0.300 C 
ATOM     15  N   LIG    1        2.516  -0.000   3.783  0.00  0.00    -0.460 N 
ENDBRANCH   1   2
BRANCH   1  16
ATOM     16  C   LIG    1        3.435  -1.893   6.390  0.00  0.00    +0.300 C 
BRANCH  16  20
ATOM     17  N   LIG    1        3.530  -4.756   8.695  0.00  0.00    -0.660 N 
ATOM     18  H   LIG    1        2.651  -4.707   9.101  0.00  0.00    +0.410 HD
ATOM     19  C   LIG    1        3.896  -3.851   7.766  0.00  0.00    +0.710 C 
ATOM     20  N   LIG    1        3.038  -2.877   7.400  0.00  0.00    -0.740 N 
ATOM     21  H   LIG    1        2.159  -2.828   7.806  0.00  0.00    +0.400 HD
ATOM     22  O   LIG    1        4.998  -3.912   7.257  0.00  0.00    -0.570 OA
BRANCH  17  27
ATOM     23  C   LIG    1        5.484  -8.688  10.937  0.00  0.00    +0.370 C 
ATOM     24  N   LIG    1        5.302  -7.521  10.070  0.00  0.00    -0.360 N 
ATOM     25  N   LIG    1        6.245  -7.007   9.170  0.00  0.00    -0.260 NA
ATOM     26  C   LIG    1        5.723  -5.964   8.577  0.00  0.00    +0.280 A 
ATOM     27  C   LIG    1        4.427  -5.774   9.078  0.00  0.00    +0.050 A 
ATOM     28  C   LIG    1        4.191  -6.743  10.001  0.00  0.00    +0.080 A 
ATOM     29 CL   LIG    1        2.734  -6.950  10.921  0.00  0.00    -0.000 Cl
ENDBRANCH  17  27
ENDBRANCH  16  20
ENDBRANCH   1  16
TORSDOF 4
