REMARK  Name = ZINCpe000000Xxph.0
REMARK                            x       y       z     vdW  Elec       q    Type
REMARK                         _______ _______ _______ _____ _____    ______ ____
ROOT
ATOM      1  C   LIG    1        0.900   6.083   1.456  0.00  0.00    +0.110 C 
ATOM      2  C   LIG    1        0.771   5.565   0.022  0.00  0.00    +0.180 C 
ATOM      3  N   LIG    1        1.988   5.868  -0.750  0.00  0.00    -0.720 N 
ATOM      4  H   LIG    1        2.887   5.554  -0.563  0.00  0.00    +0.440 HD
ATOM      5  C   LIG    1        1.611   6.665  -1.766  0.00  0.00    +0.710 C 
ATOM      6  N   LIG    1        0.298   6.920  -1.755  0.00  0.00    -0.560 N 
ATOM      7  O   LIG    1        2.377   7.103  -2.602  0.00  0.00    -0.530 OA
ATOM      8  C   LIG    1       -0.321   6.312  -0.719  0.00  0.00    +0.540 C 
ATOM      9  O   LIG    1       -1.500   6.352  -0.440  0.00  0.00    -0.450 OA
ENDROOT
BRANCH   2  10
ATOM     10  C   LIG    1        0.496   4.083   0.018  0.00  0.00    -0.090 A 
ATOM     11  C   LIG    1       -0.808   3.624   0.028  0.00  0.00    +0.060 A 
ATOM     12  C   LIG    1       -1.065   2.265   0.019  0.00  0.00    +0.050 A 
ATOM     13  C   LIG    1       -0.016   1.361   0.009  0.00  0.00    +0.040 A 
ATOM     14  O   LIG    1        0.002  -0.004   0.002  0.00  0.00    -0.310 OA
ATOM     15  C   LIG    1        1.336  -0.373   0.399  0.00  0.00    +0.430 C 
ATOM     16  O   LIG    1        2.139   0.749  -0.014  0.00  0.00    -0.310 OA
ATOM     17  C   LIG    1        1.297   1.824  -0.001  0.00  0.00    +0.030 A 
ATOM     18  C   LIG    1        1.548   3.186   0.004  0.00  0.00    +0.060 A 
ENDBRANCH   2  10
BRANCH   6  19
ATOM     19  C   LIG    1       -0.386   7.758  -2.743  0.00  0.00    +0.360 C 
BRANCH  19  20
ATOM     20  C   LIG    1       -0.850   6.901  -3.893  0.00  0.00    +0.520 C 
ATOM     21  N   LIG    1       -1.508   7.460  -4.928  0.00  0.00    -0.620 N 
ATOM     22  C   LIG    1       -1.845   8.885  -5.059  0.00  0.00    +0.230 C 
ATOM     23  C   LIG    1       -2.615   9.053  -6.386  0.00  0.00    +0.040 C 
ATOM     24  C   LIG    1       -3.170   7.628  -6.647  0.00  0.00    +0.040 C 
ATOM     25  C   LIG    1       -2.016   6.743  -6.112  0.00  0.00    +0.250 C 
ATOM     26  O   LIG    1       -0.631   5.708  -3.887  0.00  0.00    -0.520 OA
ENDBRANCH  19  20
ENDBRANCH   6  19
TORSDOF 3
