REMARK  Name = ZINCpk00000KfL0s.0
REMARK                            x       y       z     vdW  Elec       q    Type
REMARK                         _______ _______ _______ _____ _____    ______ ____
ROOT
ATOM      1  N   LIG    1       -4.104  -1.272  -0.794  0.00  0.00    -0.650 N 
ATOM      2  H   LIG    1       -3.447  -1.619  -1.419  0.00  0.00    +0.410 HD
ATOM      3  C   LIG    1       -3.726  -0.412   0.172  0.00  0.00    +0.520 C 
ATOM      4  O   LIG    1       -4.547   0.021   0.953  0.00  0.00    -0.480 OA
ENDROOT
BRANCH   1  10
ATOM      5  C   LIG    1       -5.207  -3.192  -2.876  0.00  0.00    +0.340 C 
ATOM      6  N   LIG    1       -5.953  -2.515  -1.813  0.00  0.00    -0.390 N 
ATOM      7  N   LIG    1       -7.327  -2.636  -1.565  0.00  0.00    -0.280 NA
ATOM      8  C   LIG    1       -7.628  -1.885  -0.537  0.00  0.00    +0.100 A 
ATOM      9  C   LIG    1       -6.458  -1.264  -0.089  0.00  0.00    -0.100 A 
ATOM     10  C   LIG    1       -5.439  -1.664  -0.897  0.00  0.00    +0.300 A 
BRANCH   8  11
ATOM     11  C   LIG    1       -8.999  -1.722   0.066  0.00  0.00    +0.010 C 
ATOM     12  C   LIG    1       -8.900  -1.809   1.590  0.00  0.00    +0.040 C 
ATOM     13  C   LIG    1       -9.917  -2.832  -0.449  0.00  0.00    +0.040 C 
ATOM     14  C   LIG    1       -9.573  -0.361  -0.331  0.00  0.00    +0.040 C 
ENDBRANCH   8  11
ENDBRANCH   1  10
BRANCH   3  15
ATOM     15  C   LIG    1       -2.284   0.011   0.283  0.00  0.00    +0.210 C 
BRANCH  15  16
ATOM     16  N   LIG    1       -2.132   0.944   1.407  0.00  0.00    -0.500 NA
ATOM     17  C   LIG    1       -2.373   0.263   2.697  0.00  0.00    +0.190 C 
ATOM     18  C   LIG    1       -1.415   0.960   3.696  0.00  0.00    +0.030 C 
ATOM     19  C   LIG    1       -0.167   1.212   2.810  0.00  0.00    +0.010 C 
ATOM     20  C   LIG    1       -0.779   1.529   1.430  0.00  0.00    +0.180 C 
BRANCH  20  21
ATOM     21  C   LIG    1        0.076   0.904   0.325  0.00  0.00    +0.310 C 
BRANCH  21  22
ATOM     22  N   LIG    1        1.406   1.518   0.332  0.00  0.00    -0.380 N 
ATOM     23  C   LIG    1        2.587   0.883   0.436  0.00  0.00    +0.470 A 
ATOM     24  N   LIG    1        3.536   1.782   0.401  0.00  0.00    -0.540 NA
ATOM     25  C   LIG    1        3.003   2.998   0.276  0.00  0.00    +0.420 A 
ATOM     26  N   LIG    1        1.702   2.887   0.224  0.00  0.00    -0.310 NA
ENDBRANCH  21  22
ENDBRANCH  20  21
ENDBRANCH  15  16
ENDBRANCH   3  15
TORSDOF 6
