REMARK  Name = ZINCvU0000000AGZ.0
REMARK                            x       y       z     vdW  Elec       q    Type
REMARK                         _______ _______ _______ _____ _____    ______ ____
ROOT
ATOM      1  C   LIG    1        3.496   1.167  -0.025  0.00  0.00    +0.560 C 
ATOM      2  N   LIG    1        2.165   0.960  -0.013  0.00  0.00    -0.460 N 
ATOM      3  N   LIG    1        1.190   1.955   0.001  0.00  0.00    -0.240 NA
ATOM      4  C   LIG    1       -0.018   1.508   0.010  0.00  0.00    +0.150 C 
ATOM      5  C   LIG    1        0.002  -0.004   0.002  0.00  0.00    +0.110 C 
ATOM      6  C   LIG    1        1.503  -0.355  -0.014  0.00  0.00    +0.330 C 
ATOM      7  O   LIG    1        4.257   0.222  -0.037  0.00  0.00    -0.480 OA
ENDROOT
BRANCH   4   8
ATOM      8  C   LIG    1       -1.234   2.342   0.021  0.00  0.00    -0.040 A 
ATOM      9  C   LIG    1       -2.496   1.743   0.018  0.00  0.00    +0.070 A 
ATOM     10  C   LIG    1       -3.629   2.529   0.032  0.00  0.00    +0.030 A 
ATOM     11  C   LIG    1       -3.518   3.910   0.039  0.00  0.00    -0.020 A 
ATOM     12  C   LIG    1       -2.270   4.510   0.037  0.00  0.00    +0.030 A 
ATOM     13 CL   LIG    1       -4.949   4.892   0.051  0.00  0.00    -0.060 Cl
ATOM     14  C   LIG    1       -1.129   3.735   0.028  0.00  0.00    +0.080 A 
ENDBRANCH   4   8
BRANCH   6  15
ATOM     15  C   LIG    1        1.878  -1.138   1.218  0.00  0.00    -0.030 A 
ATOM     16  C   LIG    1        2.028  -2.473   1.286  0.00  0.00    -0.030 A 
ATOM     17  C   LIG    1        2.382  -2.778   2.620  0.00  0.00    -0.060 A 
ATOM     18  C   LIG    1        2.420  -1.612   3.289  0.00  0.00    +0.170 A 
ATOM     19  O   LIG    1        2.113  -0.622   2.435  0.00  0.00    -0.170 OA
ENDBRANCH   6  15
BRANCH   1  20
ATOM     20  C   LIG    1        4.040   2.572  -0.023  0.00  0.00    +0.290 C 
BRANCH  20  21
ATOM     21  O   LIG    1        5.492   2.530  -0.037  0.00  0.00    -0.330 OA
BRANCH  21  23
ATOM     22  O   LIG    1        5.507   4.749  -0.025  0.00  0.00    -0.490 OA
ATOM     23  C   LIG    1        6.138   3.712  -0.037  0.00  0.00    +0.520 C 
BRANCH  23  24
ATOM     24  C   LIG    1        7.614   3.746  -0.051  0.00  0.00    -0.170 A 
ATOM     25  C   LIG    1        8.351   2.560  -0.058  0.00  0.00    +0.380 A 
ATOM     26  N   LIG    1        9.667   2.589  -0.076  0.00  0.00    -0.460 NA
ATOM     27  C   LIG    1       10.340   3.726  -0.077  0.00  0.00    +0.210 A 
ATOM     28  C   LIG    1        9.681   4.946  -0.064  0.00  0.00    -0.090 A 
ATOM     29 CL   LIG    1       10.583   6.430  -0.064  0.00  0.00    -0.010 Cl
ATOM     30 CL   LIG    1       12.075   3.691  -0.094  0.00  0.00    +0.010 Cl
ATOM     31  C   LIG    1        8.298   4.969  -0.051  0.00  0.00    +0.180 A 
ENDBRANCH  23  24
ENDBRANCH  21  23
ENDBRANCH  20  21
ENDBRANCH   1  20
TORSDOF 6
