REMARK  Name = ZINCpe000000ZzbN.0
REMARK                            x       y       z     vdW  Elec       q    Type
REMARK                         _______ _______ _______ _____ _____    ______ ____
ROOT
ATOM      1  N   LIG    1       -2.632   0.127   4.083  0.00  0.00    -0.500 NA
ATOM      2  C   LIG    1       -3.878  -0.503   3.597  0.00  0.00    +0.180 C 
ATOM      3  C   LIG    1       -4.597  -0.998   4.877  0.00  0.00    +0.030 C 
ATOM      4  C   LIG    1       -4.267   0.139   5.880  0.00  0.00    +0.010 C 
ATOM      5  C   LIG    1       -2.835   0.550   5.480  0.00  0.00    +0.180 C 
ENDROOT
BRANCH   1   6
ATOM      6  C   LIG    1       -2.254   1.267   3.237  0.00  0.00    +0.200 C 
BRANCH   6  13
ATOM      7  O   LIG    1       -2.259   5.007   0.128  0.00  0.00    -0.540 OA
ATOM      8  C   LIG    1       -2.005   3.827   0.004  0.00  0.00    +0.510 C 
ATOM      9  C   LIG    1       -1.431   3.089   1.183  0.00  0.00    +0.330 C 
ATOM     10  N   LIG    1       -1.489   1.645   0.915  0.00  0.00    -0.620 N 
ATOM     11  C   LIG    1       -1.111   1.192  -0.435  0.00  0.00    +0.300 C 
ATOM     12  C   LIG    1       -2.078   1.823  -1.439  0.00  0.00    +0.250 C 
ATOM     13  C   LIG    1       -1.874   0.770   1.866  0.00  0.00    +0.520 C 
ATOM     14  O   LIG    1       -1.914  -0.416   1.618  0.00  0.00    -0.510 OA
ATOM     15  N   LIG    1       -2.247   3.244  -1.171  0.00  0.00    -0.720 N 
ATOM     16  H   LIG    1       -2.558   3.806  -1.898  0.00  0.00    +0.400 HD
ENDBRANCH   6  13
ENDBRANCH   1   6
BRANCH   5  17
ATOM     17  C   LIG    1       -2.679   2.068   5.592  0.00  0.00    +0.020 C 
BRANCH  17  18
ATOM     18  C   LIG    1       -2.827   2.484   7.033  0.00  0.00    +0.400 C 
ATOM     19  O   LIG    1       -2.939   1.642   7.899  0.00  0.00    -0.440 OA
BRANCH  18  20
ATOM     20  C   LIG    1       -2.836   3.910   7.389  0.00  0.00    -0.180 A 
ATOM     21  C   LIG    1       -2.702   4.884   6.394  0.00  0.00    +0.100 A 
ATOM     22  C   LIG    1       -2.717   6.219   6.734  0.00  0.00    -0.020 A 
ATOM     23  C   LIG    1       -2.853   6.598   8.061  0.00  0.00    +0.130 A 
ATOM     24  C   LIG    1       -2.981   5.638   9.054  0.00  0.00    -0.030 A 
ATOM     25  F   LIG    1       -2.862   7.909   8.389  0.00  0.00    -0.130 F 
ATOM     26  C   LIG    1       -2.973   4.300   8.727  0.00  0.00    +0.120 A 
ENDBRANCH  18  20
ENDBRANCH  17  18
ENDBRANCH   5  17
TORSDOF 5
