REMARK  Name = ZINCrH000004tFkO.0
REMARK                            x       y       z     vdW  Elec       q    Type
REMARK                         _______ _______ _______ _____ _____    ______ ____
ROOT
ATOM      1  O   LIG    1        5.173   1.915  -3.733  0.00  0.00    -0.500 OA
ATOM      2  C   LIG    1        4.976   1.487  -2.615  0.00  0.00    +0.520 C 
ATOM      3  N   LIG    1        4.210   2.183  -1.752  0.00  0.00    -0.650 N 
ATOM      4  H   LIG    1        4.053   1.840  -0.858  0.00  0.00    +0.410 HD
ENDROOT
BRANCH   3   5
ATOM      5  C   LIG    1        3.643   3.395  -2.143  0.00  0.00    +0.310 A 
ATOM      6  C   LIG    1        3.778   3.990  -3.361  0.00  0.00    -0.110 A 
ATOM      7  C   LIG    1        3.059   5.188  -3.333  0.00  0.00    +0.250 A 
ATOM      8  N   LIG    1        2.509   5.311  -2.152  0.00  0.00    -0.290 NA
ATOM      9  N   LIG    1        2.858   4.193  -1.384  0.00  0.00    -0.380 N 
BRANCH   9  10
ATOM     10  C   LIG    1        2.451   3.936  -0.000  0.00  0.00    +0.380 C 
BRANCH  10  11
ATOM     11  C   LIG    1        1.156   3.166   0.007  0.00  0.00    -0.120 A 
ATOM     12  C   LIG    1        1.175   1.783   0.000  0.00  0.00    +0.040 A 
ATOM     13  C   LIG    1       -0.013   1.076   0.008  0.00  0.00    +0.030 A 
ATOM     14  C   LIG    1       -1.220   1.751   0.017  0.00  0.00    -0.020 A 
ATOM     15  C   LIG    1       -1.238   3.135   0.029  0.00  0.00    +0.030 A 
ATOM     16 CL   LIG    1       -2.712   0.864   0.020  0.00  0.00    -0.060 Cl
ATOM     17  C   LIG    1       -0.050   3.841   0.022  0.00  0.00    +0.070 A 
ENDBRANCH  10  11
ENDBRANCH   9  10
ENDBRANCH   3   5
BRANCH   2  18
ATOM     18  C   LIG    1        5.588   0.176  -2.192  0.00  0.00    +0.090 C 
BRANCH  18  19
ATOM     19  C   LIG    1        6.404  -0.403  -3.350  0.00  0.00    +0.040 C 
BRANCH  19  20
ATOM     20  C   LIG    1        7.025  -1.734  -2.920  0.00  0.00    +0.260 C 
BRANCH  20  21
ATOM     21  N   LIG    1        7.806  -2.288  -4.028  0.00  0.00    -0.730 N 
ATOM     22  H   LIG    1        7.861  -1.810  -4.870  0.00  0.00    +0.400 HD
ATOM     23  C   LIG    1        8.449  -3.464  -3.878  0.00  0.00    +0.580 C 
ATOM     24  O   LIG    1        8.380  -4.064  -2.823  0.00  0.00    -0.530 OA
BRANCH  23  25
ATOM     25  C   LIG    1        9.233  -4.021  -4.992  0.00  0.00    -0.160 A 
ATOM     26  C   LIG    1        9.358  -3.410  -6.201  0.00  0.00    -0.040 A 
ATOM     27  S   LIG    1       10.336  -4.334  -7.248  0.00  0.00    +0.200 S 
ATOM     28  C   LIG    1       10.588  -5.578  -6.037  0.00  0.00    -0.060 A 
ATOM     29  C   LIG    1        9.954  -5.270  -4.912  0.00  0.00    +0.070 A 
ENDBRANCH  23  25
ENDBRANCH  20  21
ENDBRANCH  19  20
ENDBRANCH  18  19
ENDBRANCH   2  18
TORSDOF 8
