REMARK  Name = ZINCtV00000KRYTw.0
REMARK                            x       y       z     vdW  Elec       q    Type
REMARK                         _______ _______ _______ _____ _____    ______ ____
ROOT
ATOM      1  C   LIG    1       -2.565   2.310   5.841  0.00  0.00    -0.020 A 
ATOM      2  C   LIG    1       -1.853   1.110   5.853  0.00  0.00    +0.020 A 
ATOM      3  C   LIG    1       -1.208   0.681   4.715  0.00  0.00    +0.090 A 
ATOM      4  C   LIG    1       -1.267   1.447   3.548  0.00  0.00    -0.140 A 
ATOM      5  C   LIG    1       -1.976   2.651   3.539  0.00  0.00    +0.050 A 
ATOM      6  C   LIG    1       -2.624   3.076   4.677  0.00  0.00    +0.010 A 
ENDROOT
BRANCH   1  10
ATOM      7  C   LIG    1       -4.554   3.635   9.359  0.00  0.00    +0.090 A 
ATOM      8  C   LIG    1       -4.614   4.397   8.200  0.00  0.00    +0.010 A 
ATOM      9  C   LIG    1       -3.970   3.971   7.058  0.00  0.00    +0.050 A 
ATOM     10  C   LIG    1       -3.258   2.772   7.067  0.00  0.00    -0.050 A 
ATOM     11  C   LIG    1       -3.204   2.005   8.231  0.00  0.00    +0.050 A 
ATOM     12  C   LIG    1       -3.846   2.440   9.371  0.00  0.00    +0.030 A 
BRANCH   7  13
ATOM     13  O   LIG    1       -5.189   4.058  10.483  0.00  0.00    -0.300 OA
BRANCH  13  15
ATOM     14  C   LIG    1       -7.306   4.623  11.622  0.00  0.00    +0.160 C 
ATOM     15  C   LIG    1       -6.532   4.047  10.465  0.00  0.00    +0.460 C 
ATOM     16  O   LIG    1       -7.120   3.575   9.520  0.00  0.00    -0.490 OA
ENDBRANCH  13  15
ENDBRANCH   7  13
ENDBRANCH   1  10
BRANCH   4  17
ATOM     17  C   LIG    1       -0.576   0.988   2.327  0.00  0.00    +0.560 C 
ATOM     18  N   LIG    1       -0.633   1.727   1.201  0.00  0.00    -0.720 N 
ATOM     19  H   LIG    1       -1.128   2.561   1.194  0.00  0.00    +0.400 HD
ATOM     20  O   LIG    1        0.045  -0.058   2.336  0.00  0.00    -0.530 OA
BRANCH  18  21
ATOM     21  C   LIG    1        0.053   1.271  -0.010  0.00  0.00    +0.300 C 
ATOM     22  C   LIG    1        1.516   1.717   0.033  0.00  0.00    +0.040 C 
BRANCH  21  23
ATOM     23  C   LIG    1       -0.618   1.866  -1.221  0.00  0.00    -0.080 A 
ATOM     24  C   LIG    1       -0.797   1.101  -2.358  0.00  0.00    +0.050 A 
ATOM     25  C   LIG    1       -1.412   1.646  -3.470  0.00  0.00    +0.060 A 
ATOM     26  C   LIG    1       -1.849   2.958  -3.444  0.00  0.00    -0.030 A 
ATOM     27  C   LIG    1       -1.670   3.725  -2.305  0.00  0.00    -0.030 A 
ATOM     28 CL   LIG    1       -2.219   5.371  -2.272  0.00  0.00    -0.040 Cl
ATOM     29 CL   LIG    1       -2.623   3.642  -4.840  0.00  0.00    -0.040 Cl
ATOM     30  C   LIG    1       -1.059   3.176  -1.192  0.00  0.00    +0.040 A 
ENDBRANCH  21  23
ENDBRANCH  18  21
ENDBRANCH   4  17
TORSDOF 6
