REMARK  Name = ZINCkj00000hbOoj.0
REMARK                            x       y       z     vdW  Elec       q    Type
REMARK                         _______ _______ _______ _____ _____    ______ ____
ROOT
ATOM      1  N   LIG    1       -0.395   2.881   0.944  0.00  0.00    -0.380 N 
ATOM      2  C   LIG    1       -0.092   1.439   1.081  0.00  0.00    +0.250 C 
ATOM      3  C   LIG    1       -0.006   0.720  -0.275  0.00  0.00    +0.080 C 
ATOM      4  C   LIG    1       -1.091   1.152  -1.229  0.00  0.00    +0.190 C 
ATOM      5  N   LIG    1       -0.571   2.268  -2.057  0.00  0.00    -0.540 NA
ATOM      6  C   LIG    1       -0.567   3.498  -1.393  0.00  0.00    +0.200 C 
ATOM      7  C   LIG    1        0.334   3.493  -0.144  0.00  0.00    +0.250 C 
ATOM      8  H   LIG    1       -1.384   2.992   0.779  0.00  0.00    +0.410 HD
ENDROOT
BRANCH   5   9
ATOM      9  C   LIG    1       -1.295   2.359  -3.331  0.00  0.00    +0.150 C 
ATOM     10  C   LIG    1       -0.824   3.596  -4.098  0.00  0.00    +0.060 C 
BRANCH   9  11
ATOM     11  C   LIG    1       -1.018   1.106  -4.166  0.00  0.00    +0.190 C 
BRANCH  11  12
ATOM     12  O   LIG    1        0.366   1.065  -4.519  0.00  0.00    -0.560 OA
ATOM     13  H   LIG    1        0.613   0.296  -5.050  0.00  0.00    +0.380 HD
ENDBRANCH  11  12
ENDBRANCH   9  11
ENDBRANCH   5   9
BRANCH   1  14
ATOM     14  C   LIG    1       -0.042   3.562   2.197  0.00  0.00    +0.290 C 
BRANCH  14  15
ATOM     15  C   LIG    1       -0.738   4.923   2.251  0.00  0.00    -0.100 C 
ATOM     16  C   LIG    1       -0.047   5.939   1.312  0.00  0.00    +0.070 C 
ATOM     17  C   LIG    1       -0.107   7.252   2.056  0.00  0.00    -0.030 C 
ATOM     18  C   LIG    1       -0.373   7.065   3.320  0.00  0.00    -0.010 C 
ATOM     19  C   LIG    1       -0.536   5.595   3.629  0.00  0.00    +0.100 C 
BRANCH  15  20
ATOM     20  C   LIG    1       -2.225   4.789   1.918  0.00  0.00    +0.160 C 
BRANCH  20  22
ATOM     21  C   LIG    1       -4.268   6.038   1.805  0.00  0.00    +0.210 C 
ATOM     22  O   LIG    1       -2.868   6.053   2.092  0.00  0.00    -0.360 OA
ENDBRANCH  20  22
ENDBRANCH  15  20
ENDBRANCH  14  15
ENDBRANCH   1  14
TORSDOF 7
