REMARK  Name = ZINCkj00000hbOoj.1
REMARK                            x       y       z     vdW  Elec       q    Type
REMARK                         _______ _______ _______ _____ _____    ______ ____
ROOT
ATOM      1  N   LIG    1        1.701   2.153   1.713  0.00  0.00    -0.380 N 
ATOM      2  C   LIG    1        0.961   1.941   0.494  0.00  0.00    +0.240 C 
ATOM      3  C   LIG    1       -0.405   1.329   0.858  0.00  0.00    +0.070 C 
ATOM      4  C   LIG    1       -0.324  -0.109   1.096  0.00  0.00    +0.190 C 
ATOM      5  N   LIG    1        0.589  -0.426   2.224  0.00  0.00    -0.530 NA
ATOM      6  C   LIG    1        1.960  -0.352   1.783  0.00  0.00    +0.200 C 
ATOM      7  C   LIG    1        2.604   1.023   2.034  0.00  0.00    +0.260 C 
ATOM      8  H   LIG    1        1.049   2.275   2.474  0.00  0.00    +0.420 HD
ENDROOT
BRANCH   5   9
ATOM      9  C   LIG    1        0.288  -1.748   2.789  0.00  0.00    +0.150 C 
ATOM     10  C   LIG    1        1.285  -2.063   3.906  0.00  0.00    +0.060 C 
BRANCH   9  11
ATOM     11  C   LIG    1       -1.132  -1.747   3.358  0.00  0.00    +0.190 C 
BRANCH  11  12
ATOM     12  O   LIG    1       -1.204  -0.840   4.460  0.00  0.00    -0.560 OA
ATOM     13  H   LIG    1       -2.078  -0.788   4.871  0.00  0.00    +0.380 HD
ENDBRANCH  11  12
ENDBRANCH   9  11
ENDBRANCH   5   9
BRANCH   1  14
ATOM     14  C   LIG    1        2.502   3.377   1.576  0.00  0.00    +0.280 C 
BRANCH  14  15
ATOM     15  C   LIG    1        1.592   4.599   1.718  0.00  0.00    -0.100 C 
ATOM     16  C   LIG    1        0.715   4.787   0.459  0.00  0.00    +0.070 C 
ATOM     17  C   LIG    1        0.640   6.284   0.263  0.00  0.00    -0.030 C 
ATOM     18  C   LIG    1        1.568   6.895   0.949  0.00  0.00    -0.010 C 
ATOM     19  C   LIG    1        2.417   5.907   1.715  0.00  0.00    +0.100 C 
BRANCH  15  20
ATOM     20  C   LIG    1        0.731   4.495   2.978  0.00  0.00    +0.170 C 
BRANCH  20  22
ATOM     21  C   LIG    1       -0.955   5.653   4.229  0.00  0.00    +0.220 C 
ATOM     22  O   LIG    1       -0.105   5.650   3.080  0.00  0.00    -0.360 OA
ENDBRANCH  20  22
ENDBRANCH  15  20
ENDBRANCH  14  15
ENDBRANCH   1  14
TORSDOF 7
