REMARK  Name = ZINCpe000000WaHd.0
REMARK                            x       y       z     vdW  Elec       q    Type
REMARK                         _______ _______ _______ _____ _____    ______ ____
ROOT
ATOM      1  N   LIG    1       -3.621   3.299   0.099  0.00  0.00    -0.700 N 
ATOM      2  H   LIG    1       -3.639   2.330   0.093  0.00  0.00    +0.400 HD
ATOM      3  C   LIG    1       -2.442   3.952   0.071  0.00  0.00    +0.580 C 
ATOM      4  O   LIG    1       -2.420   5.168   0.078  0.00  0.00    -0.530 OA
ENDROOT
BRANCH   3   5
ATOM      5  C   LIG    1       -1.181   3.193   0.031  0.00  0.00    -0.230 A 
ATOM      6  C   LIG    1        0.026   3.846   0.003  0.00  0.00    +0.380 A 
ATOM      7  N   LIG    1        1.204   3.168  -0.035  0.00  0.00    -0.510 N 
ATOM      8  C   LIG    1        2.410   3.997  -0.118  0.00  0.00    +0.340 C 
ATOM      9  C   LIG    1        3.548   3.376   0.696  0.00  0.00    -0.380 C 
ATOM     10  S   LIG    1        3.822   1.701   0.037  0.00  0.00    +2.550 S 
ATOM     11  N   LIG    1        2.299   1.056   0.037  0.00  0.00    -0.960 NA
ATOM     12  O   LIG    1        4.189   1.752  -1.335  0.00  0.00    -0.960 OA
ATOM     13  O   LIG    1        4.546   0.906   0.966  0.00  0.00    -0.930 OA
ATOM     14  C   LIG    1        1.218   1.801   0.000  0.00  0.00    +0.520 A 
ATOM     15  C   LIG    1       -0.013   1.076   0.008  0.00  0.00    +0.020 A 
ATOM     16  C   LIG    1       -1.194   1.729   0.017  0.00  0.00    +0.140 A 
ENDBRANCH   3   5
BRANCH   1  19
ATOM     17  C   LIG    1       -6.319   2.742   0.981  0.00  0.00    +0.180 C 
ATOM     18  C   LIG    1       -5.591   3.995   1.500  0.00  0.00    -0.030 C 
ATOM     19  C   LIG    1       -4.876   4.055   0.138  0.00  0.00    +0.250 C 
ATOM     20  C   LIG    1       -4.650   3.713   2.674  0.00  0.00    +0.030 C 
ATOM     21  C   LIG    1       -6.072   3.287  -0.426  0.00  0.00    -0.110 C 
ATOM     22  C   LIG    1       -5.915   2.347  -1.622  0.00  0.00    +0.030 C 
ATOM     23  C   LIG    1       -7.377   2.685  -1.968  0.00  0.00    +0.010 C 
ATOM     24  C   LIG    1       -7.177   4.005  -1.202  0.00  0.00    +0.060 C 
BRANCH  17  26
ATOM     25  C   LIG    1       -8.024   1.641   2.256  0.00  0.00    +0.200 C 
ATOM     26  O   LIG    1       -7.701   2.689   1.341  0.00  0.00    -0.370 OA
ENDBRANCH  17  26
ENDBRANCH   1  19
TORSDOF 3
