REMARK  Name = ZINCtV000002Csqq.0
REMARK                            x       y       z     vdW  Elec       q    Type
REMARK                         _______ _______ _______ _____ _____    ______ ____
ROOT
ATOM      1  N   LIG    1        1.278   6.611  -2.115  0.00  0.00    -0.590 N 
ATOM      2  C   LIG    1        1.207   6.600  -0.769  0.00  0.00    +0.570 C 
ATOM      3  O   LIG    1        0.263   6.072  -0.215  0.00  0.00    -0.520 OA
ENDROOT
BRANCH   2   4
ATOM      4  C   LIG    1        2.277   7.230   0.033  0.00  0.00    -0.080 A 
ATOM      5  C   LIG    1        3.554   6.668   0.064  0.00  0.00    +0.040 A 
ATOM      6  C   LIG    1        4.549   7.264   0.811  0.00  0.00    +0.070 A 
ATOM      7  C   LIG    1        4.281   8.410   1.537  0.00  0.00    -0.170 A 
ATOM      8  C   LIG    1        3.016   8.970   1.515  0.00  0.00    +0.080 A 
ATOM      9  C   LIG    1        2.013   8.387   0.768  0.00  0.00    +0.070 A 
BRANCH   7  10
ATOM     10  C   LIG    1        5.371   9.053   2.355  0.00  0.00    +0.510 C 
ATOM     11  F   LIG    1        5.151  10.432   2.425  0.00  0.00    -0.180 F 
ATOM     12  F   LIG    1        6.611   8.808   1.755  0.00  0.00    -0.180 F 
ATOM     13  F   LIG    1        5.364   8.514   3.647  0.00  0.00    -0.170 F 
ENDBRANCH   7  10
ENDBRANCH   2   4
BRANCH   1  15
ATOM     14  C   LIG    1        3.005   6.248  -3.809  0.00  0.00    +0.040 C 
ATOM     15  C   LIG    1        2.429   7.226  -2.782  0.00  0.00    +0.230 C 
BRANCH  15  16
ATOM     16  C   LIG    1        1.983   8.506  -3.491  0.00  0.00    +0.120 C 
BRANCH  16  17
ATOM     17  C   LIG    1        1.636   9.554  -2.465  0.00  0.00    -0.170 A 
ATOM     18  C   LIG    1        2.516  10.330  -1.831  0.00  0.00    +0.010 A 
ATOM     19  C   LIG    1        1.963  11.221  -0.928  0.00  0.00    +0.010 A 
ATOM     20  C   LIG    1        0.634  11.166  -0.826  0.00  0.00    -0.060 A 
ATOM     21  S   LIG    1        0.009   9.940  -1.920  0.00  0.00    +0.100 S 
ENDBRANCH  16  17
ENDBRANCH  15  16
ENDBRANCH   1  15
BRANCH   1  22
ATOM     22  C   LIG    1        0.206   6.009  -2.910  0.00  0.00    +0.340 C 
BRANCH  22  23
ATOM     23  C   LIG    1        0.393   4.514  -2.955  0.00  0.00    -0.110 A 
ATOM     24  C   LIG    1        1.107   3.938  -3.989  0.00  0.00    +0.030 A 
ATOM     25  C   LIG    1        1.283   2.568  -4.028  0.00  0.00    +0.010 A 
ATOM     26  C   LIG    1        0.734   1.771  -3.039  0.00  0.00    -0.030 A 
ATOM     27  C   LIG    1        0.015   2.348  -2.007  0.00  0.00    +0.020 A 
ATOM     28 CL   LIG    1        0.948   0.049  -3.092  0.00  0.00    -0.070 Cl
ATOM     29  C   LIG    1       -0.156   3.719  -1.966  0.00  0.00    +0.060 A 
ENDBRANCH  22  23
ENDBRANCH   1  22
TORSDOF 7
