REMARK  Name = ZINCwl0000000mEs.1
REMARK                            x       y       z     vdW  Elec       q    Type
REMARK                         _______ _______ _______ _____ _____    ______ ____
ROOT
ATOM      1  C   LIG    1       -0.690   0.370  -1.958  0.00  0.00    +0.150 C 
ENDROOT
BRANCH   1   2
ATOM      2  N   LIG    1       -1.103   1.405  -1.001  0.00  0.00    -0.370 N 
ATOM      3  C   LIG    1       -0.309   2.633  -1.223  0.00  0.00    +0.260 C 
ATOM      4  C   LIG    1       -1.296   3.796  -0.954  0.00  0.00    +0.080 C 
ATOM      5  C   LIG    1       -2.620   3.229  -1.537  0.00  0.00    +0.110 C 
ATOM      6  C   LIG    1       -2.528   1.726  -1.201  0.00  0.00    +0.140 C 
ATOM      7  H   LIG    1       -0.958   1.073  -0.060  0.00  0.00    +0.420 HD
BRANCH   6   8
ATOM      8  C   LIG    1       -3.312   1.429   0.079  0.00  0.00    +0.380 C 
BRANCH   8   9
ATOM      9  N   LIG    1       -3.184   0.009   0.413  0.00  0.00    -1.010 NA
ATOM     10  C   LIG    1       -2.099  -0.601   1.186  0.00  0.00    +0.220 C 
ATOM     11  C   LIG    1       -2.269  -2.107   1.403  0.00  0.00    +0.100 C 
ATOM     12  C   LIG    1       -3.106  -2.629   0.200  0.00  0.00    -0.300 C 
ATOM     13  S   LIG    1       -4.253  -1.205  -0.015  0.00  0.00    +2.550 S 
ATOM     14  O   LIG    1       -4.550  -0.980  -1.386  0.00  0.00    -0.950 OA
ATOM     15  O   LIG    1       -5.260  -1.191   0.987  0.00  0.00    -0.920 OA
ENDBRANCH   8   9
ENDBRANCH   6   8
ENDBRANCH   1   2
BRANCH   1  16
ATOM     16  C   LIG    1       -0.969   0.843  -3.362  0.00  0.00    +0.520 C 
ATOM     17  N   LIG    1       -0.951  -0.034  -4.385  0.00  0.00    -0.690 N 
ATOM     18  H   LIG    1       -0.759  -0.970  -4.218  0.00  0.00    +0.410 HD
ATOM     19  O   LIG    1       -1.210   2.013  -3.571  0.00  0.00    -0.510 OA
BRANCH  17  20
ATOM     20  C   LIG    1       -1.222   0.426  -5.749  0.00  0.00    +0.250 C 
ATOM     21  C   LIG    1       -2.608   0.013  -6.278  0.00  0.00    +0.290 C 
ATOM     22  N   LIG    1       -1.918  -0.291  -7.550  0.00  0.00    -0.640 N 
ATOM     23  C   LIG    1       -2.302  -0.357  -8.840  0.00  0.00    +0.680 C 
ATOM     24  O   LIG    1       -1.492  -0.638  -9.701  0.00  0.00    -0.550 OA
ATOM     25  C   LIG    1       -0.640  -0.491  -6.840  0.00  0.00    +0.330 C 
BRANCH  23  26
ATOM     26  O   LIG    1       -3.583  -0.112  -9.174  0.00  0.00    -0.360 OA
BRANCH  26  27
ATOM     27  C   LIG    1       -3.925  -0.201 -10.582  0.00  0.00    +0.140 C 
ATOM     28  C   LIG    1       -3.093   0.809 -11.374  0.00  0.00    +0.050 C 
ATOM     29  C   LIG    1       -5.412   0.107 -10.766  0.00  0.00    +0.090 C 
ATOM     30  C   LIG    1       -3.631  -1.614 -11.090  0.00  0.00    +0.050 C 
ENDBRANCH  26  27
ENDBRANCH  23  26
ENDBRANCH  17  20
ENDBRANCH   1  16
BRANCH   1  31
ATOM     31  C   LIG    1        0.807   0.097  -1.800  0.00  0.00    +0.080 C 
BRANCH  31  32
ATOM     32  C   LIG    1        1.071  -0.516  -0.423  0.00  0.00    +0.050 C 
BRANCH  32  34
ATOM     33  C   LIG    1        3.182  -0.251   0.774  0.00  0.00    +0.040 C 
ATOM     34  C   LIG    1        2.549  -0.756  -0.255  0.00  0.00    -0.060 C 
ENDBRANCH  32  34
ENDBRANCH  31  32
ENDBRANCH   1  31
TORSDOF 10
