REMARK  Name = ZINCwl0000000mEs.0
REMARK                            x       y       z     vdW  Elec       q    Type
REMARK                         _______ _______ _______ _____ _____    ______ ____
ROOT
ATOM      1  C   LIG    1        0.203   2.656   1.698  0.00  0.00    +0.150 C 
ENDROOT
BRANCH   1   2
ATOM      2  N   LIG    1        1.606   2.829   2.099  0.00  0.00    -0.370 N 
ATOM      3  C   LIG    1        1.675   3.658   3.321  0.00  0.00    +0.270 C 
ATOM      4  C   LIG    1        2.952   4.517   3.145  0.00  0.00    +0.080 C 
ATOM      5  C   LIG    1        2.922   4.815   1.623  0.00  0.00    +0.090 C 
ATOM      6  C   LIG    1        2.348   3.514   1.025  0.00  0.00    +0.150 C 
ATOM      7  H   LIG    1        2.021   1.927   2.277  0.00  0.00    +0.440 HD
BRANCH   6   8
ATOM      8  C   LIG    1        1.403   3.845  -0.132  0.00  0.00    +0.340 C 
BRANCH   8   9
ATOM      9  N   LIG    1        2.111   4.658  -1.124  0.00  0.00    -0.980 NA
ATOM     10  C   LIG    1        2.223   6.118  -1.121  0.00  0.00    +0.240 C 
ATOM     11  C   LIG    1        2.995   6.679  -2.319  0.00  0.00    +0.090 C 
ATOM     12  C   LIG    1        3.985   5.564  -2.760  0.00  0.00    -0.290 C 
ATOM     13  S   LIG    1        2.935   4.084  -2.462  0.00  0.00    +2.550 S 
ATOM     14  O   LIG    1        3.704   2.987  -1.990  0.00  0.00    -0.950 OA
ATOM     15  O   LIG    1        1.950   3.933  -3.475  0.00  0.00    -0.930 OA
ENDBRANCH   8   9
ENDBRANCH   6   8
ENDBRANCH   1   2
BRANCH   1  16
ATOM     16  C   LIG    1        0.133   1.754   0.492  0.00  0.00    +0.510 C 
ATOM     17  N   LIG    1       -0.965   1.758  -0.289  0.00  0.00    -0.700 N 
ATOM     18  H   LIG    1       -1.679   2.392  -0.119  0.00  0.00    +0.410 HD
ATOM     19  O   LIG    1        1.065   1.026   0.225  0.00  0.00    -0.510 OA
BRANCH  17  20
ATOM     20  C   LIG    1       -1.079   0.806  -1.397  0.00  0.00    +0.240 C 
ATOM     21  C   LIG    1       -0.843   1.434  -2.782  0.00  0.00    +0.290 C 
ATOM     22  N   LIG    1       -1.988   0.621  -3.235  0.00  0.00    -0.630 N 
ATOM     23  C   LIG    1       -2.383   0.126  -4.425  0.00  0.00    +0.680 C 
ATOM     24  O   LIG    1       -3.403  -0.530  -4.501  0.00  0.00    -0.550 OA
ATOM     25  C   LIG    1       -2.527   0.567  -1.862  0.00  0.00    +0.330 C 
BRANCH  23  26
ATOM     26  O   LIG    1       -1.648   0.359  -5.528  0.00  0.00    -0.360 OA
BRANCH  26  27
ATOM     27  C   LIG    1       -2.134  -0.205  -6.775  0.00  0.00    +0.140 C 
ATOM     28  C   LIG    1       -2.215  -1.728  -6.649  0.00  0.00    +0.050 C 
ATOM     29  C   LIG    1       -1.174   0.162  -7.909  0.00  0.00    +0.090 C 
ATOM     30  C   LIG    1       -3.524   0.356  -7.081  0.00  0.00    +0.050 C 
ENDBRANCH  26  27
ENDBRANCH  23  26
ENDBRANCH  17  20
ENDBRANCH   1  16
BRANCH   1  31
ATOM     31  C   LIG    1       -0.583   2.028   2.850  0.00  0.00    +0.090 C 
BRANCH  31  32
ATOM     32  C   LIG    1       -0.840   3.084   3.927  0.00  0.00    +0.060 C 
BRANCH  32  34
ATOM     33  C   LIG    1       -1.359   2.526   6.247  0.00  0.00    +0.040 C 
ATOM     34  C   LIG    1       -1.737   2.508   4.992  0.00  0.00    -0.060 C 
ENDBRANCH  32  34
ENDBRANCH  31  32
ENDBRANCH   1  31
TORSDOF 10
