REMARK  Name = ZINCtV00000L6k5x.0
REMARK                            x       y       z     vdW  Elec       q    Type
REMARK                         _______ _______ _______ _____ _____    ______ ____
ROOT
ATOM      1  N   LIG    1       -0.024   1.842  -0.080  0.00  0.00    -0.410 N 
ATOM      2  C   LIG    1        1.052   2.369  -0.722  0.00  0.00    +0.160 A 
ATOM      3  C   LIG    1        2.218   1.690  -0.785  0.00  0.00    +0.000 A 
ATOM      4  C   LIG    1        2.312   0.418  -0.174  0.00  0.00    +0.160 A 
ATOM      5  C   LIG    1        1.175  -0.104   0.487  0.00  0.00    -0.060 A 
ATOM      6  C   LIG    1        3.520  -0.320  -0.223  0.00  0.00    -0.190 C 
ATOM      7  C   LIG    1        0.943   3.726  -1.371  0.00  0.00    +0.150 C 
ATOM      8  C   LIG    1        0.036   0.622   0.516  0.00  0.00    +0.170 A 
ATOM      9  C   LIG    1       -1.180   0.074   1.218  0.00  0.00    +0.140 C 
ENDROOT
BRANCH   6  10
ATOM     10  C   LIG    1        4.643   0.167  -1.028  0.00  0.00    +0.230 A 
ATOM     11  N   LIG    1        4.599   1.196  -1.816  0.00  0.00    -0.510 NA
ATOM     12  C   LIG    1        5.717   1.517  -2.490  0.00  0.00    +0.110 A 
ATOM     13  C   LIG    1        5.926   2.578  -3.398  0.00  0.00    +0.050 A 
ATOM     14  C   LIG    1        7.149   2.751  -3.996  0.00  0.00    +0.030 A 
ATOM     15  C   LIG    1        8.199   1.888  -3.719  0.00  0.00    +0.010 A 
ATOM     16  C   LIG    1        8.018   0.845  -2.835  0.00  0.00    +0.070 A 
ATOM     17  C   LIG    1        6.785   0.654  -2.219  0.00  0.00    -0.190 A 
ATOM     18  S   LIG    1        6.245  -0.556  -1.058  0.00  0.00    +0.040 S 
ENDBRANCH   6  10
BRANCH   1  22
ATOM     19  C   LIG    1       -3.586   4.004   0.048  0.00  0.00    +0.160 A 
ATOM     20  C   LIG    1       -3.260   3.272  -1.085  0.00  0.00    +0.000 A 
ATOM     21  C   LIG    1       -2.080   2.556  -1.128  0.00  0.00    +0.080 A 
ATOM     22  C   LIG    1       -1.220   2.568  -0.037  0.00  0.00    +0.040 A 
ATOM     23  C   LIG    1       -1.551   3.297   1.099  0.00  0.00    +0.080 A 
ATOM     24  C   LIG    1       -2.728   4.017   1.138  0.00  0.00    -0.060 A 
BRANCH  19  25
ATOM     25  O   LIG    1       -4.748   4.709   0.090  0.00  0.00    -0.310 OA
BRANCH  25  27
ATOM     26  C   LIG    1       -6.361   6.164   1.149  0.00  0.00    +0.070 C 
ATOM     27  C   LIG    1       -5.020   5.440   1.287  0.00  0.00    +0.190 C 
ENDBRANCH  25  27
ENDBRANCH  19  25
ENDBRANCH   1  22
BRANCH   6  28
ATOM     28  C   LIG    1        3.644  -1.540   0.515  0.00  0.00    +0.280 C 
ATOM     29  N   LIG    1        3.743  -2.509   1.101  0.00  0.00    -0.450 NA
ENDBRANCH   6  28
TORSDOF 5
