REMARK  Name = ZINCqH0000001pf6.0
REMARK                            x       y       z     vdW  Elec       q    Type
REMARK                         _______ _______ _______ _____ _____    ______ ____
ROOT
ATOM      1  C   LIG    1        2.314   3.853  -2.390  0.00  0.00    -0.680 A 
ATOM      2  C   LIG    1        3.494   3.198  -2.691  0.00  0.00    +0.150 A 
ATOM      3  C   LIG    1        3.673   1.877  -2.322  0.00  0.00    +0.000 A 
ATOM      4  C   LIG    1        2.676   1.205  -1.646  0.00  0.00    +0.100 A 
ATOM      5  C   LIG    1        1.480   1.859  -1.344  0.00  0.00    -0.150 A 
ATOM      6  C   LIG    1        1.306   3.192  -1.719  0.00  0.00    +0.180 A 
ENDROOT
BRANCH   5   7
ATOM      7  C   LIG    1        0.404   1.144  -0.624  0.00  0.00    +0.560 C 
ATOM      8  N   LIG    1        0.097  -0.125  -0.959  0.00  0.00    -0.600 N 
ATOM      9  C   LIG    1        0.828  -0.795  -2.038  0.00  0.00    +0.280 C 
ATOM     10  O   LIG    1       -0.206   1.702   0.267  0.00  0.00    -0.500 OA
BRANCH   8  11
ATOM     11  C   LIG    1       -0.968  -0.834  -0.245  0.00  0.00    +0.340 C 
BRANCH  11  12
ATOM     12  C   LIG    1       -2.250  -0.739  -1.032  0.00  0.00    -0.080 A 
ATOM     13  C   LIG    1       -2.402  -1.468  -2.196  0.00  0.00    +0.030 A 
ATOM     14  C   LIG    1       -3.578  -1.382  -2.918  0.00  0.00    +0.020 A 
ATOM     15  C   LIG    1       -4.602  -0.565  -2.476  0.00  0.00    +0.020 A 
ATOM     16  C   LIG    1       -4.450   0.165  -1.312  0.00  0.00    +0.040 A 
ATOM     17  C   LIG    1       -3.277   0.074  -0.587  0.00  0.00    -0.080 A 
ATOM     18 BR   LIG    1       -3.072   1.067   1.010  0.00  0.00    -0.030 Br
ENDBRANCH  11  12
ENDBRANCH   8  11
ENDBRANCH   5   7
BRANCH   1  19
ATOM     19  S   LIG    1        2.096   5.536  -2.864  0.00  0.00    +2.690 S 
ATOM     20  O   LIG    1        0.694   5.754  -2.940  0.00  0.00    -0.950 OA
ATOM     21  O   LIG    1        2.978   5.763  -3.955  0.00  0.00    -0.950 OA
BRANCH  19  22
ATOM     22  N   LIG    1        2.648   6.473  -1.615  0.00  0.00    -0.990 NA
ATOM     23  C   LIG    1        1.733   6.883  -0.547  0.00  0.00    +0.310 C 
BRANCH  22  25
ATOM     24  C   LIG    1        4.129   8.419  -1.591  0.00  0.00    +0.030 C 
ATOM     25  C   LIG    1        4.052   6.891  -1.578  0.00  0.00    +0.240 C 
ATOM     26  C   LIG    1        4.709   6.359  -0.303  0.00  0.00    +0.030 C 
ENDBRANCH  22  25
ENDBRANCH  19  22
ENDBRANCH   1  19
TORSDOF 6
