REMARK  Name = ZINCrg000000qKNC.0
REMARK                            x       y       z     vdW  Elec       q    Type
REMARK                         _______ _______ _______ _____ _____    ______ ____
ROOT
ATOM      1  N   LIG    1       -4.300   4.828  -1.375  0.00  0.00    -0.730 N 
ATOM      2  H   LIG    1       -4.717   5.059  -0.529  0.00  0.00    +0.400 HD
ATOM      3  C   LIG    1       -4.901   5.161  -2.534  0.00  0.00    +0.500 C 
ATOM      4  O   LIG    1       -4.380   4.872  -3.591  0.00  0.00    -0.520 OA
ENDROOT
BRANCH   1   5
ATOM      5  C   LIG    1       -3.019   4.118  -1.390  0.00  0.00    +0.260 C 
BRANCH   5   6
ATOM      6  C   LIG    1       -2.560   3.863   0.047  0.00  0.00    +0.070 C 
BRANCH   6  10
ATOM      7  C   LIG    1        1.177   1.785   0.000  0.00  0.00    +0.100 A 
ATOM      8  C   LIG    1       -0.013   1.076   0.008  0.00  0.00    -0.030 A 
ATOM      9  C   LIG    1       -1.219   1.751   0.017  0.00  0.00    +0.020 A 
ATOM     10  C   LIG    1       -1.242   3.133   0.031  0.00  0.00    -0.080 A 
ATOM     11  C   LIG    1       -0.057   3.846   0.023  0.00  0.00    -0.030 A 
ATOM     12  C   LIG    1        1.155   3.176   0.008  0.00  0.00    +0.100 A 
BRANCH   7  14
ATOM     13  C   LIG    1        2.312  -0.306  -0.021  0.00  0.00    +0.250 C 
ATOM     14  O   LIG    1        2.365   1.122  -0.014  0.00  0.00    -0.310 OA
ENDBRANCH   7  14
BRANCH  12  15
ATOM     15  O   LIG    1        2.321   3.877   0.001  0.00  0.00    -0.310 OA
ATOM     16  C   LIG    1        2.221   5.302   0.010  0.00  0.00    +0.250 C 
ENDBRANCH  12  15
ENDBRANCH   6  10
ENDBRANCH   5   6
ENDBRANCH   1   5
BRANCH   3  17
ATOM     17  C   LIG    1       -6.219   5.891  -2.518  0.00  0.00    +0.360 C 
BRANCH  17  18
ATOM     18  N   LIG    1       -6.659   6.135  -3.894  0.00  0.00    -0.560 N 
ATOM     19  C   LIG    1       -7.421   5.292  -4.600  0.00  0.00    +0.710 C 
ATOM     20  N   LIG    1       -7.685   5.751  -5.837  0.00  0.00    -0.710 N 
ATOM     21  H   LIG    1       -8.216   5.309  -6.518  0.00  0.00    +0.440 HD
ATOM     22  C   LIG    1       -7.011   7.056  -5.955  0.00  0.00    +0.160 C 
ATOM     23  C   LIG    1       -8.032   8.168  -6.206  0.00  0.00    +0.090 C 
ATOM     24  O   LIG    1       -7.830   4.231  -4.171  0.00  0.00    -0.540 OA
ATOM     25  C   LIG    1       -6.350   7.239  -4.604  0.00  0.00    +0.540 C 
ATOM     26  O   LIG    1       -5.681   8.181  -4.237  0.00  0.00    -0.460 OA
BRANCH  22  27
ATOM     27  C   LIG    1       -5.968   7.023  -7.074  0.00  0.00    -0.040 C 
ATOM     28  C   LIG    1       -5.925   8.212  -8.035  0.00  0.00    +0.050 C 
ATOM     29  C   LIG    1       -6.474   6.864  -8.508  0.00  0.00    +0.040 C 
ENDBRANCH  22  27
ENDBRANCH  17  18
ENDBRANCH   3  17
TORSDOF 8
