REMARK  Name = ZINCpk00000Ka9hq.0
REMARK                            x       y       z     vdW  Elec       q    Type
REMARK                         _______ _______ _______ _____ _____    ______ ____
ROOT
ATOM      1  C   LIG    1        4.913   4.205  -0.080  0.00  0.00    +0.320 C 
ENDROOT
BRANCH   1   2
ATOM      2  C   LIG    1        5.995   3.278  -0.569  0.00  0.00    -0.150 A 
ATOM      3  C   LIG    1        6.708   2.512   0.336  0.00  0.00    +0.070 A 
ATOM      4  C   LIG    1        7.697   1.657  -0.110  0.00  0.00    -0.080 A 
ATOM      5  C   LIG    1        7.983   1.575  -1.465  0.00  0.00    +0.140 A 
ATOM      6  C   LIG    1        7.270   2.348  -2.370  0.00  0.00    -0.020 A 
ATOM      7  C   LIG    1        6.278   3.197  -1.920  0.00  0.00    +0.070 A 
BRANCH   5   8
ATOM      8  O   LIG    1        8.958   0.738  -1.906  0.00  0.00    -0.300 OA
BRANCH   8   9
ATOM      9  C   LIG    1        9.651  -0.028  -0.918  0.00  0.00    +0.210 C 
BRANCH   9  10
ATOM     10  C   LIG    1       10.704  -0.905  -1.598  0.00  0.00    +0.160 C 
ATOM     11  C   LIG    1       11.529  -1.676  -0.537  0.00  0.00    +0.020 C 
ATOM     12  C   LIG    1       12.012  -2.896  -1.370  0.00  0.00    +0.010 C 
ATOM     13  C   LIG    1       10.821  -3.137  -2.322  0.00  0.00    +0.190 C 
ATOM     14  O   LIG    1       10.071  -1.919  -2.394  0.00  0.00    -0.370 OA
ENDBRANCH   9  10
ENDBRANCH   8   9
ENDBRANCH   5   8
ENDBRANCH   1   2
BRANCH   1  16
ATOM     15  C   LIG    1        2.516   4.128   0.349  0.00  0.00    +0.580 C 
ATOM     16  N   LIG    1        3.633   3.493  -0.056  0.00  0.00    -0.710 N 
ATOM     17  H   LIG    1        3.590   2.564  -0.332  0.00  0.00    +0.410 HD
ATOM     18  O   LIG    1        2.570   5.293   0.695  0.00  0.00    -0.520 OA
BRANCH  15  22
ATOM     19  C   LIG    1        0.002  -0.004   0.002  0.00  0.00    +0.340 C 
ATOM     20  N   LIG    1       -0.018   1.461   0.010  0.00  0.00    -0.460 N 
ATOM     21  N   LIG    1        1.186   2.172   0.002  0.00  0.00    -0.210 NA
ATOM     22  C   LIG    1        1.234   3.414   0.373  0.00  0.00    +0.080 C 
ATOM     23  C   LIG    1       -0.008   4.133   0.828  0.00  0.00    +0.110 C 
ATOM     24  C   LIG    1       -1.215   3.622   0.039  0.00  0.00    +0.090 C 
ATOM     25  C   LIG    1       -1.196   2.114   0.019  0.00  0.00    +0.490 C 
ATOM     26  O   LIG    1       -2.237   1.492   0.015  0.00  0.00    -0.510 OA
ENDBRANCH  15  22
ENDBRANCH   1  16
TORSDOF 6
