REMARK  Name = ZINCqH0000008HNT.2
REMARK                            x       y       z     vdW  Elec       q    Type
REMARK                         _______ _______ _______ _____ _____    ______ ____
ROOT
ATOM      1  C   LIG    1        3.671  -0.208   0.687  0.00  0.00    +0.180 C 
ATOM      2  C   LIG    1        4.617   0.181  -0.451  0.00  0.00    -0.020 C 
ATOM      3  C   LIG    1        5.507   1.342   0.006  0.00  0.00    +0.290 C 
ATOM      4  N   LIG    1        6.186   0.956   1.251  0.00  0.00    -0.610 N 
ATOM      5  C   LIG    1        5.375   0.479   2.379  0.00  0.00    +0.270 C 
ATOM      6  C   LIG    1        7.527   1.037   1.355  0.00  0.00    +0.590 C 
ATOM      7  O   LIG    1        8.197   1.323   0.380  0.00  0.00    -0.520 OA
ATOM      8  C   LIG    1        4.486  -0.672   1.896  0.00  0.00    +0.040 C 
ENDROOT
BRANCH   1  12
ATOM      9  C   LIG    1        0.114  -1.572  -2.430  0.00  0.00    +0.050 C 
ATOM     10  C   LIG    1        0.977  -2.001  -1.242  0.00  0.00    +0.160 C 
ATOM     11  C   LIG    1        1.913  -0.855  -0.850  0.00  0.00    +0.160 C 
ATOM     12  N   LIG    1        2.793  -1.299   0.241  0.00  0.00    -0.530 NA
ATOM     13  C   LIG    1        3.578  -2.473  -0.168  0.00  0.00    +0.150 C 
ATOM     14  C   LIG    1        2.625  -3.603  -0.567  0.00  0.00    +0.220 C 
ATOM     15  O   LIG    1        1.757  -3.143  -1.606  0.00  0.00    -0.380 OA
ENDBRANCH   1  12
BRANCH   6  16
ATOM     16  C   LIG    1        8.178   0.782   2.643  0.00  0.00    -0.260 A 
ATOM     17  C   LIG    1        9.426   0.249   2.802  0.00  0.00    +0.100 A 
ATOM     18  C   LIG    1        9.825   0.104   4.103  0.00  0.00    +0.010 A 
ATOM     19  C   LIG    1        8.912   0.515   5.030  0.00  0.00    -0.130 A 
ATOM     20  S   LIG    1        7.476   1.124   4.218  0.00  0.00    +0.190 S 
BRANCH  19  21
ATOM     21  C   LIG    1        9.104   0.463   6.494  0.00  0.00    -0.030 A 
ATOM     22  C   LIG    1       10.291  -0.043   7.028  0.00  0.00    +0.030 A 
ATOM     23  C   LIG    1       10.466  -0.084   8.396  0.00  0.00    +0.020 A 
ATOM     24  C   LIG    1        9.464   0.364   9.238  0.00  0.00    +0.020 A 
ATOM     25  C   LIG    1        8.283   0.861   8.716  0.00  0.00    +0.020 A 
ATOM     26  C   LIG    1        8.097   0.913   7.350  0.00  0.00    +0.010 A 
ENDBRANCH  19  21
ENDBRANCH   6  16
TORSDOF 3
