REMARK  Name = ZINCrH000004qqB8.0
REMARK                            x       y       z     vdW  Elec       q    Type
REMARK                         _______ _______ _______ _____ _____    ______ ____
ROOT
ATOM      1  C   LIG    1       -0.428   1.355  -0.432  0.00  0.00    +0.560 C 
ATOM      2  N   LIG    1       -1.698   1.728  -0.684  0.00  0.00    -0.710 N 
ATOM      3  H   LIG    1       -1.922   2.670  -0.755  0.00  0.00    +0.410 HD
ATOM      4  O   LIG    1       -0.148   0.175  -0.343  0.00  0.00    -0.500 OA
ENDROOT
BRANCH   1   8
ATOM      5  C   LIG    1        1.649   5.718  -1.708  0.00  0.00    +0.160 C 
ATOM      6  C   LIG    1        1.641   4.470  -0.864  0.00  0.00    +0.210 A 
ATOM      7  C   LIG    1        0.638   3.533  -1.054  0.00  0.00    -0.020 A 
ATOM      8  C   LIG    1        0.627   2.380  -0.269  0.00  0.00    +0.000 A 
ATOM      9  C   LIG    1        1.655   2.221   0.680  0.00  0.00    -0.210 A 
ATOM     10  C   LIG    1        1.986   1.185   1.657  0.00  0.00    +0.160 A 
ATOM     11  N   LIG    1        3.062   1.567   2.276  0.00  0.00    -0.270 NA
ATOM     12  O   LIG    1        3.486   2.816   1.770  0.00  0.00    -0.080 OA
ATOM     13  C   LIG    1        1.221  -0.090   1.901  0.00  0.00    +0.190 C 
ATOM     14  C   LIG    1        2.638   3.219   0.802  0.00  0.00    +0.300 A 
ATOM     15  N   LIG    1        2.590   4.294   0.030  0.00  0.00    -0.470 NA
ENDBRANCH   1   8
BRANCH   2  16
ATOM     16  C   LIG    1       -2.741   0.713  -0.851  0.00  0.00    +0.360 C 
BRANCH  16  17
ATOM     17  C   LIG    1       -3.853   1.271  -1.702  0.00  0.00    +0.110 A 
ATOM     18  C   LIG    1       -4.149   0.677  -2.914  0.00  0.00    -0.010 A 
ATOM     19  C   LIG    1       -5.174   1.198  -3.689  0.00  0.00    +0.070 A 
ATOM     20  C   LIG    1       -5.866   2.301  -3.213  0.00  0.00    -0.020 A 
ATOM     21  C   LIG    1       -5.513   2.842  -1.991  0.00  0.00    +0.260 A 
ATOM     22  N   LIG    1       -4.536   2.317  -1.278  0.00  0.00    -0.470 NA
ENDBRANCH  16  17
BRANCH  16  23
ATOM     23  C   LIG    1       -3.287   0.327   0.499  0.00  0.00    -0.100 A 
ATOM     24  C   LIG    1       -3.488   1.294   1.466  0.00  0.00    +0.040 A 
ATOM     25  C   LIG    1       -3.993   0.940   2.703  0.00  0.00    +0.000 A 
ATOM     26  C   LIG    1       -4.288  -0.382   2.977  0.00  0.00    +0.010 A 
ATOM     27  C   LIG    1       -4.083  -1.350   2.012  0.00  0.00    +0.000 A 
ATOM     28  C   LIG    1       -3.582  -0.996   0.773  0.00  0.00    +0.020 A 
ENDBRANCH  16  23
ENDBRANCH   2  16
TORSDOF 4
