REMARK  Name = ZINCAx0000000d87.0
REMARK                            x       y       z     vdW  Elec       q    Type
REMARK                         _______ _______ _______ _____ _____    ______ ____
ROOT
ATOM      1  C   LIG    1        2.669   5.712   0.226  0.00  0.00    +0.270 C 
ATOM      2  C   LIG    1        4.173   6.042   0.330  0.00  0.00    +0.090 C 
ATOM      3  C   LIG    1        4.788   4.707   0.829  0.00  0.00    +0.170 C 
ATOM      4  C   LIG    1        3.903   3.665   0.105  0.00  0.00    +0.240 C 
ATOM      5  N   LIG    1        2.551   4.251   0.102  0.00  0.00    -0.600 N 
ATOM      6  C   LIG    1        1.396   3.562   0.008  0.00  0.00    +0.550 C 
ATOM      7  O   LIG    1        0.341   4.155  -0.076  0.00  0.00    -0.520 OA
ENDROOT
BRANCH   6   8
ATOM      8  C   LIG    1        1.416   2.055   0.006  0.00  0.00    -0.060 C 
ATOM      9  C   LIG    1        0.007   1.527  -0.270  0.00  0.00    +0.050 C 
ATOM     10  C   LIG    1        0.027  -0.003  -0.271  0.00  0.00    -0.010 C 
ATOM     11  C   LIG    1        0.980  -0.499  -1.360  0.00  0.00    +0.010 C 
ATOM     12  C   LIG    1        2.389   0.029  -1.084  0.00  0.00    -0.010 C 
ATOM     13  C   LIG    1        2.866  -0.476   0.279  0.00  0.00    +0.020 C 
ATOM     14  C   LIG    1        1.913   0.020   1.368  0.00  0.00    +0.000 C 
ATOM     15  C   LIG    1        0.503  -0.508   1.093  0.00  0.00    +0.020 C 
ATOM     16  C   LIG    1        2.369   1.559  -1.083  0.00  0.00    +0.030 C 
ATOM     17  C   LIG    1        1.892   1.550   1.370  0.00  0.00    +0.040 C 
ENDBRANCH   6   8
BRANCH   1  18
ATOM     18  C   LIG    1        2.082   6.378  -0.992  0.00  0.00    +0.460 C 
ATOM     19  O   LIG    1        1.609   5.707  -1.879  0.00  0.00    -0.480 OA
BRANCH  18  20
ATOM     20  O   LIG    1        2.084   7.717  -1.091  0.00  0.00    -0.330 OA
BRANCH  20  21
ATOM     21  C   LIG    1        1.502   8.290  -2.291  0.00  0.00    +0.270 C 
BRANCH  21  23
ATOM     22  N   LIG    1        1.112  10.542  -3.237  0.00  0.00    -0.570 N 
ATOM     23  C   LIG    1        1.593   9.793  -2.225  0.00  0.00    +0.520 C 
ATOM     24  O   LIG    1        2.099  10.328  -1.262  0.00  0.00    -0.490 OA
BRANCH  22  25
ATOM     25  C   LIG    1        1.197  11.938  -3.176  0.00  0.00    +0.100 A 
ATOM     26  C   LIG    1        2.313  12.590  -3.681  0.00  0.00    +0.060 A 
ATOM     27  C   LIG    1        2.392  13.969  -3.624  0.00  0.00    +0.020 A 
ATOM     28  C   LIG    1        1.365  14.699  -3.056  0.00  0.00    +0.060 A 
ATOM     29  C   LIG    1        0.253  14.054  -2.546  0.00  0.00    -0.010 A 
ATOM     30  C   LIG    1        0.165  12.675  -2.605  0.00  0.00    +0.110 A 
ATOM     31  F   LIG    1       -0.922  12.045  -2.107  0.00  0.00    -0.130 F 
ENDBRANCH  22  25
BRANCH  22  32
ATOM     32  C   LIG    1        0.501   9.895  -4.401  0.00  0.00    +0.310 C 
BRANCH  32  33
ATOM     33  C   LIG    1       -1.000   9.720  -4.157  0.00  0.00    +0.180 C 
BRANCH  33  35
ATOM     34  N   LIG    1       -2.088   8.569  -6.229  0.00  0.00    -0.420 NA
ATOM     35  C   LIG    1       -1.614   9.070  -5.327  0.00  0.00    +0.200 C 
ENDBRANCH  33  35
ENDBRANCH  32  33
ENDBRANCH  22  32
ENDBRANCH  21  23
ENDBRANCH  20  21
ENDBRANCH  18  20
ENDBRANCH   1  18
BRANCH   3  36
ATOM     36  O   LIG    1        6.154   4.591   0.427  0.00  0.00    -0.550 OA
ATOM     37  H   LIG    1        6.581   3.773   0.716  0.00  0.00    +0.390 HD
ENDBRANCH   3  36
TORSDOF 10
