REMARK  Name = ZINCtV000002D9cV.0
REMARK                            x       y       z     vdW  Elec       q    Type
REMARK                         _______ _______ _______ _____ _____    ______ ____
ROOT
ATOM      1  N   LIG    1       -5.793   0.560   0.784  0.00  0.00    -0.620 N 
ATOM      2  C   LIG    1       -6.361   0.472   2.003  0.00  0.00    +0.520 C 
ATOM      3  O   LIG    1       -6.605  -0.616   2.481  0.00  0.00    -0.510 OA
ATOM      4  C   LIG    1       -5.498   1.874   0.207  0.00  0.00    +0.290 C 
ENDROOT
BRANCH   1   6
ATOM      5  C   LIG    1       -6.095  -0.581  -1.358  0.00  0.00    +0.070 C 
ATOM      6  C   LIG    1       -5.470  -0.658   0.036  0.00  0.00    +0.340 C 
BRANCH   6   7
ATOM      7  C   LIG    1       -3.974  -0.788  -0.090  0.00  0.00    +0.080 A 
ATOM      8  N   LIG    1       -3.313  -1.835   0.233  0.00  0.00    -0.450 NA
ATOM      9  C   LIG    1       -1.977  -1.811   0.066  0.00  0.00    +0.080 A 
ATOM     10  C   LIG    1       -1.019  -2.809   0.334  0.00  0.00    +0.080 A 
ATOM     11  C   LIG    1        0.301  -2.583   0.085  0.00  0.00    +0.030 A 
ATOM     12  C   LIG    1        0.728  -1.368  -0.431  0.00  0.00    +0.040 A 
ATOM     13  C   LIG    1       -0.185  -0.372  -0.698  0.00  0.00    +0.060 A 
ATOM     14  C   LIG    1       -1.539  -0.586  -0.449  0.00  0.00    -0.190 A 
ATOM     15  S   LIG    1       -2.948   0.447  -0.669  0.00  0.00    +0.100 S 
ENDBRANCH   6   7
ENDBRANCH   1   6
BRANCH   2  16
ATOM     16  C   LIG    1       -6.692   1.724   2.772  0.00  0.00    +0.070 C 
BRANCH  16  17
ATOM     17  C   LIG    1       -7.323   1.347   4.114  0.00  0.00    +0.110 C 
BRANCH  17  18
ATOM     18  C   LIG    1       -7.767   2.596   4.830  0.00  0.00    -0.070 A 
ATOM     19  C   LIG    1       -6.876   3.636   5.022  0.00  0.00    +0.010 A 
ATOM     20  C   LIG    1       -7.284   4.784   5.674  0.00  0.00    +0.000 A 
ATOM     21  C   LIG    1       -8.580   4.889   6.144  0.00  0.00    +0.000 A 
ATOM     22  C   LIG    1       -9.469   3.847   5.957  0.00  0.00    +0.000 A 
ATOM     23  C   LIG    1       -9.063   2.701   5.300  0.00  0.00    +0.010 A 
ENDBRANCH  17  18
BRANCH  17  24
ATOM     24  C   LIG    1       -6.310   0.617   4.958  0.00  0.00    -0.060 A 
ATOM     25  C   LIG    1       -6.622  -0.615   5.501  0.00  0.00    +0.030 A 
ATOM     26  C   LIG    1       -5.691  -1.287   6.271  0.00  0.00    +0.000 A 
ATOM     27  C   LIG    1       -4.452  -0.721   6.507  0.00  0.00    +0.000 A 
ATOM     28  C   LIG    1       -4.142   0.514   5.968  0.00  0.00    +0.000 A 
ATOM     29  C   LIG    1       -5.071   1.183   5.194  0.00  0.00    +0.000 A 
ENDBRANCH  17  24
ENDBRANCH  16  17
ENDBRANCH   2  16
TORSDOF 6
