REMARK  Name = ZINCqH0000004h57.0
REMARK                            x       y       z     vdW  Elec       q    Type
REMARK                         _______ _______ _______ _____ _____    ______ ____
ROOT
ATOM      1  N   LIG    1       -2.982   0.229  -0.132  0.00  0.00    -0.680 N 
ATOM      2  H   LIG    1       -2.401  -0.544  -0.208  0.00  0.00    +0.420 HD
ENDROOT
BRANCH   1   3
ATOM      3  C   LIG    1       -2.448   1.501  -0.184  0.00  0.00    +0.520 A 
ATOM      4  C   LIG    1       -1.054   1.697  -0.236  0.00  0.00    -0.330 A 
ATOM      5  C   LIG    1        0.069   0.842  -0.250  0.00  0.00    +0.290 A 
ATOM      6  N   LIG    1        1.144   1.574  -0.312  0.00  0.00    -0.250 NA
ATOM      7  N   LIG    1        0.792   2.930  -0.335  0.00  0.00    -0.370 N 
ATOM      8  C   LIG    1       -0.567   3.018  -0.284  0.00  0.00    +0.370 A 
ATOM      9  N   LIG    1       -1.440   4.025  -0.277  0.00  0.00    -0.570 NA
ATOM     10  C   LIG    1       -2.733   3.791  -0.237  0.00  0.00    +0.590 A 
ATOM     11  N   LIG    1       -3.236   2.571  -0.187  0.00  0.00    -0.610 NA
BRANCH   7  12
ATOM     12  C   LIG    1        1.724   4.058  -0.402  0.00  0.00    +0.190 C 
ATOM     13  C   LIG    1        1.541   4.945   0.832  0.00  0.00    +0.060 C 
ATOM     14  C   LIG    1        1.444   4.876  -1.664  0.00  0.00    +0.060 C 
ATOM     15  C   LIG    1        3.160   3.532  -0.443  0.00  0.00    +0.080 C 
ENDBRANCH   7  12
ENDBRANCH   1   3
BRANCH   1  16
ATOM     16  C   LIG    1       -4.425   0.046   0.037  0.00  0.00    +0.290 C 
BRANCH  16  17
ATOM     17  C   LIG    1       -5.110   0.097  -1.330  0.00  0.00    +0.010 C 
ATOM     18  C   LIG    1       -4.668  -1.105  -2.167  0.00  0.00    +0.030 C 
BRANCH  17  20
ATOM     19  C   LIG    1       -7.084   1.321  -0.409  0.00  0.00    +0.010 C 
ATOM     20  C   LIG    1       -6.628   0.058  -1.142  0.00  0.00    +0.030 C 
ENDBRANCH  17  20
ENDBRANCH  16  17
BRANCH  16  21
ATOM     21  C   LIG    1       -4.691  -1.289   0.683  0.00  0.00    +0.470 C 
ATOM     22  O   LIG    1       -3.768  -2.015   0.971  0.00  0.00    -0.500 OA
BRANCH  21  23
ATOM     23  O   LIG    1       -5.951  -1.673   0.937  0.00  0.00    -0.340 OA
BRANCH  23  24
ATOM     24  C   LIG    1       -6.132  -2.972   1.560  0.00  0.00    +0.110 C 
ATOM     25  C   LIG    1       -5.546  -4.058   0.655  0.00  0.00    +0.030 C 
ATOM     26  C   LIG    1       -7.625  -3.234   1.770  0.00  0.00    +0.080 C 
ATOM     27  C   LIG    1       -5.415  -2.994   2.911  0.00  0.00    +0.030 C 
ENDBRANCH  23  24
ENDBRANCH  21  23
ENDBRANCH  16  21
ENDBRANCH   1  16
TORSDOF 8
