REMARK  Name = ZINCvU00000008ej.0
REMARK                            x       y       z     vdW  Elec       q    Type
REMARK                         _______ _______ _______ _____ _____    ______ ____
ROOT
ATOM      1  C   LIG    1       -0.360   6.420   0.023  0.00  0.00    +0.310 C 
ENDROOT
BRANCH   1   2
ATOM      2  C   LIG    1       -0.831   6.668  -1.387  0.00  0.00    -0.120 A 
ATOM      3  C   LIG    1        0.088   6.795  -2.411  0.00  0.00    +0.030 A 
ATOM      4  C   LIG    1       -0.345   7.019  -3.704  0.00  0.00    +0.010 A 
ATOM      5  C   LIG    1       -1.697   7.124  -3.972  0.00  0.00    +0.020 A 
ATOM      6  C   LIG    1       -2.616   7.003  -2.947  0.00  0.00    +0.020 A 
ATOM      7  C   LIG    1       -2.183   6.775  -1.654  0.00  0.00    +0.020 A 
ENDBRANCH   1   2
BRANCH   1   9
ATOM      8  O   LIG    1        1.240   7.840   1.020  0.00  0.00    -0.500 OA
ATOM      9  C   LIG    1        0.096   7.719   0.636  0.00  0.00    +0.530 C 
ATOM     10  N   LIG    1       -0.767   8.746   0.758  0.00  0.00    -0.670 N 
ATOM     11  H   LIG    1       -1.663   8.673   0.393  0.00  0.00    +0.420 HD
BRANCH  10  12
ATOM     12  C   LIG    1       -0.372   9.919   1.412  0.00  0.00    +0.200 A 
ATOM     13  C   LIG    1        0.938  10.367   1.306  0.00  0.00    +0.050 A 
ATOM     14  C   LIG    1        1.325  11.525   1.952  0.00  0.00    +0.090 A 
ATOM     15  C   LIG    1        0.409  12.238   2.704  0.00  0.00    -0.050 A 
ATOM     16  C   LIG    1       -0.897  11.794   2.812  0.00  0.00    +0.120 A 
ATOM     17 CL   LIG    1        0.899  13.693   3.515  0.00  0.00    -0.050 Cl
ATOM     18  C   LIG    1       -1.291  10.640   2.164  0.00  0.00    -0.200 A 
BRANCH  18  19
ATOM     19  C   LIG    1       -2.715  10.160   2.277  0.00  0.00    +0.510 C 
ATOM     20  F   LIG    1       -2.733   8.885   2.853  0.00  0.00    -0.170 F 
ATOM     21  F   LIG    1       -3.291  10.104   1.003  0.00  0.00    -0.180 F 
ATOM     22  F   LIG    1       -3.443  11.045   3.080  0.00  0.00    -0.170 F 
ENDBRANCH  18  19
ENDBRANCH  10  12
ENDBRANCH   1   9
BRANCH   1  23
ATOM     23  N   LIG    1        0.756   5.471   0.004  0.00  0.00    -0.720 N 
ATOM     24  H   LIG    1        1.670   5.796   0.003  0.00  0.00    +0.410 HD
BRANCH  23  25
ATOM     25  C   LIG    1        0.503   4.094  -0.011  0.00  0.00    +0.230 A 
ATOM     26  C   LIG    1       -0.805   3.629  -0.007  0.00  0.00    -0.060 A 
ATOM     27  C   LIG    1       -1.056   2.269  -0.026  0.00  0.00    +0.090 A 
ATOM     28  C   LIG    1       -0.004   1.369  -0.039  0.00  0.00    -0.020 A 
ATOM     29  O   LIG    1        0.017   0.003  -0.056  0.00  0.00    -0.310 OA
ATOM     30  C   LIG    1        1.350  -0.367   0.343  0.00  0.00    +0.420 C 
ATOM     31  O   LIG    1        2.152   0.759  -0.062  0.00  0.00    -0.310 OA
ATOM     32  C   LIG    1        1.310   1.833  -0.043  0.00  0.00    +0.080 A 
ATOM     33  C   LIG    1        1.560   3.194  -0.028  0.00  0.00    -0.030 A 
ENDBRANCH  23  25
ENDBRANCH   1  23
TORSDOF 6
