REMARK  Name = ZINCAx0000000gwL.0
REMARK                            x       y       z     vdW  Elec       q    Type
REMARK                         _______ _______ _______ _____ _____    ______ ____
ROOT
ATOM      1  N   LIG    1        6.067   3.372  -0.098  0.00  0.00    -0.520 N 
ATOM      2  C   LIG    1        4.975   4.162  -0.117  0.00  0.00    +0.540 C 
ATOM      3  O   LIG    1        5.100   5.374  -0.093  0.00  0.00    -0.540 OA
ATOM      4  C   LIG    1        5.917   1.918  -0.004  0.00  0.00    +0.300 C 
ENDROOT
BRANCH   1  10
ATOM      5  N   LIG    1        9.088   5.277   0.763  0.00  0.00    -0.540 N 
ATOM      6  C   LIG    1        9.847   5.046  -0.324  0.00  0.00    +0.710 A 
ATOM      7  N   LIG    1        9.401   4.283  -1.337  0.00  0.00    -0.660 N 
ATOM      8  H   LIG    1        9.967   4.132  -2.109  0.00  0.00    +0.430 HD
ATOM      9  C   LIG    1        8.175   3.725  -1.291  0.00  0.00    +0.570 A 
ATOM     10  C   LIG    1        7.354   3.946  -0.169  0.00  0.00    -0.160 A 
ATOM     11  O   LIG    1        7.780   3.034  -2.214  0.00  0.00    -0.520 OA
ATOM     12  O   LIG    1       10.958   5.537  -0.391  0.00  0.00    -0.530 OA
ATOM     13  C   LIG    1        7.827   4.737   0.858  0.00  0.00    +0.500 A 
BRANCH  13  14
ATOM     14  N   LIG    1        7.049   4.977   1.966  0.00  0.00    -0.820 N 
ATOM     15  H   LIG    1        7.412   5.477   2.714  0.00  0.00    +0.410 HD
ATOM     16  H   LIG    1        6.138   4.647   1.999  0.00  0.00    +0.420 HD
ENDBRANCH  13  14
BRANCH   5  17
ATOM     17  C   LIG    1        9.605   6.115   1.848  0.00  0.00    +0.300 C 
BRANCH  17  18
ATOM     18  C   LIG    1        9.229   7.575   1.589  0.00  0.00    +0.010 C 
BRANCH  18  20
ATOM     19  C   LIG    1        9.394   9.910   2.463  0.00  0.00    +0.020 C 
ATOM     20  C   LIG    1        9.770   8.449   2.722  0.00  0.00    +0.010 C 
ENDBRANCH  18  20
ENDBRANCH  17  18
ENDBRANCH   5  17
ENDBRANCH   1  10
BRANCH   2  21
ATOM     21  C   LIG    1        3.641   3.565  -0.166  0.00  0.00    -0.090 C 
ATOM     22  C   LIG    1        2.548   4.357  -0.184  0.00  0.00    +0.130 C 
BRANCH  22  23
ATOM     23  C   LIG    1        1.207   3.756  -0.233  0.00  0.00    -0.080 A 
ATOM     24  C   LIG    1        1.061   2.365  -0.261  0.00  0.00    +0.040 A 
ATOM     25  C   LIG    1       -0.197   1.805  -0.306  0.00  0.00    -0.040 A 
ATOM     26  C   LIG    1       -1.322   2.618  -0.330  0.00  0.00    +0.120 A 
ATOM     27  C   LIG    1       -1.185   4.006  -0.298  0.00  0.00    +0.100 A 
ATOM     28  C   LIG    1        0.071   4.575  -0.253  0.00  0.00    -0.010 A 
BRANCH  27  29
ATOM     29  O   LIG    1       -2.291   4.798  -0.316  0.00  0.00    -0.300 OA
ATOM     30  C   LIG    1       -2.077   6.211  -0.286  0.00  0.00    +0.240 C 
ENDBRANCH  27  29
BRANCH  26  31
ATOM     31  O   LIG    1       -2.559   2.060  -0.380  0.00  0.00    -0.290 OA
BRANCH  31  32
ATOM     32  C   LIG    1       -2.627   0.633  -0.405  0.00  0.00    +0.300 C 
BRANCH  32  33
ATOM     33  C   LIG    1       -4.069   0.200  -0.460  0.00  0.00    -0.220 A 
ATOM     34  C   LIG    1       -4.832  -0.023  -1.557  0.00  0.00    +0.010 A 
ATOM     35  O   LIG    1       -6.041  -0.391  -1.110  0.00  0.00    +0.100 OA
ATOM     36  N   LIG    1       -6.081  -0.410   0.098  0.00  0.00    -0.360 NA
ATOM     37  C   LIG    1       -4.406   0.115  -2.996  0.00  0.00    +0.190 C 
ATOM     38  C   LIG    1       -4.938  -0.075   0.621  0.00  0.00    +0.040 A 
ATOM     39  C   LIG    1       -4.606   0.008   2.089  0.00  0.00    +0.160 C 
ENDBRANCH  32  33
ENDBRANCH  31  32
ENDBRANCH  26  31
ENDBRANCH  22  23
ENDBRANCH   2  21
TORSDOF 11
