REMARK  Name = ZINCrD0000075rEK.0
REMARK                            x       y       z     vdW  Elec       q    Type
REMARK                         _______ _______ _______ _____ _____    ______ ____
ROOT
ATOM      1  O   LIG    1       -0.017   1.448   0.007  0.00  0.00    -0.330 OA
ENDROOT
BRANCH   1   2
ATOM      2  C   LIG    1        1.170   2.073  -0.008  0.00  0.00    +0.460 C 
ATOM      3  O   LIG    1        2.192   1.429  -0.030  0.00  0.00    -0.490 OA
BRANCH   2   4
ATOM      4  C   LIG    1        1.229   3.579   0.003  0.00  0.00    +0.200 C 
BRANCH   4   5
ATOM      5  C   LIG    1        2.668   4.026  -0.017  0.00  0.00    -0.180 A 
ATOM      6  C   LIG    1        3.426   4.345   1.040  0.00  0.00    +0.250 A 
ATOM      7  O   LIG    1        4.660   4.698   0.636  0.00  0.00    -0.190 OA
ATOM      8  C   LIG    1        4.765   4.625  -0.706  0.00  0.00    +0.070 A 
ATOM      9  C   LIG    1        5.800   4.878  -1.597  0.00  0.00    +0.010 A 
ATOM     10  C   LIG    1        5.594   4.707  -2.954  0.00  0.00    +0.130 A 
ATOM     11  C   LIG    1        4.359   4.284  -3.435  0.00  0.00    -0.010 A 
ATOM     12  C   LIG    1        3.330   4.032  -2.571  0.00  0.00    +0.080 A 
ATOM     13  C   LIG    1        3.523   4.193  -1.200  0.00  0.00    -0.120 A 
BRANCH  10  14
ATOM     14  O   LIG    1        6.608   4.955  -3.826  0.00  0.00    -0.490 OA
ATOM     15  H   LIG    1        7.163   4.185  -4.012  0.00  0.00    +0.400 HD
ENDBRANCH  10  14
ENDBRANCH   4   5
ENDBRANCH   2   4
ENDBRANCH   1   2
BRANCH   1  16
ATOM     16  C   LIG    1        0.002  -0.004  -0.005  0.00  0.00    +0.270 C 
BRANCH  16  18
ATOM     17  O   LIG    1       -2.344   0.250   0.035  0.00  0.00    -0.490 OA
ATOM     18  C   LIG    1       -1.412  -0.526   0.014  0.00  0.00    +0.520 C 
ATOM     19  N   LIG    1       -1.640  -1.854   0.008  0.00  0.00    -0.670 N 
ATOM     20  H   LIG    1       -0.898  -2.473  -0.077  0.00  0.00    +0.410 HD
BRANCH  19  21
ATOM     21  C   LIG    1       -2.947  -2.340   0.123  0.00  0.00    +0.140 A 
ATOM     22  C   LIG    1       -4.002  -1.645  -0.454  0.00  0.00    +0.020 A 
ATOM     23  C   LIG    1       -5.289  -2.129  -0.337  0.00  0.00    +0.040 A 
ATOM     24  C   LIG    1       -5.534  -3.305   0.353  0.00  0.00    -0.110 A 
ATOM     25  C   LIG    1       -6.835  -4.032   0.618  0.00  0.00    +0.080 C 
ATOM     26  C   LIG    1       -6.528  -5.000   1.780  0.00  0.00    +0.030 C 
ATOM     27  C   LIG    1       -5.011  -5.239   1.619  0.00  0.00    +0.080 C 
ATOM     28  C   LIG    1       -4.486  -3.999   0.929  0.00  0.00    -0.080 A 
ATOM     29  C   LIG    1       -3.193  -3.520   0.810  0.00  0.00    -0.010 A 
ENDBRANCH  19  21
ENDBRANCH  16  18
ENDBRANCH   1  16
TORSDOF 7
