REMARK  Name = ZINCvU00000006oO.0
REMARK                            x       y       z     vdW  Elec       q    Type
REMARK                         _______ _______ _______ _____ _____    ______ ____
ROOT
ATOM      1  C   LIG    1       -0.763   3.893   7.876  0.00  0.00    +0.090 A 
ATOM      2  C   LIG    1       -2.082   3.968   7.536  0.00  0.00    -0.090 A 
ATOM      3  S   LIG    1       -2.283   3.369   5.947  0.00  0.00    +0.170 S 
ATOM      4  C   LIG    1       -0.560   3.036   5.828  0.00  0.00    +0.280 A 
ATOM      5  N   LIG    1        0.029   3.383   6.928  0.00  0.00    -0.450 NA
ENDROOT
BRANCH   4   6
ATOM      6  N   LIG    1        0.074   2.489   4.719  0.00  0.00    -0.480 N 
ATOM      7  C   LIG    1        1.387   2.187   4.774  0.00  0.00    +0.510 C 
ATOM      8  O   LIG    1        1.993   2.306   5.818  0.00  0.00    -0.470 OA
ATOM      9  C   LIG    1        2.100   1.700   3.539  0.00  0.00    +0.120 C 
BRANCH   6  10
ATOM     10  C   LIG    1       -0.650   2.252   3.545  0.00  0.00    +0.100 A 
ATOM     11  C   LIG    1       -1.601   1.240   3.506  0.00  0.00    +0.020 A 
ATOM     12  C   LIG    1       -2.314   1.008   2.346  0.00  0.00    +0.030 A 
ATOM     13  C   LIG    1       -2.085   1.785   1.225  0.00  0.00    -0.070 A 
ATOM     14  C   LIG    1       -1.135   2.790   1.259  0.00  0.00    -0.070 A 
ATOM     15  C   LIG    1       -0.885   3.630   0.033  0.00  0.00    +0.110 C 
ATOM     16  C   LIG    1       -2.869   1.534  -0.037  0.00  0.00    +0.100 C 
ATOM     17  C   LIG    1       -0.419   3.027   2.416  0.00  0.00    +0.030 A 
ENDBRANCH   6  10
ENDBRANCH   4   6
BRANCH   1  19
ATOM     18  C   LIG    1        1.067   4.234   9.459  0.00  0.00    -0.050 C 
ATOM     19  C   LIG    1       -0.255   4.335   9.178  0.00  0.00    +0.160 C 
BRANCH  18  20
ATOM     20  C   LIG    1        1.557   4.661  10.715  0.00  0.00    +0.420 C 
ATOM     21  O   LIG    1        0.791   5.119  11.545  0.00  0.00    -0.440 OA
BRANCH  20  26
ATOM     22  C   LIG    1        5.227   3.930  10.367  0.00  0.00    +0.080 A 
ATOM     23  C   LIG    1        5.706   4.350  11.601  0.00  0.00    +0.000 A 
ATOM     24  C   LIG    1        4.841   4.870  12.544  0.00  0.00    -0.050 A 
ATOM     25  C   LIG    1        3.488   4.979  12.263  0.00  0.00    +0.150 A 
ATOM     26  C   LIG    1        2.998   4.552  11.021  0.00  0.00    -0.160 A 
ATOM     27  C   LIG    1        3.879   4.028  10.073  0.00  0.00    +0.080 A 
BRANCH  22  29
ATOM     28  C   LIG    1        7.465   3.346   9.813  0.00  0.00    +0.230 C 
ATOM     29  O   LIG    1        6.086   3.420   9.444  0.00  0.00    -0.310 OA
ENDBRANCH  22  29
BRANCH  25  30
ATOM     30  O   LIG    1        2.640   5.495  13.189  0.00  0.00    -0.290 OA
ATOM     31  C   LIG    1        3.210   5.909  14.432  0.00  0.00    +0.240 C 
ENDBRANCH  25  30
ENDBRANCH  20  26
ENDBRANCH  18  20
ENDBRANCH   1  19
TORSDOF 7
