REMARK  Name = ZINCnE000001TyNu.0
REMARK                            x       y       z     vdW  Elec       q    Type
REMARK                         _______ _______ _______ _____ _____    ______ ____
ROOT
ATOM      1  N   LIG    1        3.621  -0.650  -0.036  0.00  0.00    -0.660 N 
ATOM      2  H   LIG    1        3.638  -1.617   0.035  0.00  0.00    +0.410 HD
ATOM      3  C   LIG    1        4.775   0.038  -0.145  0.00  0.00    +0.560 C 
ATOM      4  O   LIG    1        4.761   1.254  -0.139  0.00  0.00    -0.530 OA
ENDROOT
BRANCH   3   5
ATOM      5  C   LIG    1        6.054  -0.684  -0.273  0.00  0.00    -0.150 A 
ATOM      6  C   LIG    1        7.259   0.028  -0.393  0.00  0.00    +0.150 A 
ATOM      7  N   LIG    1        7.567   1.365  -0.411  0.00  0.00    -0.580 N 
ATOM      8  H   LIG    1        6.921   2.085  -0.346  0.00  0.00    +0.430 HD
ATOM      9  C   LIG    1        8.919   1.531  -0.541  0.00  0.00    +0.220 A 
ATOM     10  C   LIG    1        9.523   0.334  -0.605  0.00  0.00    -0.050 A 
ATOM     11  C   LIG    1        8.469  -0.680  -0.508  0.00  0.00    -0.120 A 
ATOM     12  C   LIG    1        8.464  -2.075  -0.513  0.00  0.00    +0.090 A 
ATOM     13  C   LIG    1        7.272  -2.761  -0.400  0.00  0.00    -0.030 A 
ATOM     14  C   LIG    1        6.076  -2.078  -0.281  0.00  0.00    +0.070 A 
ENDBRANCH   3   5
BRANCH   1  18
ATOM     15  C   LIG    1       -0.018   1.377  -0.008  0.00  0.00    -0.070 A 
ATOM     16  C   LIG    1        1.037   1.863  -0.758  0.00  0.00    +0.020 A 
ATOM     17  C   LIG    1        2.245   1.194  -0.769  0.00  0.00    +0.020 A 
ATOM     18  C   LIG    1        2.399   0.031  -0.027  0.00  0.00    +0.120 A 
ATOM     19  C   LIG    1        1.338  -0.456   0.725  0.00  0.00    -0.020 A 
ATOM     20  C   LIG    1        0.133   0.219   0.733  0.00  0.00    +0.030 A 
BRANCH  15  21
ATOM     21  C   LIG    1       -1.336   2.107  -0.003  0.00  0.00    +0.080 C 
BRANCH  21  22
ATOM     22  C   LIG    1       -1.346   3.134   1.131  0.00  0.00    -0.060 C 
BRANCH  22  24
ATOM     23  O   LIG    1       -3.517   3.588   0.309  0.00  0.00    -0.700 OA
ATOM     24  C   LIG    1       -2.664   3.864   1.136  0.00  0.00    +0.490 C 
ATOM     25  O   LIG    1       -2.878   4.731   1.966  0.00  0.00    -0.710 OA
ENDBRANCH  22  24
ENDBRANCH  21  22
ENDBRANCH  15  21
ENDBRANCH   1  18
TORSDOF 5
