REMARK  Name = ZINCvU0000000ITl.0
REMARK                            x       y       z     vdW  Elec       q    Type
REMARK                         _______ _______ _______ _____ _____    ______ ____
ROOT
ATOM      1  C   LIG    1        1.155   3.171   0.008  0.00  0.00    +0.150 A 
ATOM      2  C   LIG    1       -0.030   3.873   0.023  0.00  0.00    -0.010 A 
ATOM      3  C   LIG    1       -1.249   3.176   0.031  0.00  0.00    +0.190 A 
ATOM      4  N   LIG    1       -2.414   3.835   0.046  0.00  0.00    -0.490 NA
ATOM      5  C   LIG    1       -3.570   3.199   0.054  0.00  0.00    +0.150 A 
ATOM      6  C   LIG    1       -3.638   1.802   0.048  0.00  0.00    -0.020 A 
ATOM      7  C   LIG    1       -2.469   1.060   0.032  0.00  0.00    +0.050 A 
ATOM      8  C   LIG    1       -1.234   1.761   0.018  0.00  0.00    -0.130 A 
ATOM      9  C   LIG    1       -0.013   1.076   0.008  0.00  0.00    +0.090 A 
ATOM     10  C   LIG    1        1.157   1.774   0.001  0.00  0.00    -0.050 A 
ENDROOT
BRANCH   7  11
ATOM     11  C   LIG    1       -2.505  -0.421   0.024  0.00  0.00    -0.060 A 
ATOM     12  C   LIG    1       -1.760  -1.135  -0.915  0.00  0.00    +0.030 A 
ATOM     13  C   LIG    1       -1.795  -2.515  -0.914  0.00  0.00    +0.010 A 
ATOM     14  C   LIG    1       -2.573  -3.189   0.010  0.00  0.00    +0.020 A 
ATOM     15  C   LIG    1       -3.317  -2.487   0.941  0.00  0.00    +0.010 A 
ATOM     16  C   LIG    1       -3.287  -1.107   0.953  0.00  0.00    +0.030 A 
ENDBRANCH   7  11
BRANCH   1  18
ATOM     17  C   LIG    1        3.529   3.061  -0.014  0.00  0.00    +0.240 C 
ATOM     18  O   LIG    1        2.334   3.845   0.001  0.00  0.00    -0.310 OA
ENDBRANCH   1  18
BRANCH   5  19
ATOM     19  S   LIG    1       -5.064   4.132   0.074  0.00  0.00    +0.010 S 
BRANCH  19  20
ATOM     20  C   LIG    1       -4.387   5.811   0.076  0.00  0.00    +0.110 C 
BRANCH  20  21
ATOM     21  C   LIG    1       -5.516   6.808   0.092  0.00  0.00    +0.380 C 
ATOM     22  O   LIG    1       -6.661   6.424   0.101  0.00  0.00    -0.400 OA
BRANCH  21  23
ATOM     23  C   LIG    1       -5.217   8.285   0.097  0.00  0.00    +0.230 C 
BRANCH  23  24
ATOM     24  C   LIG    1       -6.316   9.018   0.822  0.00  0.00    +0.020 A 
ATOM     25  N   LIG    1       -6.151   9.737   1.880  0.00  0.00    -0.450 NA
ATOM     26  C   LIG    1       -7.221  10.314   2.388  0.00  0.00    +0.060 A 
ATOM     27  C   LIG    1       -8.354  10.060   1.725  0.00  0.00    -0.080 A 
ATOM     28  C   LIG    1       -7.173  11.184   3.617  0.00  0.00    +0.160 C 
ATOM     29  S   LIG    1       -7.964   9.011   0.365  0.00  0.00    +0.200 S 
ENDBRANCH  23  24
BRANCH  23  30
ATOM     30  C   LIG    1       -5.133   8.773  -1.289  0.00  0.00    +0.200 C 
ATOM     31  N   LIG    1       -5.068   9.150  -2.359  0.00  0.00    -0.370 NA
ENDBRANCH  23  30
ENDBRANCH  21  23
ENDBRANCH  20  21
ENDBRANCH  19  20
ENDBRANCH   5  19
TORSDOF 8
