REMARK  Name = ZINCqH0000008lr8.0
REMARK                            x       y       z     vdW  Elec       q    Type
REMARK                         _______ _______ _______ _____ _____    ______ ____
ROOT
ATOM      1  C   LIG    1       -1.356  -3.940  -1.401  0.00  0.00    +0.070 C 
ATOM      2  C   LIG    1       -1.390  -3.318  -0.004  0.00  0.00    +0.380 C 
ENDROOT
BRANCH   2   3
ATOM      3  C   LIG    1       -0.593  -2.039  -0.004  0.00  0.00    +0.180 A 
ATOM      4  N   LIG    1       -1.075  -0.822   0.008  0.00  0.00    -0.460 NA
ATOM      5  C   LIG    1        0.002  -0.004   0.002  0.00  0.00    +0.220 A 
ATOM      6  N   LIG    1        1.065  -0.766  -0.018  0.00  0.00    -0.370 NA
ATOM      7  O   LIG    1        0.740  -1.935  -0.016  0.00  0.00    +0.090 OA
BRANCH   5   8
ATOM      8  C   LIG    1       -0.018   1.480   0.010  0.00  0.00    -0.040 A 
ATOM      9  C   LIG    1       -1.233   2.162   0.020  0.00  0.00    +0.110 A 
ATOM     10  C   LIG    1       -1.247   3.541   0.032  0.00  0.00    -0.010 A 
ATOM     11  C   LIG    1       -0.056   4.248   0.024  0.00  0.00    +0.120 A 
ATOM     12  C   LIG    1        1.155   3.574   0.010  0.00  0.00    -0.010 A 
ATOM     13  F   LIG    1       -0.074   5.599   0.031  0.00  0.00    -0.130 F 
ATOM     14  C   LIG    1        1.178   2.195   0.003  0.00  0.00    +0.090 A 
ENDBRANCH   5   8
ENDBRANCH   2   3
BRANCH   2  15
ATOM     15  N   LIG    1       -0.811  -4.255   0.962  0.00  0.00    -0.730 N 
ATOM     16  H   LIG    1        0.126  -4.183   1.206  0.00  0.00    +0.410 HD
ATOM     17  C   LIG    1       -1.578  -5.216   1.513  0.00  0.00    +0.520 C 
ATOM     18  O   LIG    1       -2.749  -5.306   1.208  0.00  0.00    -0.530 OA
BRANCH  17  19
ATOM     19  C   LIG    1       -0.982  -6.180   2.506  0.00  0.00    +0.090 C 
BRANCH  19  20
ATOM     20  C   LIG    1       -2.059  -7.161   2.974  0.00  0.00    +0.060 C 
BRANCH  20  21
ATOM     21  C   LIG    1       -1.463  -8.125   3.967  0.00  0.00    +0.430 C 
ATOM     22  O   LIG    1       -0.291  -8.035   4.272  0.00  0.00    -0.450 OA
BRANCH  21  23
ATOM     23  C   LIG    1       -2.267  -9.132   4.544  0.00  0.00    -0.320 A 
ATOM     24  C   LIG    1       -1.843 -10.065   5.456  0.00  0.00    +0.110 A 
ATOM     25  C   LIG    1       -2.836 -10.926   5.851  0.00  0.00    -0.010 A 
ATOM     26  C   LIG    1       -4.032 -10.713   5.287  0.00  0.00    -0.050 A 
ATOM     27  S   LIG    1       -3.975  -9.388   4.214  0.00  0.00    +0.240 S 
ENDBRANCH  21  23
ENDBRANCH  20  21
ENDBRANCH  19  20
ENDBRANCH  17  19
ENDBRANCH   2  15
TORSDOF 7
