REMARK  Name = ZINCpk00000l7bMu.0
REMARK                            x       y       z     vdW  Elec       q    Type
REMARK                         _______ _______ _______ _____ _____    ______ ____
ROOT
ATOM      1  O   LIG    1       -7.043   0.408  -0.549  0.00  0.00    -0.520 OA
ATOM      2  C   LIG    1       -6.302   0.091   0.357  0.00  0.00    +0.530 C 
ATOM      3  N   LIG    1       -4.989  -0.101   0.118  0.00  0.00    -0.610 N 
ATOM      4  C   LIG    1       -4.064  -0.484   1.194  0.00  0.00    +0.320 C 
ATOM      5  C   LIG    1       -2.797   0.315   1.065  0.00  0.00    -0.040 C 
ATOM      6  C   LIG    1       -2.512   1.052   0.019  0.00  0.00    -0.060 C 
ATOM      7  C   LIG    1       -3.402   1.204  -1.179  0.00  0.00    +0.070 C 
ATOM      8  C   LIG    1       -4.424   0.066  -1.232  0.00  0.00    +0.290 C 
ENDROOT
BRANCH   6   9
ATOM      9  C   LIG    1       -1.223   1.777   0.017  0.00  0.00    -0.110 A 
ATOM     10  C   LIG    1       -0.013   1.076   0.008  0.00  0.00    +0.080 A 
ATOM     11  C   LIG    1        1.166   1.802   0.001  0.00  0.00    -0.030 A 
ATOM     12  C   LIG    1        1.110   3.183   0.009  0.00  0.00    +0.260 A 
ATOM     13  N   LIG    1       -0.047   3.818   0.024  0.00  0.00    -0.480 NA
ATOM     14  C   LIG    1       -1.194   3.172   0.031  0.00  0.00    +0.260 A 
ENDBRANCH   6   9
BRANCH   2  15
ATOM     15  C   LIG    1       -6.848  -0.087   1.750  0.00  0.00    +0.000 C 
ATOM     16  C   LIG    1       -6.310   1.008   2.700  0.00  0.00    +0.080 C 
ATOM     17  C   LIG    1       -7.366   2.090   2.654  0.00  0.00    +0.510 C 
ATOM     18  N   LIG    1       -8.506   1.602   2.134  0.00  0.00    -0.530 N 
ATOM     19  O   LIG    1       -7.208   3.232   3.033  0.00  0.00    -0.520 OA
ATOM     20  C   LIG    1       -8.368   0.183   1.786  0.00  0.00    +0.310 C 
BRANCH  18  21
ATOM     21  C   LIG    1       -9.679   2.356   1.945  0.00  0.00    +0.010 A 
ATOM     22  C   LIG    1       -9.845   3.668   2.253  0.00  0.00    +0.230 A 
ATOM     23  N   LIG    1      -11.116   4.010   1.918  0.00  0.00    -0.470 N 
ATOM     24  H   LIG    1      -11.518   4.886   2.025  0.00  0.00    +0.450 HD
ATOM     25  N   LIG    1      -11.743   2.874   1.391  0.00  0.00    -0.280 NA
ATOM     26  C   LIG    1      -10.884   1.887   1.401  0.00  0.00    +0.240 A 
ENDBRANCH  18  21
ENDBRANCH   2  15
TORSDOF 3
