REMARK  Name = ZINCtj0000001wHv.1
REMARK                            x       y       z     vdW  Elec       q    Type
REMARK                         _______ _______ _______ _____ _____    ______ ____
ROOT
ATOM      1  N   LIG    1       -1.508  -4.361  -2.595  0.00  0.00    -0.700 N 
ATOM      2  H   LIG    1       -2.037  -3.677  -3.034  0.00  0.00    +0.420 HD
ATOM      3  C   LIG    1       -1.822  -5.662  -2.756  0.00  0.00    +0.520 C 
ATOM      4  O   LIG    1       -1.160  -6.518  -2.207  0.00  0.00    -0.500 OA
ENDROOT
BRANCH   1   8
ATOM      5  N   LIG    1        0.810  -1.960  -1.234  0.00  0.00    -0.390 N 
ATOM      6  C   LIG    1        1.408  -2.463  -2.497  0.00  0.00    +0.270 C 
ATOM      7  C   LIG    1        0.924  -3.926  -2.601  0.00  0.00    +0.070 C 
ATOM      8  C   LIG    1       -0.367  -3.981  -1.758  0.00  0.00    +0.260 C 
ATOM      9  C   LIG    1       -0.554  -2.548  -1.216  0.00  0.00    +0.280 C 
ATOM     10  H   LIG    1        1.342  -2.279  -0.438  0.00  0.00    +0.430 HD
BRANCH   5  15
ATOM     11  C   LIG    1        1.380   3.497   0.147  0.00  0.00    +0.210 C 
ATOM     12  N   LIG    1        1.359   2.036   0.000  0.00  0.00    -0.550 NA
ATOM     13  C   LIG    1       -0.019   1.526   0.010  0.00  0.00    +0.200 C 
ATOM     14  C   LIG    1        0.002  -0.004   0.002  0.00  0.00    +0.050 C 
ATOM     15  C   LIG    1        0.738  -0.493  -1.249  0.00  0.00    +0.160 C 
ATOM     16  C   LIG    1        2.153   0.091  -1.260  0.00  0.00    +0.050 C 
ATOM     17  C   LIG    1        2.070   1.619  -1.215  0.00  0.00    +0.200 C 
ENDBRANCH   5  15
ENDBRANCH   1   8
BRANCH   3  18
ATOM     18  C   LIG    1       -2.986  -6.050  -3.609  0.00  0.00    +0.510 C 
ATOM     19  N   LIG    1       -3.300  -7.351  -3.770  0.00  0.00    -0.690 N 
ATOM     20  H   LIG    1       -2.771  -8.035  -3.331  0.00  0.00    +0.420 HD
ATOM     21  O   LIG    1       -3.648  -5.194  -4.158  0.00  0.00    -0.510 OA
BRANCH  19  22
ATOM     22  C   LIG    1       -4.441  -7.731  -4.607  0.00  0.00    +0.400 C 
BRANCH  22  23
ATOM     23  C   LIG    1       -4.575  -9.232  -4.621  0.00  0.00    +0.040 A 
ATOM     24  C   LIG    1       -5.396  -9.878  -3.786  0.00  0.00    -0.040 A 
ATOM     25  S   LIG    1       -5.269 -11.605  -4.114  0.00  0.00    +0.170 S 
ATOM     26  C   LIG    1       -4.089 -11.273  -5.380  0.00  0.00    +0.140 A 
ATOM     27  N   LIG    1       -3.898  -9.985  -5.457  0.00  0.00    -0.450 NA
BRANCH  26  28
ATOM     28  C   LIG    1       -3.429 -12.286  -6.218  0.00  0.00    +0.030 A 
ATOM     29  C   LIG    1       -3.624 -13.633  -6.150  0.00  0.00    +0.000 A 
ATOM     30  C   LIG    1       -2.794 -14.212  -7.128  0.00  0.00    -0.050 A 
ATOM     31  C   LIG    1       -2.139 -13.205  -7.740  0.00  0.00    +0.200 A 
ATOM     32  O   LIG    1       -2.529 -12.043  -7.192  0.00  0.00    -0.150 OA
ENDBRANCH  26  28
ENDBRANCH  22  23
ENDBRANCH  19  22
ENDBRANCH   3  18
TORSDOF 6
