REMARK  Name = ZINCtj0000001wHv.2
REMARK                            x       y       z     vdW  Elec       q    Type
REMARK                         _______ _______ _______ _____ _____    ______ ____
ROOT
ATOM      1  N   LIG    1        0.002  -0.004   0.002  0.00  0.00    -0.700 N 
ATOM      2  H   LIG    1        0.773  -0.481   0.347  0.00  0.00    +0.420 HD
ATOM      3  C   LIG    1       -1.051  -0.690  -0.485  0.00  0.00    +0.520 C 
ATOM      4  O   LIG    1       -2.016  -0.093  -0.917  0.00  0.00    -0.500 OA
ENDROOT
BRANCH   1   8
ATOM      5  N   LIG    1        1.434   3.195   0.898  0.00  0.00    -0.380 N 
ATOM      6  C   LIG    1        0.073   3.389   1.442  0.00  0.00    +0.270 C 
ATOM      7  C   LIG    1       -0.593   1.994   1.348  0.00  0.00    +0.070 C 
ATOM      8  C   LIG    1       -0.018   1.461   0.010  0.00  0.00    +0.260 C 
ATOM      9  C   LIG    1        1.418   2.026  -0.001  0.00  0.00    +0.270 C 
ATOM     10  H   LIG    1        2.080   3.031   1.656  0.00  0.00    +0.430 HD
BRANCH   5  15
ATOM     11  C   LIG    1        4.245   7.784  -0.846  0.00  0.00    +0.210 C 
ATOM     12  N   LIG    1        3.692   6.577  -0.217  0.00  0.00    -0.550 NA
ATOM     13  C   LIG    1        2.346   6.830   0.312  0.00  0.00    +0.200 C 
ATOM     14  C   LIG    1        1.861   5.601   1.085  0.00  0.00    +0.050 C 
ATOM     15  C   LIG    1        1.843   4.390   0.148  0.00  0.00    +0.160 C 
ATOM     16  C   LIG    1        3.245   4.177  -0.429  0.00  0.00    +0.050 C 
ATOM     17  C   LIG    1        3.690   5.448  -1.156  0.00  0.00    +0.200 C 
ENDBRANCH   5  15
ENDBRANCH   1   8
BRANCH   3  18
ATOM     18  C   LIG    1       -1.031  -2.184  -0.493  0.00  0.00    +0.510 C 
ATOM     19  N   LIG    1       -2.084  -2.869  -0.980  0.00  0.00    -0.690 N 
ATOM     20  H   LIG    1       -2.855  -2.393  -1.325  0.00  0.00    +0.420 HD
ATOM     21  O   LIG    1       -0.066  -2.780  -0.061  0.00  0.00    -0.510 OA
BRANCH  19  22
ATOM     22  C   LIG    1       -2.064  -4.334  -0.988  0.00  0.00    +0.400 C 
BRANCH  22  23
ATOM     23  C   LIG    1       -3.351  -4.851  -1.579  0.00  0.00    +0.040 A 
ATOM     24  C   LIG    1       -3.460  -5.170  -2.873  0.00  0.00    -0.040 A 
ATOM     25  S   LIG    1       -5.104  -5.731  -3.167  0.00  0.00    +0.170 S 
ATOM     26  C   LIG    1       -5.494  -5.464  -1.470  0.00  0.00    +0.140 A 
ATOM     27  N   LIG    1       -4.436  -5.010  -0.856  0.00  0.00    -0.450 NA
BRANCH  26  28
ATOM     28  C   LIG    1       -6.803  -5.711  -0.845  0.00  0.00    +0.030 A 
ATOM     29  C   LIG    1       -7.914  -6.184  -1.476  0.00  0.00    +0.000 A 
ATOM     30  C   LIG    1       -8.928  -6.265  -0.503  0.00  0.00    -0.050 A 
ATOM     31  C   LIG    1       -8.395  -5.843   0.661  0.00  0.00    +0.200 A 
ATOM     32  O   LIG    1       -7.110  -5.515   0.453  0.00  0.00    -0.150 OA
ENDBRANCH  26  28
ENDBRANCH  22  23
ENDBRANCH  19  22
ENDBRANCH   3  18
TORSDOF 6
