REMARK  Name = ZINCtj0000001wHv.0
REMARK                            x       y       z     vdW  Elec       q    Type
REMARK                         _______ _______ _______ _____ _____    ______ ____
ROOT
ATOM      1  N   LIG    1       -0.363   0.633   2.219  0.00  0.00    -0.700 N 
ATOM      2  H   LIG    1       -0.936  -0.132   2.386  0.00  0.00    +0.410 HD
ATOM      3  C   LIG    1        0.725   0.840   2.988  0.00  0.00    +0.510 C 
ATOM      4  O   LIG    1        1.442   1.796   2.779  0.00  0.00    -0.510 OA
ENDROOT
BRANCH   1   8
ATOM      5  N   LIG    1       -2.187   1.900  -0.709  0.00  0.00    -0.520 NA
ATOM      6  C   LIG    1       -0.836   1.745  -1.281  0.00  0.00    +0.190 C 
ATOM      7  C   LIG    1        0.067   1.169  -0.170  0.00  0.00    +0.010 C 
ATOM      8  C   LIG    1       -0.679   1.562   1.132  0.00  0.00    +0.250 C 
ATOM      9  C   LIG    1       -2.163   1.425   0.691  0.00  0.00    +0.190 C 
BRANCH   5  14
ATOM     10  C   LIG    1       -6.705   0.571  -3.819  0.00  0.00    +0.310 C 
ATOM     11  N   LIG    1       -5.649   1.200  -3.015  0.00  0.00    -0.390 N 
ATOM     12  C   LIG    1       -5.596   0.563  -1.694  0.00  0.00    +0.260 C 
ATOM     13  C   LIG    1       -4.552   1.267  -0.825  0.00  0.00    +0.060 C 
ATOM     14  C   LIG    1       -3.180   1.161  -1.499  0.00  0.00    +0.130 C 
ATOM     15  C   LIG    1       -3.265   1.760  -2.906  0.00  0.00    +0.070 C 
ATOM     16  C   LIG    1       -4.359   1.040  -3.697  0.00  0.00    +0.260 C 
ATOM     17  H   LIG    1       -5.851   2.183  -2.906  0.00  0.00    +0.430 HD
ENDBRANCH   5  14
ENDBRANCH   1   8
BRANCH   3  18
ATOM     18  C   LIG    1        1.048  -0.108   4.097  0.00  0.00    +0.510 C 
ATOM     19  N   LIG    1        2.136   0.099   4.865  0.00  0.00    -0.690 N 
ATOM     20  H   LIG    1        2.709   0.863   4.698  0.00  0.00    +0.420 HD
ATOM     21  O   LIG    1        0.331  -1.065   4.306  0.00  0.00    -0.520 OA
BRANCH  19  22
ATOM     22  C   LIG    1        2.452  -0.831   5.952  0.00  0.00    +0.400 C 
BRANCH  22  23
ATOM     23  C   LIG    1        3.708  -0.377   6.652  0.00  0.00    +0.040 A 
ATOM     24  C   LIG    1        3.673   0.384   7.750  0.00  0.00    -0.040 A 
ATOM     25  S   LIG    1        5.331   0.694   8.260  0.00  0.00    +0.170 S 
ATOM     26  C   LIG    1        5.923  -0.253   6.898  0.00  0.00    +0.140 A 
ATOM     27  N   LIG    1        4.904  -0.701   6.216  0.00  0.00    -0.450 NA
BRANCH  26  28
ATOM     28  C   LIG    1        7.338  -0.501   6.580  0.00  0.00    +0.040 A 
ATOM     29  C   LIG    1        8.409  -0.039   7.285  0.00  0.00    +0.000 A 
ATOM     30  C   LIG    1        9.560  -0.515   6.629  0.00  0.00    -0.050 A 
ATOM     31  C   LIG    1        9.143  -1.235   5.569  0.00  0.00    +0.200 A 
ATOM     32  O   LIG    1        7.801  -1.229   5.545  0.00  0.00    -0.150 OA
ENDBRANCH  26  28
ENDBRANCH  22  23
ENDBRANCH  19  22
ENDBRANCH   3  18
TORSDOF 6
