REMARK  Name = ZINCrH000004pHo4.0
REMARK                            x       y       z     vdW  Elec       q    Type
REMARK                         _______ _______ _______ _____ _____    ______ ____
ROOT
ATOM      1  C   LIG    1       -0.013   1.086   0.008  0.00  0.00    +0.080 C 
ATOM      2  C   LIG    1       -0.729   1.579   1.267  0.00  0.00    +0.030 C 
ATOM      3  C   LIG    1       -2.158   1.057   1.272  0.00  0.00    +0.030 C 
ATOM      4  C   LIG    1       -3.065   1.666   2.307  0.00  0.00    +0.300 C 
ATOM      5  N   LIG    1       -2.661   1.272   3.666  0.00  0.00    -0.570 N 
ATOM      6  C   LIG    1       -1.743   2.082   4.348  0.00  0.00    +0.150 A 
ATOM      7  C   LIG    1       -2.190   2.924   5.359  0.00  0.00    +0.010 A 
ATOM      8  C   LIG    1       -1.307   3.801   5.962  0.00  0.00    +0.040 A 
ATOM      9  C   LIG    1        0.019   3.847   5.573  0.00  0.00    +0.030 A 
ATOM     10  C   LIG    1        0.478   2.996   4.581  0.00  0.00    +0.080 A 
ATOM     11  C   LIG    1       -0.404   2.114   3.986  0.00  0.00    -0.100 A 
ATOM     12  C   LIG    1       -3.162   0.161   4.240  0.00  0.00    +0.540 C 
ATOM     13  O   LIG    1       -3.956  -0.529   3.636  0.00  0.00    -0.520 OA
ATOM     14  S   LIG    1        0.157   0.983   2.736  0.00  0.00    -0.140 S 
ENDROOT
BRANCH  12  15
ATOM     15  C   LIG    1       -2.735  -0.225   5.633  0.00  0.00    +0.040 C 
BRANCH  15  16
ATOM     16  C   LIG    1       -3.445  -1.516   6.045  0.00  0.00    +0.330 C 
BRANCH  16  17
ATOM     17  N   LIG    1       -3.030  -1.891   7.399  0.00  0.00    -0.550 N 
ATOM     18  C   LIG    1       -3.729  -1.431   8.469  0.00  0.00    +0.570 A 
ATOM     19  N   LIG    1       -3.425  -1.718   9.698  0.00  0.00    -0.520 NA
ATOM     20  C   LIG    1       -2.367  -2.512  10.002  0.00  0.00    +0.150 A 
ATOM     21  C   LIG    1       -2.040  -2.821  11.323  0.00  0.00    +0.030 A 
ATOM     22  C   LIG    1       -0.958  -3.632  11.586  0.00  0.00    +0.070 A 
ATOM     23  C   LIG    1       -0.187  -4.146  10.552  0.00  0.00    -0.010 A 
ATOM     24  C   LIG    1       -0.490  -3.855   9.240  0.00  0.00    +0.100 A 
ATOM     25  C   LIG    1       -1.581  -3.038   8.953  0.00  0.00    -0.200 A 
ATOM     26  C   LIG    1       -1.956  -2.697   7.572  0.00  0.00    +0.550 A 
ATOM     27  O   LIG    1       -1.323  -3.121   6.622  0.00  0.00    -0.500 OA
ENDBRANCH  16  17
ENDBRANCH  15  16
ENDBRANCH  12  15
TORSDOF 3
