REMARK  Name = ZINCvU0000000CLT.0
REMARK                            x       y       z     vdW  Elec       q    Type
REMARK                         _______ _______ _______ _____ _____    ______ ____
ROOT
ATOM      1  C   LIG    1        3.890  -0.664  -0.305  0.00  0.00    +0.170 A 
ATOM      2  N   LIG    1        5.061  -0.084  -0.427  0.00  0.00    -0.180 NA
ATOM      3  N   LIG    1        5.357   1.141   0.172  0.00  0.00    -0.370 N 
ATOM      4  C   LIG    1        4.451   1.805   0.918  0.00  0.00    +0.530 A 
ATOM      5  C   LIG    1        3.116   1.224   1.104  0.00  0.00    -0.120 A 
ATOM      6  C   LIG    1        2.134   1.860   1.862  0.00  0.00    +0.100 A 
ATOM      7  C   LIG    1        0.897   1.270   2.004  0.00  0.00    +0.040 A 
ATOM      8  C   LIG    1        0.620   0.051   1.401  0.00  0.00    +0.060 A 
ATOM      9  C   LIG    1        1.576  -0.595   0.647  0.00  0.00    +0.050 A 
ATOM     10  O   LIG    1        4.737   2.873   1.430  0.00  0.00    -0.490 OA
ATOM     11  C   LIG    1        2.834  -0.017   0.490  0.00  0.00    -0.060 A 
ENDROOT
BRANCH   1  14
ATOM     12  C   LIG    1        5.057  -1.150  -2.836  0.00  0.00    +0.150 C 
ATOM     13  C   LIG    1        4.194  -2.196  -2.180  0.00  0.00    -0.210 A 
ATOM     14  C   LIG    1        3.634  -1.958  -0.961  0.00  0.00    +0.190 A 
ATOM     15  O   LIG    1        2.854  -2.854  -0.338  0.00  0.00    -0.200 OA
ATOM     16  C   LIG    1        2.572  -4.061  -0.872  0.00  0.00    +0.160 A 
ATOM     17  C   LIG    1        1.760  -4.967  -0.199  0.00  0.00    -0.050 A 
ATOM     18  C   LIG    1        1.485  -6.196  -0.762  0.00  0.00    +0.120 A 
ATOM     19  C   LIG    1        2.010  -6.541  -2.000  0.00  0.00    -0.060 A 
ATOM     20  C   LIG    1        2.817  -5.655  -2.683  0.00  0.00    +0.150 A 
ATOM     21 CL   LIG    1        1.650  -8.092  -2.690  0.00  0.00    -0.030 Cl
ATOM     22 CL   LIG    1        1.094  -4.553   1.350  0.00  0.00    -0.020 Cl
ATOM     23  C   LIG    1        3.103  -4.411  -2.124  0.00  0.00    -0.200 A 
ATOM     24  C   LIG    1        3.962  -3.435  -2.822  0.00  0.00    +0.430 A 
ATOM     25  O   LIG    1        4.451  -3.685  -3.911  0.00  0.00    -0.440 OA
ENDBRANCH   1  14
BRANCH   3  26
ATOM     26  C   LIG    1        6.629   1.694  -0.005  0.00  0.00    +0.140 A 
ATOM     27  C   LIG    1        6.763   3.022  -0.390  0.00  0.00    +0.040 A 
ATOM     28  C   LIG    1        8.020   3.567  -0.559  0.00  0.00    +0.020 A 
ATOM     29  C   LIG    1        9.146   2.790  -0.356  0.00  0.00    +0.020 A 
ATOM     30  C   LIG    1        9.016   1.466   0.022  0.00  0.00    +0.020 A 
ATOM     31  C   LIG    1        7.762   0.916   0.198  0.00  0.00    +0.030 A 
ENDBRANCH   3  26
TORSDOF 2
