REMARK  Name = ZINCnE00000dEPQL.0
REMARK                            x       y       z     vdW  Elec       q    Type
REMARK                         _______ _______ _______ _____ _____    ______ ____
ROOT
ATOM      1  N   LIG    1       -1.130  -0.809   0.008  0.00  0.00    -0.640 N 
ATOM      2  H   LIG    1       -1.039  -1.774   0.002  0.00  0.00    +0.420 HD
ATOM      3  C   LIG    1       -2.356  -0.248   0.023  0.00  0.00    +0.510 C 
ATOM      4  O   LIG    1       -2.470   0.960   0.031  0.00  0.00    -0.480 OA
ENDROOT
BRANCH   1   8
ATOM      5  C   LIG    1        1.735   1.777  -0.005  0.00  0.00    -0.360 A 
ATOM      6  C   LIG    1        2.243   0.505  -0.017  0.00  0.00    +0.030 A 
ATOM      7  C   LIG    1        1.279  -0.468  -0.013  0.00  0.00    -0.080 A 
ATOM      8  C   LIG    1        0.002  -0.004   0.002  0.00  0.00    +0.040 A 
ATOM      9  C   LIG    1        3.720   0.206  -0.033  0.00  0.00    +0.130 C 
ATOM     10  S   LIG    1       -0.021   1.702   0.011  0.00  0.00    +0.370 S 
BRANCH   5  11
ATOM     11  C   LIG    1        2.504   2.966  -0.006  0.00  0.00    +0.550 C 
ATOM     12  O   LIG    1        3.720   2.905  -0.019  0.00  0.00    -0.510 OA
BRANCH  11  13
ATOM     13  O   LIG    1        1.889   4.168   0.006  0.00  0.00    -0.350 OA
BRANCH  13  15
ATOM     14  C   LIG    1        1.857   6.584   0.019  0.00  0.00    +0.070 C 
ATOM     15  C   LIG    1        2.727   5.325   0.004  0.00  0.00    +0.200 C 
ENDBRANCH  13  15
ENDBRANCH  11  13
ENDBRANCH   5  11
ENDBRANCH   1   8
BRANCH   3  16
ATOM     16  C   LIG    1       -3.584  -1.121   0.029  0.00  0.00    +0.060 C 
BRANCH  16  17
ATOM     17  C   LIG    1       -4.835  -0.240   0.046  0.00  0.00    -0.010 C 
ATOM     18  C   LIG    1       -4.849   0.650  -1.198  0.00  0.00    +0.030 C 
BRANCH  17  19
ATOM     19  C   LIG    1       -4.825   0.636   1.300  0.00  0.00    +0.050 C 
ATOM     20  C   LIG    1       -4.811  -0.255   2.545  0.00  0.00    -0.030 C 
ENDBRANCH  17  19
BRANCH  17  21
ATOM     21  C   LIG    1       -6.082  -1.127   0.053  0.00  0.00    -0.070 C 
BRANCH  21  22
ATOM     22  C   LIG    1       -7.315  -0.260   0.070  0.00  0.00    +0.500 C 
ATOM     23  O   LIG    1       -8.421  -0.772   0.077  0.00  0.00    -0.710 OA
ATOM     24  O   LIG    1       -7.206   0.955   0.075  0.00  0.00    -0.680 OA
ENDBRANCH  21  22
ENDBRANCH  17  21
ENDBRANCH  16  17
ENDBRANCH   3  16
TORSDOF 9
