REMARK  Name = ZINCpk00000e9m0x.0
REMARK                            x       y       z     vdW  Elec       q    Type
REMARK                         _______ _______ _______ _____ _____    ______ ____
ROOT
ATOM      1  C   LIG    1        3.003  -3.291   1.064  0.00  0.00    -0.240 C 
ATOM      2  C   LIG    1        2.486  -2.775  -0.072  0.00  0.00    +0.200 C 
ATOM      3  N   LIG    1        3.250  -2.639  -1.196  0.00  0.00    -0.640 N 
ATOM      4  H   LIG    1        2.837  -2.259  -1.987  0.00  0.00    +0.430 HD
ATOM      5  C   LIG    1        4.537  -3.000  -1.267  0.00  0.00    +0.710 C 
ATOM      6  N   LIG    1        5.191  -3.534  -0.217  0.00  0.00    -0.720 N 
ATOM      7  H   LIG    1        6.125  -3.789  -0.290  0.00  0.00    +0.440 HD
ATOM      8  O   LIG    1        5.136  -2.839  -2.312  0.00  0.00    -0.560 OA
ATOM      9  C   LIG    1        4.455  -3.723   1.045  0.00  0.00    +0.330 C 
ENDROOT
BRANCH   1  10
ATOM     10  C   LIG    1        2.215  -3.427   2.230  0.00  0.00    +0.540 C 
ATOM     11  O   LIG    1        2.313  -2.613   3.130  0.00  0.00    -0.480 OA
BRANCH  10  12
ATOM     12  O   LIG    1        1.353  -4.459   2.346  0.00  0.00    -0.350 OA
BRANCH  12  14
ATOM     13  C   LIG    1       -0.324  -5.761   3.500  0.00  0.00    +0.070 C 
ATOM     14  C   LIG    1        0.589  -4.534   3.551  0.00  0.00    +0.200 C 
ENDBRANCH  12  14
ENDBRANCH  10  12
ENDBRANCH   1  10
BRANCH   2  15
ATOM     15  C   LIG    1        1.045  -2.337  -0.098  0.00  0.00    +0.310 C 
BRANCH  15  16
ATOM     16  O   LIG    1        0.979  -0.900  -0.297  0.00  0.00    -0.350 OA
BRANCH  16  17
ATOM     17  C   LIG    1       -0.249  -0.344  -0.344  0.00  0.00    +0.540 C 
ATOM     18  O   LIG    1       -1.237  -1.041  -0.223  0.00  0.00    -0.500 OA
BRANCH  17  19
ATOM     19  C   LIG    1       -0.392   1.103  -0.542  0.00  0.00    -0.230 A 
ATOM     20  C   LIG    1        0.617   2.011  -0.694  0.00  0.00    +0.340 A 
ATOM     21  N   LIG    1        0.096   3.251  -0.854  0.00  0.00    -0.570 N 
ATOM     22  H   LIG    1        0.619   4.058  -0.979  0.00  0.00    +0.430 HD
ATOM     23  C   LIG    1       -1.282   3.204  -0.814  0.00  0.00    +0.080 A 
ATOM     24  C   LIG    1       -2.271   4.175  -0.926  0.00  0.00    +0.010 A 
ATOM     25  C   LIG    1       -3.599   3.817  -0.844  0.00  0.00    +0.030 A 
ATOM     26  C   LIG    1       -3.963   2.493  -0.650  0.00  0.00    +0.000 A 
ATOM     27  C   LIG    1       -2.998   1.516  -0.536  0.00  0.00    +0.060 A 
ATOM     28  C   LIG    1       -1.653   1.863  -0.624  0.00  0.00    -0.060 A 
ENDBRANCH  17  19
ENDBRANCH  16  17
ENDBRANCH  15  16
ENDBRANCH   2  15
TORSDOF 7
