REMARK  Name = ZINCkj00000y7A4l.0
REMARK                            x       y       z     vdW  Elec       q    Type
REMARK                         _______ _______ _______ _____ _____    ______ ____
ROOT
ATOM      1  N   LIG    1        3.850  -3.112  -0.052  0.00  0.00    -0.640 N 
ATOM      2  H   LIG    1        3.291  -3.902   0.016  0.00  0.00    +0.420 HD
ATOM      3  C   LIG    1        5.186  -3.240  -0.168  0.00  0.00    +0.510 C 
ATOM      4  O   LIG    1        5.893  -2.254  -0.170  0.00  0.00    -0.500 OA
ENDROOT
BRANCH   1  13
ATOM      5  O   LIG    1       -0.499  -1.754  -1.962  0.00  0.00    -0.500 OA
ATOM      6  C   LIG    1       -0.669  -0.572  -1.751  0.00  0.00    +0.680 C 
ATOM      7  N   LIG    1        0.265   0.136  -1.087  0.00  0.00    -0.470 N 
ATOM      8  C   LIG    1        0.182   1.477  -0.790  0.00  0.00    +0.240 A 
ATOM      9  C   LIG    1        1.277   1.865  -0.124  0.00  0.00    +0.000 A 
ATOM     10  C   LIG    1        2.137   0.685   0.023  0.00  0.00    -0.100 A 
ATOM     11  C   LIG    1        3.382   0.465   0.613  0.00  0.00    +0.080 A 
ATOM     12  C   LIG    1        3.937  -0.783   0.584  0.00  0.00    +0.010 A 
ATOM     13  C   LIG    1        3.268  -1.839  -0.031  0.00  0.00    +0.140 A 
ATOM     14  C   LIG    1        2.031  -1.638  -0.621  0.00  0.00    +0.020 A 
ATOM     15  C   LIG    1        1.455  -0.375  -0.599  0.00  0.00    +0.100 A 
ENDBRANCH   1  13
BRANCH   3  16
ATOM     16  C   LIG    1        5.803  -4.609  -0.294  0.00  0.00    +0.180 C 
ATOM     17  C   LIG    1        5.914  -5.290   1.093  0.00  0.00    +0.140 C 
ATOM     18  C   LIG    1        7.194  -4.659   1.687  0.00  0.00    +0.010 C 
ATOM     19  C   LIG    1        8.537  -5.318   1.372  0.00  0.00    +0.150 C 
ATOM     20  C   LIG    1        7.994  -4.154   0.472  0.00  0.00    +0.110 C 
ATOM     21  N   LIG    1        7.218  -4.508  -0.737  0.00  0.00    -0.470 N 
ATOM     22  H   LIG    1        7.313  -3.786  -1.435  0.00  0.00    +0.440 HD
ATOM     23  H   LIG    1        7.532  -5.394  -1.105  0.00  0.00    +0.440 HD
ENDBRANCH   3  16
TORSDOF 2
