REMARK  Name = ZINCkj00000GeQp7.1
REMARK                            x       y       z     vdW  Elec       q    Type
REMARK                         _______ _______ _______ _____ _____    ______ ____
ROOT
ATOM      1  N   LIG    1        1.359   2.034   0.000  0.00  0.00    -0.510 N 
ATOM      2  H   LIG    1        1.806   1.778  -0.868  0.00  0.00    +0.420 HD
ATOM      3  H   LIG    1        1.871   1.635   0.772  0.00  0.00    +0.440 HD
ENDROOT
BRANCH   1   4
ATOM      4  C   LIG    1       -0.019   1.526   0.010  0.00  0.00    +0.170 C 
ATOM      5  C   LIG    1       -0.759   2.033  -1.229  0.00  0.00    +0.110 C 
BRANCH   4   6
ATOM      6  C   LIG    1        0.002  -0.004   0.002  0.00  0.00    +0.380 C 
BRANCH   6  10
ATOM      7  C   LIG    1        0.704  -2.444   4.324  0.00  0.00    +0.120 C 
ATOM      8  C   LIG    1        0.916  -1.551   3.128  0.00  0.00    -0.220 A 
ATOM      9  C   LIG    1        0.040  -1.354   2.116  0.00  0.00    +0.250 A 
ATOM     10  N   LIG    1        0.604  -0.491   1.246  0.00  0.00    -0.410 N 
ATOM     11  N   LIG    1        1.865  -0.139   1.744  0.00  0.00    -0.350 NA
ATOM     12  C   LIG    1        2.051  -0.774   2.872  0.00  0.00    +0.300 A 
ENDBRANCH   6  10
ENDBRANCH   4   6
ENDBRANCH   1   4
BRANCH   1  13
ATOM     13  C   LIG    1        1.343   3.498   0.129  0.00  0.00    +0.410 C 
BRANCH  13  14
ATOM     14  C   LIG    1        2.756   4.019   0.118  0.00  0.00    +0.080 A 
ATOM     15  N   LIG    1        3.522   4.201   1.159  0.00  0.00    -0.230 NA
ATOM     16  N   LIG    1        4.665   4.654   0.783  0.00  0.00    -0.270 NA
ATOM     17  C   LIG    1        4.677   4.791  -0.515  0.00  0.00    +0.260 A 
ATOM     18  N   LIG    1        3.466   4.392  -0.974  0.00  0.00    -0.460 N 
ATOM     19  C   LIG    1        3.016   4.369  -2.368  0.00  0.00    +0.360 C 
BRANCH  17  20
ATOM     20  C   LIG    1        5.825   5.299  -1.349  0.00  0.00    +0.020 C 
ATOM     21  C   LIG    1        7.171   5.502  -0.649  0.00  0.00    +0.080 C 
ATOM     22  C   LIG    1        6.333   6.714  -1.064  0.00  0.00    +0.060 C 
ENDBRANCH  17  20
ENDBRANCH  13  14
ENDBRANCH   1  13
TORSDOF 6
