REMARK  Name = ZINCrH000004tKjQ.0
REMARK                            x       y       z     vdW  Elec       q    Type
REMARK                         _______ _______ _______ _____ _____    ______ ____
ROOT
ATOM      1  O   LIG    1       -0.987  -1.467  -0.925  0.00  0.00    -0.540 OA
ATOM      2  C   LIG    1       -0.940  -1.105  -2.081  0.00  0.00    +0.520 C 
ATOM      3  N   LIG    1       -1.506   0.062  -2.446  0.00  0.00    -0.720 N 
ATOM      4  H   LIG    1       -1.469   0.352  -3.370  0.00  0.00    +0.400 HD
ENDROOT
BRANCH   3   5
ATOM      5  C   LIG    1       -2.180   0.893  -1.445  0.00  0.00    +0.320 C 
BRANCH   5   6
ATOM      6  C   LIG    1       -3.211   1.759  -2.122  0.00  0.00    -0.090 A 
ATOM      7  C   LIG    1       -2.928   2.345  -3.341  0.00  0.00    +0.030 A 
ATOM      8  C   LIG    1       -3.875   3.135  -3.965  0.00  0.00    +0.030 A 
ATOM      9  C   LIG    1       -5.103   3.348  -3.364  0.00  0.00    -0.030 A 
ATOM     10  C   LIG    1       -5.383   2.765  -2.141  0.00  0.00    +0.030 A 
ATOM     11 CL   LIG    1       -6.290   4.346  -4.143  0.00  0.00    -0.070 Cl
ATOM     12  C   LIG    1       -4.438   1.971  -1.520  0.00  0.00    +0.040 A 
ENDBRANCH   5   6
BRANCH   5  13
ATOM     13  C   LIG    1       -1.150   1.781  -0.743  0.00  0.00    -0.060 C 
ATOM     14  C   LIG    1       -0.013   1.086   0.008  0.00  0.00    +0.030 C 
ATOM     15  C   LIG    1       -1.136   1.773   0.788  0.00  0.00    +0.020 C 
ENDBRANCH   5  13
ENDBRANCH   3   5
BRANCH   2  16
ATOM     16  C   LIG    1       -0.247  -1.960  -3.111  0.00  0.00    +0.100 C 
BRANCH  16  17
ATOM     17  C   LIG    1        0.305  -3.220  -2.440  0.00  0.00    +0.150 C 
BRANCH  17  18
ATOM     18  C   LIG    1        0.998  -4.075  -3.470  0.00  0.00    +0.450 A 
ATOM     19  N   LIG    1        1.024  -3.656  -4.704  0.00  0.00    -0.600 NA
ATOM     20  C   LIG    1        1.629  -4.361  -5.679  0.00  0.00    +0.530 A 
ATOM     21  C   LIG    1        2.260  -5.643  -5.318  0.00  0.00    -0.210 A 
ATOM     22  C   LIG    1        2.903  -6.442  -6.260  0.00  0.00    +0.110 A 
ATOM     23  C   LIG    1        3.475  -7.631  -5.863  0.00  0.00    -0.010 A 
ATOM     24  C   LIG    1        3.413  -8.033  -4.536  0.00  0.00    +0.080 A 
ATOM     25  C   LIG    1        2.780  -7.252  -3.592  0.00  0.00    -0.020 A 
ATOM     26  C   LIG    1        2.197  -6.051  -3.973  0.00  0.00    +0.170 A 
ATOM     27  O   LIG    1        1.649  -3.953  -6.828  0.00  0.00    -0.480 OA
ATOM     28  N   LIG    1        1.551  -5.232  -3.068  0.00  0.00    -0.620 N 
ATOM     29  H   LIG    1        1.497  -5.494  -2.136  0.00  0.00    +0.420 HD
ENDBRANCH  17  18
ENDBRANCH  16  17
ENDBRANCH   2  16
TORSDOF 6
