REMARK  Name = ZINCkj000018RARU.1
REMARK                            x       y       z     vdW  Elec       q    Type
REMARK                         _______ _______ _______ _____ _____    ______ ____
ROOT
ATOM      1  C   LIG    1        3.319   5.974   0.699  0.00  0.00    -0.060 C 
ATOM      2  C   LIG    1        4.574   6.037   1.517  0.00  0.00    +0.030 C 
ATOM      3  C   LIG    1        5.734   5.283   0.873  0.00  0.00    +0.220 C 
ATOM      4  O   LIG    1        5.875   5.777  -0.466  0.00  0.00    -0.360 OA
ATOM      5  C   LIG    1        4.801   5.380  -1.306  0.00  0.00    +0.230 C 
ATOM      6  C   LIG    1        2.366   4.855   1.149  0.00  0.00    +0.220 C 
ATOM      7  N   LIG    1        2.324   3.910   0.001  0.00  0.00    -0.480 NA
ATOM      8  C   LIG    1        2.396   4.786  -1.199  0.00  0.00    +0.220 C 
ATOM      9  C   LIG    1        3.451   5.859  -0.807  0.00  0.00    +0.020 C 
ENDROOT
BRANCH   7  10
ATOM     10  C   LIG    1        1.146   3.169   0.008  0.00  0.00    +0.220 C 
ATOM     11  C   LIG    1       -0.097   3.800   0.023  0.00  0.00    +0.030 C 
ATOM     12  C   LIG    1       -1.241   3.030   0.030  0.00  0.00    +0.370 C 
ATOM     13  N   LIG    1       -1.169   1.712   0.017  0.00  0.00    -0.440 NA
ATOM     14  C   LIG    1       -0.013   1.076   0.008  0.00  0.00    +0.370 C 
ATOM     15  H   LIG    1       -1.991   1.196   0.018  0.00  0.00    +0.460 HD
ATOM     16  C   LIG    1        1.178   1.773   0.000  0.00  0.00    -0.050 C 
ATOM     17 CL   LIG    1        2.694   0.927  -0.019  0.00  0.00    +0.050 Cl
ENDBRANCH   7  10
BRANCH   1  21
ATOM     18  C   LIG    1        1.578   8.882   2.479  0.00  0.00    +0.290 C 
ATOM     19  N   LIG    1        2.302   7.634   2.226  0.00  0.00    -0.730 N 
ATOM     20  H   LIG    1        2.587   7.079   2.968  0.00  0.00    +0.400 HD
ATOM     21  C   LIG    1        2.573   7.258   0.960  0.00  0.00    +0.510 C 
ATOM     22  O   LIG    1        2.217   7.952   0.032  0.00  0.00    -0.520 OA
ENDBRANCH   1  21
TORSDOF 2
