REMARK  Name = ZINCqH0000008oKN.0
REMARK                            x       y       z     vdW  Elec       q    Type
REMARK                         _______ _______ _______ _____ _____    ______ ____
ROOT
ATOM      1  C   LIG    1        3.557   1.791  -0.110  0.00  0.00    +0.510 C 
ATOM      2  N   LIG    1        2.403   1.104  -0.001  0.00  0.00    -0.660 N 
ATOM      3  H   LIG    1        2.419   0.136   0.056  0.00  0.00    +0.420 HD
ATOM      4  O   LIG    1        3.545   3.004  -0.097  0.00  0.00    -0.510 OA
ENDROOT
BRANCH   2   5
ATOM      5  C   LIG    1        1.181   1.788   0.031  0.00  0.00    +0.130 A 
ATOM      6  C   LIG    1        0.057   1.230  -0.562  0.00  0.00    +0.040 A 
ATOM      7  C   LIG    1       -1.146   1.907  -0.536  0.00  0.00    -0.030 A 
ATOM      8  C   LIG    1       -1.234   3.140   0.093  0.00  0.00    +0.090 A 
ATOM      9  C   LIG    1       -0.112   3.699   0.686  0.00  0.00    +0.040 A 
ATOM     10  C   LIG    1        1.093   3.025   0.656  0.00  0.00    +0.070 A 
BRANCH   8  11
ATOM     11  O   LIG    1       -2.421   3.804   0.124  0.00  0.00    -0.310 OA
BRANCH  11  12
ATOM     12  C   LIG    1       -3.535   3.171  -0.507  0.00  0.00    +0.600 C 
ATOM     13  F   LIG    1       -3.252   2.969  -1.862  0.00  0.00    -0.160 F 
ATOM     14  F   LIG    1       -4.666   3.985  -0.383  0.00  0.00    -0.130 F 
ATOM     15  F   LIG    1       -3.779   1.937   0.107  0.00  0.00    -0.160 F 
ENDBRANCH  11  12
ENDBRANCH   8  11
ENDBRANCH   2   5
BRANCH   1  17
ATOM     16  C   LIG    1        4.828   0.187  -1.510  0.00  0.00    +0.060 C 
ATOM     17  C   LIG    1        4.864   1.053  -0.250  0.00  0.00    +0.270 C 
BRANCH  17  18
ATOM     18  N   LIG    1        5.962   2.017  -0.351  0.00  0.00    -0.730 N 
ATOM     19  H   LIG    1        5.791   2.913  -0.681  0.00  0.00    +0.410 HD
ATOM     20  C   LIG    1        7.208   1.660   0.016  0.00  0.00    +0.710 C 
ATOM     21  N   LIG    1        8.219   2.547  -0.077  0.00  0.00    -0.680 N 
ATOM     22  H   LIG    1        8.037   3.462  -0.344  0.00  0.00    +0.410 HD
ATOM     23  O   LIG    1        7.422   0.537   0.430  0.00  0.00    -0.570 OA
BRANCH  21  24
ATOM     24  C   LIG    1        9.529   2.149   0.210  0.00  0.00    +0.160 A 
ATOM     25  C   LIG    1        9.769   1.220   1.214  0.00  0.00    +0.020 A 
ATOM     26  C   LIG    1       11.063   0.825   1.492  0.00  0.00    +0.030 A 
ATOM     27  C   LIG    1       12.120   1.362   0.780  0.00  0.00    -0.020 A 
ATOM     28  C   LIG    1       11.884   2.291  -0.217  0.00  0.00    +0.030 A 
ATOM     29  C   LIG    1       10.592   2.686  -0.503  0.00  0.00    -0.030 A 
ENDBRANCH  21  24
ENDBRANCH  17  18
ENDBRANCH   1  17
TORSDOF 6
