REMARK  Name = ZINCtV00001bB371.0
REMARK                            x       y       z     vdW  Elec       q    Type
REMARK                         _______ _______ _______ _____ _____    ______ ____
ROOT
ATOM      1  C   LIG    1        1.449  -0.457   0.133  0.00  0.00    -0.090 A 
ATOM      2  C   LIG    1        2.682   0.101   0.495  0.00  0.00    +0.050 A 
ATOM      3  C   LIG    1        3.816  -0.658   0.436  0.00  0.00    +0.010 A 
ATOM      4  C   LIG    1        3.749  -1.981   0.005  0.00  0.00    +0.170 A 
ATOM      5  C   LIG    1        2.526  -2.538  -0.361  0.00  0.00    +0.010 A 
ATOM      6  C   LIG    1        1.386  -1.788  -0.299  0.00  0.00    +0.050 A 
ENDROOT
BRANCH   1   8
ATOM      7  C   LIG    1        0.289   1.639   0.620  0.00  0.00    -0.120 C 
ATOM      8  C   LIG    1        0.227   0.353   0.202  0.00  0.00    +0.150 C 
BRANCH   7  10
ATOM      9  O   LIG    1       -1.959   1.939   0.356  0.00  0.00    -0.460 OA
ATOM     10  C   LIG    1       -0.890   2.422   0.680  0.00  0.00    +0.430 C 
BRANCH  10  11
ATOM     11  C   LIG    1       -0.822   3.828   1.137  0.00  0.00    -0.210 A 
ATOM     12  C   LIG    1       -1.979   4.612   1.201  0.00  0.00    +0.130 A 
ATOM     13  C   LIG    1       -1.861   5.921   1.636  0.00  0.00    -0.040 A 
ATOM     14  C   LIG    1       -0.616   6.407   1.990  0.00  0.00    +0.290 A 
ATOM     15  N   LIG    1        0.459   5.644   1.919  0.00  0.00    -0.490 NA
ATOM     16  C   LIG    1        0.397   4.392   1.517  0.00  0.00    +0.300 A 
ENDBRANCH  10  11
ENDBRANCH   7  10
ENDBRANCH   1   8
BRANCH   4  17
ATOM     17  N   LIG    1        4.909  -2.749  -0.060  0.00  0.00    -0.540 N 
BRANCH  17  18
ATOM     18  C   LIG    1        5.113  -3.785   0.856  0.00  0.00    +0.200 A 
ATOM     19  C   LIG    1        4.222  -3.972   1.906  0.00  0.00    -0.060 A 
ATOM     20  C   LIG    1        4.424  -5.000   2.806  0.00  0.00    +0.040 A 
ATOM     21  C   LIG    1        5.518  -5.836   2.669  0.00  0.00    -0.040 A 
ATOM     22  C   LIG    1        6.409  -5.649   1.628  0.00  0.00    +0.040 A 
ATOM     23  C   LIG    1        6.210  -4.626   0.722  0.00  0.00    -0.050 A 
ENDBRANCH  17  18
BRANCH  17  24
ATOM     24  C   LIG    1        5.868  -2.484  -1.041  0.00  0.00    +0.150 A 
ATOM     25  C   LIG    1        7.085  -1.912  -0.689  0.00  0.00    +0.000 A 
ATOM     26  C   LIG    1        8.033  -1.657  -1.660  0.00  0.00    +0.020 A 
ATOM     27  C   LIG    1        7.768  -1.959  -2.983  0.00  0.00    +0.010 A 
ATOM     28  C   LIG    1        6.556  -2.522  -3.338  0.00  0.00    +0.020 A 
ATOM     29  C   LIG    1        5.606  -2.786  -2.372  0.00  0.00    +0.000 A 
ENDBRANCH  17  24
ENDBRANCH   4  17
TORSDOF 6
