REMARK  Name = ZINCrH000004oZ3C.0
REMARK                            x       y       z     vdW  Elec       q    Type
REMARK                         _______ _______ _______ _____ _____    ______ ____
ROOT
ATOM      1  C   LIG    1       -4.332  10.512  -0.433  0.00  0.00    +0.100 C 
ATOM      2  C   LIG    1       -3.195   9.549  -0.088  0.00  0.00    +0.170 C 
ATOM      3  N   LIG    1       -3.138   9.307   1.364  0.00  0.00    -0.710 N 
ATOM      4  H   LIG    1       -2.980   9.969   2.056  0.00  0.00    +0.440 HD
ATOM      5  C   LIG    1       -3.352   7.992   1.544  0.00  0.00    +0.710 C 
ATOM      6  N   LIG    1       -3.534   7.341   0.389  0.00  0.00    -0.560 N 
ATOM      7  O   LIG    1       -3.375   7.453   2.633  0.00  0.00    -0.540 OA
ATOM      8  C   LIG    1       -3.465   8.175  -0.668  0.00  0.00    +0.530 C 
ATOM      9  O   LIG    1       -3.593   7.886  -1.838  0.00  0.00    -0.430 OA
ENDROOT
BRANCH   2  10
ATOM     10  C   LIG    1       -1.878  10.086  -0.589  0.00  0.00    -0.070 A 
ATOM     11  C   LIG    1       -0.875  10.401   0.308  0.00  0.00    +0.040 A 
ATOM     12  C   LIG    1        0.335  10.889  -0.151  0.00  0.00    +0.040 A 
ATOM     13  C   LIG    1        0.537  11.072  -1.506  0.00  0.00    +0.040 A 
ATOM     14  C   LIG    1       -0.468  10.761  -2.403  0.00  0.00    +0.050 A 
ATOM     15  C   LIG    1       -1.676  10.268  -1.945  0.00  0.00    -0.080 A 
ATOM     16 BR   LIG    1       -3.051   9.844  -3.172  0.00  0.00    -0.010 Br
ENDBRANCH   2  10
BRANCH   6  17
ATOM     17  C   LIG    1       -3.785   5.901   0.286  0.00  0.00    +0.370 C 
BRANCH  17  18
ATOM     18  C   LIG    1       -2.473   5.171   0.156  0.00  0.00    +0.500 C 
ATOM     19  N   LIG    1       -2.457   3.828   0.046  0.00  0.00    -0.660 N 
ATOM     20  H   LIG    1       -3.290   3.338  -0.030  0.00  0.00    +0.420 HD
ATOM     21  O   LIG    1       -1.431   5.793   0.150  0.00  0.00    -0.500 OA
BRANCH  19  22
ATOM     22  C   LIG    1       -1.237   3.140   0.042  0.00  0.00    +0.140 A 
ATOM     23  C   LIG    1       -0.119   3.703   0.642  0.00  0.00    +0.060 A 
ATOM     24  C   LIG    1        1.083   3.022   0.637  0.00  0.00    +0.080 A 
ATOM     25  C   LIG    1        1.175   1.781   0.034  0.00  0.00    -0.080 A 
ATOM     26  C   LIG    1        0.063   1.216  -0.565  0.00  0.00    +0.050 A 
ATOM     27 BR   LIG    1        2.823   0.854   0.030  0.00  0.00    -0.030 Br
ATOM     28  C   LIG    1       -1.141   1.894  -0.568  0.00  0.00    +0.080 A 
ATOM     29  F   LIG    1       -2.225   1.345  -1.159  0.00  0.00    -0.130 F 
ENDBRANCH  19  22
ENDBRANCH  17  18
ENDBRANCH   6  17
TORSDOF 4
