REMARK  Name = ZINCkj000005ktKg.0
REMARK                            x       y       z     vdW  Elec       q    Type
REMARK                         _______ _______ _______ _____ _____    ______ ____
ROOT
ATOM      1  N   LIG    1       -2.361   1.020  -0.500  0.00  0.00    -0.290 N 
ATOM      2  C   LIG    1       -2.441  -0.313  -0.666  0.00  0.00    +0.330 A 
ATOM      3  C   LIG    1       -3.767  -0.621  -0.897  0.00  0.00    -0.300 A 
ATOM      4  C   LIG    1       -4.488   0.594  -0.872  0.00  0.00    +0.260 A 
ATOM      5  N   LIG    1       -3.645   1.560  -0.635  0.00  0.00    -0.270 NA
ENDROOT
BRANCH   1  12
ATOM      6  C   LIG    1       -2.596   3.799   0.069  0.00  0.00    +0.100 C 
ATOM      7  C   LIG    1       -1.260   3.103   0.041  0.00  0.00    -0.070 A 
ATOM      8  C   LIG    1       -0.104   3.815   0.290  0.00  0.00    +0.040 A 
ATOM      9  C   LIG    1        1.123   3.177   0.265  0.00  0.00    +0.030 A 
ATOM     10  C   LIG    1        1.195   1.823  -0.009  0.00  0.00    +0.040 A 
ATOM     11  C   LIG    1        0.042   1.105  -0.260  0.00  0.00    +0.000 A 
ATOM     12  C   LIG    1       -1.190   1.744  -0.241  0.00  0.00    +0.120 A 
ENDBRANCH   1  12
BRANCH   3  13
ATOM     13  C   LIG    1       -4.324  -1.966  -1.133  0.00  0.00    +0.620 C 
ATOM     14  N   LIG    1       -5.645  -2.118  -1.351  0.00  0.00    -0.620 N 
ATOM     15  C   LIG    1       -6.639  -1.036  -1.383  0.00  0.00    +0.280 C 
ATOM     16  C   LIG    1       -8.008  -1.679  -1.692  0.00  0.00    +0.070 C 
ATOM     17  C   LIG    1       -7.617  -3.015  -2.377  0.00  0.00    +0.160 C 
ATOM     18  C   LIG    1       -6.332  -3.398  -1.606  0.00  0.00    +0.300 C 
ATOM     19  O   LIG    1       -3.592  -2.937  -1.130  0.00  0.00    -0.530 OA
BRANCH  17  20
ATOM     20  N   LIG    1       -8.666  -4.027  -2.194  0.00  0.00    -0.630 N 
ATOM     21  H   LIG    1       -8.802  -4.196  -1.209  0.00  0.00    +0.440 HD
ATOM     22  H   LIG    1       -8.388  -4.885  -2.648  0.00  0.00    +0.440 HD
ATOM     23  H   LIG    1       -9.528  -3.695  -2.600  0.00  0.00    +0.440 HD
ENDBRANCH  17  20
ENDBRANCH   3  13
TORSDOF 3
