REMARK  Name = ZINCrH000004vGgl.0
REMARK                            x       y       z     vdW  Elec       q    Type
REMARK                         _______ _______ _______ _____ _____    ______ ____
ROOT
ATOM      1  O   LIG    1       -1.173   3.347  -0.087  0.00  0.00    -0.490 OA
ATOM      2  C   LIG    1       -1.187   2.136   0.019  0.00  0.00    +0.600 C 
ATOM      3  N   LIG    1       -0.038   1.466   0.237  0.00  0.00    -0.600 N 
ATOM      4  C   LIG    1       -0.054   0.025   0.523  0.00  0.00    +0.290 C 
ATOM      5  C   LIG    1        0.721  -0.229   1.820  0.00  0.00    +0.030 C 
ATOM      6  C   LIG    1        2.123   0.371   1.697  0.00  0.00    +0.030 C 
ATOM      7  C   LIG    1        2.016   1.883   1.486  0.00  0.00    +0.260 C 
ATOM      8  C   LIG    1        1.256   2.161   0.186  0.00  0.00    +0.300 C 
ENDROOT
BRANCH   2   9
ATOM      9  C   LIG    1       -2.463   1.399  -0.090  0.00  0.00    +0.090 A 
ATOM     10  N   LIG    1       -2.595   0.080  -0.108  0.00  0.00    -0.280 NA
ATOM     11  N   LIG    1       -3.954  -0.236  -0.221  0.00  0.00    -0.260 N 
ATOM     12  C   LIG    1       -4.617  -1.429  -0.282  0.00  0.00    +0.290 A 
ATOM     13  C   LIG    1       -5.961  -1.466  -0.393  0.00  0.00    +0.010 A 
ATOM     14  C   LIG    1       -6.704  -0.274  -0.448  0.00  0.00    +0.080 A 
ATOM     15  C   LIG    1       -6.059   0.923  -0.388  0.00  0.00    +0.050 A 
ATOM     16  C   LIG    1       -4.655   0.943  -0.273  0.00  0.00    +0.140 A 
ATOM     17  C   LIG    1       -3.733   1.976  -0.186  0.00  0.00    -0.210 A 
ATOM     18 BR   LIG    1       -4.122   3.826  -0.200  0.00  0.00    +0.020 Br
ENDBRANCH   2   9
BRANCH   7  19
ATOM     19  N   LIG    1        3.360   2.462   1.401  0.00  0.00    -0.350 N 
ATOM     20  C   LIG    1        4.124   2.534   0.291  0.00  0.00    +0.250 A 
ATOM     21  C   LIG    1        5.286   3.138   0.629  0.00  0.00    -0.070 A 
ATOM     22  C   LIG    1        5.235   3.437   1.994  0.00  0.00    -0.020 A 
ATOM     23  N   LIG    1        4.080   3.032   2.458  0.00  0.00    -0.230 NA
BRANCH  22  24
ATOM     24  C   LIG    1        6.321   4.110   2.793  0.00  0.00    +0.560 C 
ATOM     25  F   LIG    1        6.497   5.419   2.330  0.00  0.00    -0.170 F 
ATOM     26  F   LIG    1        7.516   3.399   2.647  0.00  0.00    -0.170 F 
ATOM     27  F   LIG    1        5.957   4.138   4.144  0.00  0.00    -0.170 F 
ENDBRANCH  22  24
ENDBRANCH   7  19
TORSDOF 3
