REMARK  Name = ZINCrH000004sKFR.0
REMARK                            x       y       z     vdW  Elec       q    Type
REMARK                         _______ _______ _______ _____ _____    ______ ____
ROOT
ATOM      1  C   LIG    1        0.030  -3.252  -1.701  0.00  0.00    +0.170 C 
ATOM      2  C   LIG    1        0.023  -2.066  -0.771  0.00  0.00    +0.140 A 
ATOM      3  N   LIG    1       -0.004  -0.819  -1.134  0.00  0.00    -0.260 NA
ATOM      4  N   LIG    1        0.002  -0.004   0.002  0.00  0.00    -0.340 N 
ATOM      5  C   LIG    1        0.024  -0.813   1.104  0.00  0.00    +0.040 A 
ATOM      6  S   LIG    1        0.039  -0.784   2.863  0.00  0.00    +0.180 S 
ATOM      7  C   LIG    1        0.064  -2.538   2.937  0.00  0.00    -0.280 A 
ATOM      8  C   LIG    1        0.060  -3.058   1.700  0.00  0.00    +0.200 A 
ATOM      9  C   LIG    1        0.037  -2.124   0.657  0.00  0.00    -0.230 A 
ENDROOT
BRANCH   7  10
ATOM     10  C   LIG    1        0.087  -3.323   4.174  0.00  0.00    +0.600 C 
ATOM     11  N   LIG    1        0.090  -2.698   5.369  0.00  0.00    -0.720 N 
ATOM     12  H   LIG    1        0.077  -1.729   5.409  0.00  0.00    +0.410 HD
ATOM     13  O   LIG    1        0.103  -4.539   4.124  0.00  0.00    -0.510 OA
BRANCH  11  14
ATOM     14  C   LIG    1        0.112  -3.482   6.606  0.00  0.00    +0.290 C 
ATOM     15  C   LIG    1        0.222  -2.528   7.795  0.00  0.00    +0.090 C 
ATOM     16  C   LIG    1       -1.205  -2.151   8.273  0.00  0.00    +0.150 C 
ATOM     17  S   LIG    1       -2.052  -3.780   8.158  0.00  0.00    -0.260 S 
ATOM     18  C   LIG    1       -1.153  -4.353   6.666  0.00  0.00    +0.160 C 
BRANCH  14  19
ATOM     19  C   LIG    1        1.294  -4.360   6.591  0.00  0.00    +0.200 C 
ATOM     20  N   LIG    1        2.207  -5.037   6.580  0.00  0.00    -0.380 NA
ENDBRANCH  14  19
ENDBRANCH  11  14
ENDBRANCH   7  10
BRANCH   4  21
ATOM     21  C   LIG    1       -0.018   1.461   0.010  0.00  0.00    +0.410 C 
BRANCH  21  22
ATOM     22  C   LIG    1        1.396   1.982  -0.001  0.00  0.00    -0.140 A 
ATOM     23  C   LIG    1        2.053   2.220   1.192  0.00  0.00    +0.060 A 
ATOM     24  C   LIG    1        3.352   2.693   1.183  0.00  0.00    -0.010 A 
ATOM     25  C   LIG    1        3.990   2.940  -0.020  0.00  0.00    +0.110 A 
ATOM     26  C   LIG    1        3.329   2.707  -1.214  0.00  0.00    -0.020 A 
ATOM     27  F   LIG    1        5.258   3.409  -0.030  0.00  0.00    -0.130 F 
ATOM     28  C   LIG    1        2.033   2.228  -1.203  0.00  0.00    +0.080 A 
ENDBRANCH  21  22
ENDBRANCH   4  21
TORSDOF 5
