REMARK  Name = ZINCpk00001AZj0y.0
REMARK                            x       y       z     vdW  Elec       q    Type
REMARK                         _______ _______ _______ _____ _____    ______ ____
ROOT
ATOM      1  N   LIG    1        4.465   4.709  -4.272  0.00  0.00    -0.460 N 
ATOM      2  C   LIG    1        3.580   3.929  -4.956  0.00  0.00    +0.510 A 
ATOM      3  N   LIG    1        2.832   3.268  -4.122  0.00  0.00    -0.450 NA
ATOM      4  C   LIG    1        3.188   3.580  -2.852  0.00  0.00    -0.050 A 
ATOM      5  C   LIG    1        2.746   3.188  -1.577  0.00  0.00    +0.430 A 
ATOM      6  N   LIG    1        3.339   3.716  -0.511  0.00  0.00    -0.550 NA
ATOM      7  C   LIG    1        4.329   4.582  -0.637  0.00  0.00    +0.410 A 
ATOM      8  N   LIG    1        4.776   4.978  -1.812  0.00  0.00    -0.510 NA
ATOM      9 CL   LIG    1        5.063   5.227   0.798  0.00  0.00    +0.040 Cl
ATOM     10  C   LIG    1        4.240   4.508  -2.934  0.00  0.00    +0.300 A 
ENDROOT
BRANCH   5  11
ATOM     11  N   LIG    1        1.714   2.278  -1.435  0.00  0.00    -0.440 N 
ATOM     12  C   LIG    1        0.442   2.828  -1.971  0.00  0.00    +0.250 C 
ATOM     13  C   LIG    1       -0.661   1.996  -1.280  0.00  0.00    +0.050 C 
ATOM     14  C   LIG    1       -1.868   2.910  -0.993  0.00  0.00    -0.280 C 
ATOM     15  S   LIG    1       -2.435   2.340   0.659  0.00  0.00    +2.380 S 
ATOM     16  C   LIG    1       -0.739   1.982   1.271  0.00  0.00    -0.270 C 
ATOM     17  O   LIG    1       -3.164   1.127   0.526  0.00  0.00    -0.910 OA
ATOM     18  O   LIG    1       -2.988   3.431   1.382  0.00  0.00    -0.920 OA
ATOM     19  C   LIG    1       -0.018   1.468   0.010  0.00  0.00    +0.040 C 
ATOM     20  C   LIG    1        1.424   2.020  -0.001  0.00  0.00    +0.280 C 
BRANCH  19  21
ATOM     21  C   LIG    1        0.002  -0.004   0.002  0.00  0.00    +0.200 C 
ATOM     22  N   LIG    1        0.018  -1.140  -0.004  0.00  0.00    -0.390 NA
ENDBRANCH  19  21
ENDBRANCH   5  11
BRANCH   1  24
ATOM     23  C   LIG    1        6.432   4.779  -5.724  0.00  0.00    +0.060 C 
ATOM     24  C   LIG    1        5.472   5.597  -4.858  0.00  0.00    +0.240 C 
ATOM     25  C   LIG    1        4.779   6.652  -5.723  0.00  0.00    +0.060 C 
ENDBRANCH   1  24
TORSDOF 3
