REMARK  Name = ZINCpk00000y6vPq.0
REMARK                            x       y       z     vdW  Elec       q    Type
REMARK                         _______ _______ _______ _____ _____    ______ ____
ROOT
ATOM      1  O   LIG    1        0.814   8.824   1.006  0.00  0.00    -0.530 OA
ATOM      2  C   LIG    1        0.605   8.892  -0.189  0.00  0.00    +0.560 C 
ATOM      3  N   LIG    1        0.266   7.784  -0.878  0.00  0.00    -0.720 N 
ATOM      4  H   LIG    1        0.099   7.839  -1.832  0.00  0.00    +0.400 HD
ENDROOT
BRANCH   2   5
ATOM      5  C   LIG    1        0.722  10.190  -0.887  0.00  0.00    -0.110 A 
ATOM      6  C   LIG    1        0.482  10.271  -2.260  0.00  0.00    +0.020 A 
ATOM      7  C   LIG    1        0.592  11.484  -2.910  0.00  0.00    +0.040 A 
ATOM      8  C   LIG    1        0.939  12.621  -2.205  0.00  0.00    +0.000 A 
ATOM      9  C   LIG    1        1.180  12.551  -0.838  0.00  0.00    +0.160 A 
ATOM     10  C   LIG    1        1.067  11.339  -0.176  0.00  0.00    +0.070 A 
BRANCH   9  11
ATOM     11  N   LIG    1        1.532  13.706  -0.130  0.00  0.00    -0.560 N 
ATOM     12  C   LIG    1        1.792  15.011  -0.750  0.00  0.00    +0.260 C 
ATOM     13  C   LIG    1        2.547  15.831   0.319  0.00  0.00    +0.060 C 
ATOM     14  C   LIG    1        2.069  15.160   1.628  0.00  0.00    +0.070 C 
ATOM     15  C   LIG    1        1.670  13.764   1.206  0.00  0.00    +0.510 C 
ATOM     16  O   LIG    1        1.501  12.831   1.963  0.00  0.00    -0.500 OA
ENDBRANCH   9  11
ENDBRANCH   2   5
BRANCH   3  17
ATOM     17  C   LIG    1        0.150   6.498  -0.186  0.00  0.00    +0.300 C 
BRANCH  17  18
ATOM     18  C   LIG    1       -0.243   5.413  -1.190  0.00  0.00    +0.160 C 
ATOM     19  C   LIG    1       -0.481   4.093  -0.450  0.00  0.00    +0.160 C 
ATOM     20  N   LIG    1       -0.783   3.038  -1.427  0.00  0.00    -0.500 NA
ATOM     21  C   LIG    1        0.320   2.885  -2.387  0.00  0.00    +0.160 C 
ATOM     22  C   LIG    1        0.550   4.216  -3.107  0.00  0.00    +0.220 C 
ATOM     23  O   LIG    1        0.811   5.237  -2.140  0.00  0.00    -0.380 OA
BRANCH  20  24
ATOM     24  C   LIG    1       -1.075   1.765  -0.754  0.00  0.00    +0.150 C 
ATOM     25  C   LIG    1        0.076   1.075  -0.018  0.00  0.00    -0.020 C 
ATOM     26  C   LIG    1       -1.043   1.752   0.776  0.00  0.00    +0.010 C 
ENDBRANCH  20  24
ENDBRANCH  17  18
ENDBRANCH   3  17
TORSDOF 5
