REMARK  Name = ZINCrD00000f9iDx.0
REMARK                            x       y       z     vdW  Elec       q    Type
REMARK                         _______ _______ _______ _____ _____    ______ ____
ROOT
ATOM      1  N   LIG    1        1.702  -2.208   0.255  0.00  0.00    -0.680 N 
ATOM      2  H   LIG    1        2.618  -2.519   0.180  0.00  0.00    +0.410 HD
ATOM      3  C   LIG    1        0.709  -3.089   0.489  0.00  0.00    +0.700 C 
ATOM      4  N   LIG    1        0.972  -4.414   0.509  0.00  0.00    -0.610 N 
ATOM      5  C   LIG    1        2.370  -4.853   0.351  0.00  0.00    +0.260 C 
ATOM      6  C   LIG    1        2.952  -5.049   1.728  0.00  0.00    +0.190 C 
ATOM      7  O   LIG    1        2.505  -6.247   2.363  0.00  0.00    -0.380 OA
ATOM      8  C   LIG    1        1.390  -6.946   1.786  0.00  0.00    +0.220 C 
ATOM      9  C   LIG    1        0.075  -6.209   1.902  0.00  0.00    -0.100 C 
ATOM     10  C   LIG    1       -1.083  -7.210   1.956  0.00  0.00    +0.020 C 
ATOM     11  C   LIG    1       -2.402  -6.465   2.160  0.00  0.00    +0.210 C 
ATOM     12  O   LIG    1       -2.328  -5.678   3.350  0.00  0.00    -0.380 OA
ATOM     13  C   LIG    1       -1.308  -4.678   3.325  0.00  0.00    +0.210 C 
ATOM     14  C   LIG    1        0.059  -5.345   3.163  0.00  0.00    +0.010 C 
ATOM     15  C   LIG    1       -0.106  -5.311   0.657  0.00  0.00    +0.290 C 
ATOM     16  O   LIG    1       -0.423  -2.691   0.684  0.00  0.00    -0.550 OA
ENDROOT
BRANCH   1  21
ATOM     17  C   LIG    1        0.550   3.330  -0.287  0.00  0.00    +0.090 C 
ATOM     18  C   LIG    1        0.853   1.861  -0.145  0.00  0.00    -0.070 A 
ATOM     19  C   LIG    1        2.029   1.453   0.450  0.00  0.00    +0.040 A 
ATOM     20  C   LIG    1        2.311   0.106   0.582  0.00  0.00    +0.010 A 
ATOM     21  C   LIG    1        1.412  -0.846   0.118  0.00  0.00    +0.160 A 
ATOM     22  C   LIG    1        0.227  -0.447  -0.481  0.00  0.00    +0.070 A 
ATOM     23  C   LIG    1       -0.057   0.912  -0.615  0.00  0.00    -0.000 A 
BRANCH  23  24
ATOM     24  C   LIG    1       -1.318   1.346  -1.253  0.00  0.00    +0.230 A 
ATOM     25  N   LIG    1       -2.518   0.905  -0.957  0.00  0.00    -0.460 NA
ATOM     26  C   LIG    1       -3.410   1.531  -1.740  0.00  0.00    +0.150 A 
ATOM     27  C   LIG    1       -2.735   2.372  -2.543  0.00  0.00    +0.150 A 
ATOM     28  O   LIG    1       -1.428   2.255  -2.237  0.00  0.00    -0.190 OA
ENDBRANCH  23  24
ENDBRANCH   1  21
TORSDOF 2
