REMARK  Name = ZINCpk00000eblWh.0
REMARK                            x       y       z     vdW  Elec       q    Type
REMARK                         _______ _______ _______ _____ _____    ______ ____
ROOT
ATOM      1  C   LIG    1        2.305   1.306   0.491  0.00  0.00    +0.630 A 
ATOM      2  N   LIG    1        1.148   1.964   0.495  0.00  0.00    -0.610 NA
ATOM      3  C   LIG    1        0.012   1.309   0.331  0.00  0.00    +0.440 A 
ATOM      4  N   LIG    1        0.020  -0.002   0.162  0.00  0.00    -0.610 NA
ATOM      5  C   LIG    1        1.173  -0.667   0.157  0.00  0.00    +0.630 A 
ATOM      6  N   LIG    1        2.317  -0.011   0.321  0.00  0.00    -0.630 NA
ENDROOT
BRANCH   1   7
ATOM      7  N   LIG    1        3.491   1.992   0.662  0.00  0.00    -0.800 N 
ATOM      8  H   LIG    1        3.481   2.954   0.786  0.00  0.00    +0.420 HD
ATOM      9  H   LIG    1        4.333   1.512   0.659  0.00  0.00    +0.420 HD
ENDBRANCH   1   7
BRANCH   5  10
ATOM     10  N   LIG    1        1.181  -2.037  -0.020  0.00  0.00    -0.620 N 
ATOM     11  H   LIG    1        0.343  -2.525  -0.060  0.00  0.00    +0.430 HD
BRANCH  10  12
ATOM     12  C   LIG    1        2.396  -2.720  -0.141  0.00  0.00    +0.150 A 
ATOM     13  C   LIG    1        3.479  -2.110  -0.759  0.00  0.00    +0.060 A 
ATOM     14  C   LIG    1        4.678  -2.784  -0.873  0.00  0.00    +0.010 A 
ATOM     15  C   LIG    1        4.799  -4.072  -0.380  0.00  0.00    +0.080 A 
ATOM     16  C   LIG    1        3.719  -4.685   0.233  0.00  0.00    +0.010 A 
ATOM     17  F   LIG    1        5.972  -4.732  -0.497  0.00  0.00    -0.140 F 
ATOM     18  C   LIG    1        2.519  -4.013   0.353  0.00  0.00    +0.030 A 
ENDBRANCH  10  12
ENDBRANCH   5  10
BRANCH   3  19
ATOM     19  C   LIG    1       -1.295   2.059   0.330  0.00  0.00    +0.360 C 
BRANCH  19  20
ATOM     20  O   LIG    1       -1.816   2.125   1.683  0.00  0.00    -0.320 OA
BRANCH  20  21
ATOM     21  C   LIG    1       -2.987   2.767   1.857  0.00  0.00    +0.540 C 
ATOM     22  O   LIG    1       -3.557   3.258   0.904  0.00  0.00    -0.480 OA
BRANCH  21  23
ATOM     23  C   LIG    1       -3.579   2.873   3.210  0.00  0.00    +0.040 A 
ATOM     24  C   LIG    1       -4.792   3.537   3.392  0.00  0.00    +0.310 A 
ATOM     25  N   LIG    1       -5.316   3.629   4.601  0.00  0.00    -0.440 NA
ATOM     26  C   LIG    1       -4.694   3.093   5.635  0.00  0.00    +0.270 A 
ATOM     27  C   LIG    1       -3.486   2.432   5.457  0.00  0.00    +0.230 A 
ATOM     28  N   LIG    1       -2.959   2.331   4.255  0.00  0.00    -0.390 NA
ENDBRANCH  21  23
ENDBRANCH  20  21
ENDBRANCH  19  20
ENDBRANCH   3  19
TORSDOF 7
