REMARK  Name = ZINCqH00000395cI.0
REMARK                            x       y       z     vdW  Elec       q    Type
REMARK                         _______ _______ _______ _____ _____    ______ ____
ROOT
ATOM      1  C   LIG    1        1.834   5.188  -2.212  0.00  0.00    +0.520 C 
ATOM      2  N   LIG    1        1.524   5.225  -0.901  0.00  0.00    -0.720 N 
ATOM      3  H   LIG    1        0.960   5.935  -0.556  0.00  0.00    +0.400 HD
ATOM      4  O   LIG    1        2.539   4.300  -2.643  0.00  0.00    -0.500 OA
ENDROOT
BRANCH   1   5
ATOM      5  C   LIG    1        1.303   6.247  -3.142  0.00  0.00    +0.230 C 
BRANCH   5   6
ATOM      6  O   LIG    1        1.766   5.992  -4.470  0.00  0.00    -0.280 OA
BRANCH   6  10
ATOM      7  C   LIG    1        0.578   8.633  -7.413  0.00  0.00    -0.040 A 
ATOM      8  C   LIG    1        1.397   7.547  -7.734  0.00  0.00    +0.130 A 
ATOM      9  C   LIG    1        1.790   6.668  -6.749  0.00  0.00    +0.020 A 
ATOM     10  C   LIG    1        1.375   6.860  -5.437  0.00  0.00    +0.170 A 
ATOM     11  C   LIG    1        0.556   7.935  -5.113  0.00  0.00    -0.040 A 
ATOM     12  C   LIG    1        0.161   8.822  -6.091  0.00  0.00    -0.010 A 
ATOM     13 BR   LIG    1       -0.947  10.289  -5.648  0.00  0.00    -0.020 Br
BRANCH   7  15
ATOM     14  N   LIG    1       -0.162  10.274  -9.244  0.00  0.00    -0.390 NA
ATOM     15  C   LIG    1        0.165   9.548  -8.434  0.00  0.00    +0.250 C 
ENDBRANCH   7  15
ENDBRANCH   6  10
ENDBRANCH   5   6
ENDBRANCH   1   5
BRANCH   2  16
ATOM     16  C   LIG    1        2.041   4.195   0.004  0.00  0.00    +0.350 C 
BRANCH  16  17
ATOM     17  C   LIG    1        1.116   3.005  -0.010  0.00  0.00    -0.190 A 
ATOM     18  C   LIG    1        1.504   1.729   0.004  0.00  0.00    +0.020 A 
ATOM     19  C   LIG    1        0.474   0.805  -0.014  0.00  0.00    +0.010 A 
ATOM     20  C   LIG    1       -0.752   1.331  -0.049  0.00  0.00    -0.050 A 
ATOM     21  S   LIG    1       -0.641   3.087  -0.050  0.00  0.00    +0.100 S 
ENDBRANCH  16  17
BRANCH  16  22
ATOM     22  C   LIG    1        2.125   4.759   1.424  0.00  0.00    -0.090 C 
ATOM     23  C   LIG    1        3.267   5.770   1.618  0.00  0.00    +0.030 C 
ATOM     24  C   LIG    1        3.505   5.115   2.991  0.00  0.00    +0.030 C 
ATOM     25  C   LIG    1        2.872   3.842   2.407  0.00  0.00    +0.040 C 
BRANCH  22  26
ATOM     26  C   LIG    1        0.775   5.251   1.949  0.00  0.00    +0.190 C 
BRANCH  26  27
ATOM     27  O   LIG    1        0.936   5.760   3.274  0.00  0.00    -0.560 OA
ATOM     28  H   LIG    1        0.119   6.090   3.671  0.00  0.00    +0.380 HD
ENDBRANCH  26  27
ENDBRANCH  22  26
ENDBRANCH  16  22
ENDBRANCH   2  16
TORSDOF 9
