REMARK  Name = ZINCvU00000005yh.0
REMARK                            x       y       z     vdW  Elec       q    Type
REMARK                         _______ _______ _______ _____ _____    ______ ____
ROOT
ATOM      1  C   LIG    1       -5.110   0.284   0.051  0.00  0.00    -0.680 A 
ATOM      2  C   LIG    1       -3.778   0.630   0.129  0.00  0.00    +0.220 A 
ATOM      3  C   LIG    1       -2.800  -0.367   0.146  0.00  0.00    -0.150 A 
ATOM      4  C   LIG    1       -3.178  -1.709   0.078  0.00  0.00    +0.130 A 
ATOM      5  C   LIG    1       -4.514  -2.043   0.006  0.00  0.00    +0.030 A 
ATOM      6  C   LIG    1       -5.479  -1.050  -0.010  0.00  0.00    +0.080 A 
ATOM      7 CL   LIG    1       -7.159  -1.478  -0.107  0.00  0.00    -0.030 Cl
ENDROOT
BRANCH   3   8
ATOM      8  C   LIG    1       -1.370  -0.002   0.228  0.00  0.00    +0.560 C 
ATOM      9  N   LIG    1       -0.429  -0.966   0.244  0.00  0.00    -0.720 N 
ATOM     10  H   LIG    1       -0.690  -1.900   0.202  0.00  0.00    +0.400 HD
ATOM     11  O   LIG    1       -1.043   1.168   0.282  0.00  0.00    -0.520 OA
BRANCH   9  12
ATOM     12  C   LIG    1        0.989  -0.605   0.320  0.00  0.00    +0.320 C 
BRANCH  12  13
ATOM     13  C   LIG    1        1.828  -1.857   0.316  0.00  0.00    -0.120 A 
ATOM     14  C   LIG    1        2.163  -2.468   1.510  0.00  0.00    +0.020 A 
ATOM     15  C   LIG    1        2.929  -3.619   1.506  0.00  0.00    +0.010 A 
ATOM     16  C   LIG    1        3.367  -4.154   0.309  0.00  0.00    +0.010 A 
ATOM     17  C   LIG    1        3.036  -3.539  -0.884  0.00  0.00    +0.010 A 
ATOM     18  C   LIG    1        2.266  -2.391  -0.881  0.00  0.00    +0.020 A 
ENDBRANCH  12  13
ENDBRANCH   9  12
ENDBRANCH   3   8
BRANCH   1  19
ATOM     19  S   LIG    1       -6.345   1.540   0.030  0.00  0.00    +2.680 S 
ATOM     20  O   LIG    1       -5.655   2.782   0.064  0.00  0.00    -0.930 OA
ATOM     21  O   LIG    1       -7.317   1.164   0.996  0.00  0.00    -0.920 OA
BRANCH  19  22
ATOM     22  N   LIG    1       -7.097   1.464  -1.444  0.00  0.00    -0.930 N 
BRANCH  22  23
ATOM     23  C   LIG    1       -6.396   1.802  -2.604  0.00  0.00    +0.170 A 
ATOM     24  C   LIG    1       -5.331   2.692  -2.539  0.00  0.00    +0.010 A 
ATOM     25  C   LIG    1       -4.637   3.021  -3.687  0.00  0.00    +0.070 A 
ATOM     26  C   LIG    1       -5.008   2.474  -4.902  0.00  0.00    -0.060 A 
ATOM     27  C   LIG    1       -6.072   1.592  -4.971  0.00  0.00    +0.060 A 
ATOM     28 CL   LIG    1       -4.138   2.895  -6.344  0.00  0.00    -0.070 Cl
ATOM     29  C   LIG    1       -6.767   1.255  -3.825  0.00  0.00    +0.010 A 
ENDBRANCH  22  23
BRANCH  22  30
ATOM     30  C   LIG    1       -8.497   1.040  -1.530  0.00  0.00    +0.340 C 
BRANCH  30  32
ATOM     31  C   LIG    1      -10.251   2.426  -2.513  0.00  0.00    +0.050 C 
ATOM     32  C   LIG    1       -9.389   2.255  -1.541  0.00  0.00    -0.070 C 
ENDBRANCH  30  32
ENDBRANCH  22  30
ENDBRANCH  19  22
ENDBRANCH   1  19
TORSDOF 8
