REMARK  Name = ZINCqH00000371K2.0
REMARK                            x       y       z     vdW  Elec       q    Type
REMARK                         _______ _______ _______ _____ _____    ______ ____
ROOT
ATOM      1  C   LIG    1       -0.943   3.213  -3.799  0.00  0.00    +0.040 C 
ATOM      2  C   LIG    1       -0.903   1.686  -3.713  0.00  0.00    +0.170 C 
ATOM      3  C   LIG    1       -0.026   1.121  -4.851  0.00  0.00    +0.040 C 
ATOM      4  C   LIG    1        1.342   0.891  -4.157  0.00  0.00    +0.040 C 
ATOM      5  C   LIG    1        0.902   0.454  -2.738  0.00  0.00    +0.250 C 
ATOM      6  N   LIG    1       -0.288   1.272  -2.443  0.00  0.00    -0.610 N 
ATOM      7  C   LIG    1       -0.742   1.585  -1.213  0.00  0.00    +0.530 C 
ATOM      8  O   LIG    1       -1.736   2.268  -1.088  0.00  0.00    -0.520 OA
ENDROOT
BRANCH   2   9
ATOM      9  C   LIG    1       -2.320   1.119  -3.814  0.00  0.00    +0.090 C 
BRANCH   9  10
ATOM     10  C   LIG    1       -2.941   1.548  -5.119  0.00  0.00    -0.090 A 
ATOM     11  C   LIG    1       -3.662   2.726  -5.186  0.00  0.00    +0.060 A 
ATOM     12  C   LIG    1       -4.227   3.124  -6.382  0.00  0.00    -0.060 A 
ATOM     13  C   LIG    1       -4.080   2.335  -7.513  0.00  0.00    +0.100 A 
ATOM     14  C   LIG    1       -3.362   1.151  -7.442  0.00  0.00    +0.020 A 
ATOM     15  C   LIG    1       -2.794   0.760  -6.245  0.00  0.00    +0.060 A 
BRANCH  13  16
ATOM     16  O   LIG    1       -4.640   2.723  -8.690  0.00  0.00    -0.310 OA
BRANCH  16  17
ATOM     17  C   LIG    1       -5.366   3.954  -8.689  0.00  0.00    +0.600 C 
ATOM     18  F   LIG    1       -6.425   3.870  -7.779  0.00  0.00    -0.160 F 
ATOM     19  F   LIG    1       -5.870   4.198  -9.971  0.00  0.00    -0.130 F 
ATOM     20  F   LIG    1       -4.512   4.998  -8.317  0.00  0.00    -0.160 F 
ENDBRANCH  16  17
ENDBRANCH  13  16
ENDBRANCH   9  10
ENDBRANCH   2   9
BRANCH   7  21
ATOM     21  C   LIG    1       -0.013   1.086   0.008  0.00  0.00    +0.170 C 
BRANCH  21  22
ATOM     22  C   LIG    1       -0.718   1.572   1.248  0.00  0.00    +0.020 A 
ATOM     23  N   LIG    1       -1.000   2.806   1.552  0.00  0.00    -0.340 NA
ATOM     24  O   LIG    1       -1.575   2.883   2.612  0.00  0.00    +0.110 OA
ATOM     25  C   LIG    1       -1.744   1.676   3.170  0.00  0.00    +0.160 A 
ATOM     26  C   LIG    1       -1.199   0.778   2.315  0.00  0.00    -0.060 A 
ENDBRANCH  21  22
ENDBRANCH   7  21
TORSDOF 6
