REMARK  Name = ZINCCC0000000aYu.0
REMARK                            x       y       z     vdW  Elec       q    Type
REMARK                         _______ _______ _______ _____ _____    ______ ____
ROOT
ATOM      1  C   LIG    1        0.002  -0.004  -0.000  0.00  0.00    +0.550 C 
ATOM      2  N   LIG    1       -1.156  -0.694   0.009  0.00  0.00    -0.670 N 
ATOM      3  H   LIG    1       -2.000  -0.224   0.095  0.00  0.00    +0.410 HD
ATOM      4  O   LIG    1        1.063  -0.597  -0.022  0.00  0.00    -0.500 OA
ENDROOT
BRANCH   2   5
ATOM      5  C   LIG    1       -1.140  -2.089  -0.104  0.00  0.00    +0.130 A 
ATOM      6  C   LIG    1       -2.157  -2.741  -0.790  0.00  0.00    +0.030 A 
ATOM      7  C   LIG    1       -2.143  -4.118  -0.909  0.00  0.00    +0.020 A 
ATOM      8  C   LIG    1       -1.122  -4.854  -0.337  0.00  0.00    +0.100 A 
ATOM      9  C   LIG    1       -0.100  -4.207   0.359  0.00  0.00    -0.010 A 
ATOM     10  F   LIG    1       -1.114  -6.200  -0.451  0.00  0.00    -0.130 F 
ATOM     11  C   LIG    1       -0.113  -2.820   0.474  0.00  0.00    +0.090 A 
BRANCH   9  12
ATOM     12  C   LIG    1        0.997  -4.995   0.974  0.00  0.00    +0.010 A 
ATOM     13  C   LIG    1        1.143  -6.351   0.953  0.00  0.00    +0.170 A 
ATOM     14  N   LIG    1        2.282  -6.615   1.633  0.00  0.00    -0.290 N 
ATOM     15  N   LIG    1        2.780  -5.502   2.043  0.00  0.00    -0.070 NA
ATOM     16  N   LIG    1        2.043  -4.516   1.670  0.00  0.00    -0.250 NA
BRANCH  14  17
ATOM     17  C   LIG    1        2.849  -7.945   1.870  0.00  0.00    +0.340 C 
BRANCH  17  18
ATOM     18  C   LIG    1        4.296  -7.978   1.373  0.00  0.00    +0.150 C 
BRANCH  18  19
ATOM     19  C   LIG    1        4.879  -9.346   1.616  0.00  0.00    -0.030 A 
ATOM     20  C   LIG    1        5.446 -10.161   0.695  0.00  0.00    +0.150 A 
ATOM     21  N   LIG    1        5.829 -11.274   1.361  0.00  0.00    -0.290 N 
ATOM     22  N   LIG    1        5.502 -11.136   2.599  0.00  0.00    -0.080 NA
ATOM     23  C   LIG    1        6.493 -12.440   0.774  0.00  0.00    +0.390 C 
ATOM     24  N   LIG    1        4.934  -9.997   2.783  0.00  0.00    -0.260 NA
ENDBRANCH  18  19
ENDBRANCH  17  18
ENDBRANCH  14  17
ENDBRANCH   9  12
ENDBRANCH   2   5
BRANCH   1  28
ATOM     25  C   LIG    1       -0.056   4.242   0.047  0.00  0.00    +0.120 A 
ATOM     26  C   LIG    1        1.160   3.564   0.021  0.00  0.00    +0.000 A 
ATOM     27  C   LIG    1        1.182   2.188   0.006  0.00  0.00    +0.120 A 
ATOM     28  C   LIG    1       -0.018   1.471   0.016  0.00  0.00    -0.140 A 
ATOM     29  C   LIG    1       -1.237   2.155   0.036  0.00  0.00    +0.070 A 
ATOM     30  C   LIG    1       -1.253   3.530   0.056  0.00  0.00    -0.040 A 
BRANCH  25  34
ATOM     31  N   LIG    1       -0.682   8.181   1.198  0.00  0.00    -0.390 N 
ATOM     32  C   LIG    1       -1.432   7.669   0.044  0.00  0.00    +0.270 C 
ATOM     33  C   LIG    1       -1.454   6.140   0.088  0.00  0.00    +0.220 C 
ATOM     34  N   LIG    1       -0.075   5.632   0.062  0.00  0.00    -0.490 N 
ATOM     35  C   LIG    1        0.696   6.157   1.198  0.00  0.00    +0.230 C 
ATOM     36  C   LIG    1        0.700   7.686   1.145  0.00  0.00    +0.270 C 
ATOM     37  H   LIG    1       -1.119   7.866   2.051  0.00  0.00    +0.420 HD
BRANCH  31  39
ATOM     38  C   LIG    1       -2.115  10.167   1.222  0.00  0.00    +0.090 C 
ATOM     39  C   LIG    1       -0.676   9.650   1.165  0.00  0.00    +0.160 C 
ATOM     40  C   LIG    1        0.105  10.184   2.367  0.00  0.00    +0.090 C 
ENDBRANCH  31  39
ENDBRANCH  25  34
ENDBRANCH   1  28
TORSDOF 8
