REMARK  Name = ZINCnE000001C6Tq.0
REMARK                            x       y       z     vdW  Elec       q    Type
REMARK                         _______ _______ _______ _____ _____    ______ ____
ROOT
ATOM      1  N   LIG    1       -0.578   0.727   0.095  0.00  0.00    -0.610 N 
ATOM      2  C   LIG    1       -0.485  -0.147   1.117  0.00  0.00    +0.530 C 
ATOM      3  O   LIG    1        0.038   0.190   2.157  0.00  0.00    -0.530 OA
ENDROOT
BRANCH   2   4
ATOM      4  C   LIG    1       -1.032  -1.543   0.966  0.00  0.00    -0.020 C 
ATOM      5  C   LIG    1        0.088  -2.484   0.516  0.00  0.00    +0.020 C 
ATOM      6  C   LIG    1       -0.466  -3.901   0.363  0.00  0.00    +0.000 C 
ATOM      7  C   LIG    1       -1.024  -4.378   1.706  0.00  0.00    +0.030 C 
ATOM      8  C   LIG    1       -2.144  -3.438   2.155  0.00  0.00    -0.090 C 
ATOM      9  C   LIG    1       -1.589  -2.020   2.308  0.00  0.00    +0.060 C 
BRANCH   8  10
ATOM     10  C   LIG    1       -2.694  -3.908   3.478  0.00  0.00    +0.500 C 
ATOM     11  O   LIG    1       -3.599  -3.293   4.014  0.00  0.00    -0.700 OA
ATOM     12  O   LIG    1       -2.232  -4.902   4.011  0.00  0.00    -0.700 OA
ENDBRANCH   8  10
ENDBRANCH   2   4
BRANCH   1  13
ATOM     13  C   LIG    1       -1.327   0.367  -1.111  0.00  0.00    +0.310 C 
BRANCH  13  15
ATOM     14  C   LIG    1       -3.058   2.032  -1.552  0.00  0.00    +0.020 C 
ATOM     15  C   LIG    1       -2.737   0.887  -1.001  0.00  0.00    -0.140 C 
ATOM     16  C   LIG    1       -3.778   0.091  -0.257  0.00  0.00    +0.070 C 
ENDBRANCH  13  15
ENDBRANCH   1  13
BRANCH   1  17
ATOM     17  C   LIG    1        0.071   2.037   0.190  0.00  0.00    +0.330 C 
BRANCH  17  18
ATOM     18  C   LIG    1        1.426   1.976  -0.466  0.00  0.00    -0.100 A 
ATOM     19  C   LIG    1        2.545   1.673   0.287  0.00  0.00    +0.030 A 
ATOM     20  C   LIG    1        3.788   1.612  -0.315  0.00  0.00    +0.000 A 
ATOM     21  C   LIG    1        3.913   1.863  -1.669  0.00  0.00    +0.000 A 
ATOM     22  C   LIG    1        2.795   2.171  -2.421  0.00  0.00    +0.000 A 
ATOM     23  C   LIG    1        1.551   2.228  -1.819  0.00  0.00    +0.010 A 
ENDBRANCH  17  18
ENDBRANCH   1  17
TORSDOF 6
