REMARK  Name = ZINCvU00000007mG.0
REMARK                            x       y       z     vdW  Elec       q    Type
REMARK                         _______ _______ _______ _____ _____    ______ ____
ROOT
ATOM      1  C   LIG    1       -1.137   1.790  -0.334  0.00  0.00    +0.110 A 
ATOM      2  C   LIG    1        0.079   1.135  -0.357  0.00  0.00    -0.010 A 
ATOM      3  C   LIG    1        1.264   1.861  -0.206  0.00  0.00    -0.060 A 
ATOM      4  C   LIG    1        1.212   3.247  -0.028  0.00  0.00    +0.040 A 
ATOM      5  C   LIG    1       -0.005   3.893  -0.000  0.00  0.00    -0.040 A 
ATOM      6  C   LIG    1       -1.181   3.171  -0.150  0.00  0.00    +0.110 A 
ENDROOT
BRANCH   3   7
ATOM      7  C   LIG    1        2.563   1.169  -0.236  0.00  0.00    +0.060 C 
ATOM      8  C   LIG    1        3.704   1.870  -0.090  0.00  0.00    +0.060 C 
BRANCH   8   9
ATOM      9  C   LIG    1        4.997   1.181  -0.119  0.00  0.00    +0.110 A 
ATOM     10  N   LIG    1        6.161   1.755   0.011  0.00  0.00    -0.460 NA
ATOM     11  C   LIG    1        7.223   0.974  -0.041  0.00  0.00    +0.110 A 
ATOM     12  C   LIG    1        6.968  -0.339  -0.224  0.00  0.00    -0.060 A 
ATOM     13  S   LIG    1        5.222  -0.553  -0.327  0.00  0.00    +0.100 S 
BRANCH  11  14
ATOM     14  C   LIG    1        8.603   1.502   0.093  0.00  0.00    -0.040 A 
ATOM     15  C   LIG    1        9.692   0.634   0.038  0.00  0.00    +0.070 A 
ATOM     16  C   LIG    1       10.974   1.131   0.159  0.00  0.00    -0.010 A 
ATOM     17  C   LIG    1       11.178   2.488   0.345  0.00  0.00    +0.110 A 
ATOM     18  C   LIG    1       10.098   3.354   0.406  0.00  0.00    -0.010 A 
ATOM     19  F   LIG    1       12.435   2.969   0.468  0.00  0.00    -0.140 F 
ATOM     20  C   LIG    1        8.813   2.867   0.281  0.00  0.00    +0.080 A 
ENDBRANCH  11  14
ENDBRANCH   8   9
ENDBRANCH   3   7
BRANCH   1  21
ATOM     21  O   LIG    1       -2.291   1.088  -0.486  0.00  0.00    -0.300 OA
BRANCH  21  23
ATOM     22  C   LIG    1       -3.565  -0.939  -0.818  0.00  0.00    +0.070 C 
ATOM     23  C   LIG    1       -2.172  -0.325  -0.665  0.00  0.00    +0.170 C 
ENDBRANCH  21  23
ENDBRANCH   1  21
BRANCH   6  24
ATOM     24  O   LIG    1       -2.378   3.813  -0.121  0.00  0.00    -0.270 OA
BRANCH  24  25
ATOM     25  C   LIG    1       -2.356   5.218   0.141  0.00  0.00    +0.160 C 
ATOM     26  C   LIG    1       -2.280   5.454   1.651  0.00  0.00    +0.060 C 
BRANCH  25  27
ATOM     27  C   LIG    1       -3.609   5.851  -0.405  0.00  0.00    +0.520 C 
ATOM     28  N   LIG    1       -3.682   7.190  -0.544  0.00  0.00    -0.620 N 
ATOM     29  C   LIG    1       -2.507   8.021  -0.268  0.00  0.00    +0.290 C 
ATOM     30  C   LIG    1       -4.937   7.815  -0.972  0.00  0.00    +0.290 C 
ATOM     31  O   LIG    1       -4.553   5.157  -0.718  0.00  0.00    -0.510 OA
ENDBRANCH  25  27
ENDBRANCH  24  25
ENDBRANCH   6  24
TORSDOF 8
