REMARK  Name = ZINCrg000000tOFL.0
REMARK                            x       y       z     vdW  Elec       q    Type
REMARK                         _______ _______ _______ _____ _____    ______ ____
ROOT
ATOM      1  O   LIG    1       -1.955   1.313  -1.620  0.00  0.00    -0.480 OA
ATOM      2  C   LIG    1       -0.994   1.813  -1.069  0.00  0.00    +0.570 A 
ATOM      3  N   LIG    1        0.155   1.119  -0.911  0.00  0.00    -0.660 N 
ATOM      4  H   LIG    1        0.212   0.209  -1.243  0.00  0.00    +0.440 HD
ATOM      5  C   LIG    1        1.220   1.670  -0.308  0.00  0.00    +0.710 A 
ATOM      6  N   LIG    1        1.219   2.922   0.177  0.00  0.00    -0.500 N 
ATOM      7  C   LIG    1        0.096   3.721   0.075  0.00  0.00    +0.430 A 
ATOM      8  N   LIG    1        0.087   4.957   0.550  0.00  0.00    -0.500 NA
ATOM      9  C   LIG    1       -0.977   5.726   0.458  0.00  0.00    +0.390 A 
ATOM     10  C   LIG    1       -2.153   5.272  -0.148  0.00  0.00    -0.230 A 
ATOM     11  C   LIG    1       -2.194   3.971  -0.666  0.00  0.00    +0.260 A 
ATOM     12  O   LIG    1        2.232   1.005  -0.196  0.00  0.00    -0.510 OA
ATOM     13  C   LIG    1       -1.050   3.190  -0.550  0.00  0.00    -0.250 A 
ENDROOT
BRANCH  10  14
ATOM     14  C   LIG    1       -3.335   6.152  -0.240  0.00  0.00    +0.570 C 
ATOM     15  N   LIG    1       -3.175   7.479  -0.407  0.00  0.00    -0.610 N 
ATOM     16  C   LIG    1       -1.841   8.061  -0.624  0.00  0.00    +0.240 C 
ATOM     17  C   LIG    1       -1.647   9.217   0.357  0.00  0.00    +0.220 C 
ATOM     18  O   LIG    1       -2.755  10.114   0.255  0.00  0.00    -0.370 OA
ATOM     19  C   LIG    1       -4.013   9.532   0.604  0.00  0.00    +0.160 C 
ATOM     20  C   LIG    1       -4.329   8.392  -0.370  0.00  0.00    +0.270 C 
ATOM     21  O   LIG    1       -4.452   5.678  -0.166  0.00  0.00    -0.520 OA
BRANCH  19  22
ATOM     22  C   LIG    1       -5.110  10.596   0.518  0.00  0.00    -0.010 C 
ATOM     23  C   LIG    1       -4.943  11.558  -0.670  0.00  0.00    +0.020 C 
ATOM     24  C   LIG    1       -5.386  12.683   0.283  0.00  0.00    +0.010 C 
ATOM     25  C   LIG    1       -4.866  11.807   1.435  0.00  0.00    +0.030 C 
ENDBRANCH  19  22
ENDBRANCH  10  14
BRANCH   6  26
ATOM     26  C   LIG    1        2.424   3.449   0.822  0.00  0.00    +0.210 C 
ATOM     27  C   LIG    1        2.897   4.843   0.405  0.00  0.00    +0.070 C 
ATOM     28  C   LIG    1        3.677   3.604  -0.042  0.00  0.00    +0.050 C 
ENDBRANCH   6  26
TORSDOF 3
