REMARK  Name = ZINCqH00000073P9.0
REMARK                            x       y       z     vdW  Elec       q    Type
REMARK                         _______ _______ _______ _____ _____    ______ ____
ROOT
ATOM      1  C   LIG    1        4.446   1.039  -1.433  0.00  0.00    +0.570 C 
ATOM      2  N   LIG    1        3.429   1.727  -0.876  0.00  0.00    -0.720 N 
ATOM      3  H   LIG    1        3.321   2.671  -1.067  0.00  0.00    +0.400 HD
ATOM      4  O   LIG    1        4.582  -0.146  -1.194  0.00  0.00    -0.540 OA
ENDROOT
BRANCH   1   8
ATOM      5  C   LIG    1        7.171   3.013  -4.029  0.00  0.00    +0.130 A 
ATOM      6  C   LIG    1        6.124   3.720  -3.454  0.00  0.00    -0.040 A 
ATOM      7  C   LIG    1        5.235   3.082  -2.616  0.00  0.00    +0.050 A 
ATOM      8  C   LIG    1        5.393   1.723  -2.335  0.00  0.00    -0.140 A 
ATOM      9  C   LIG    1        6.448   1.011  -2.913  0.00  0.00    +0.040 A 
ATOM     10  C   LIG    1        7.331   1.655  -3.756  0.00  0.00    +0.090 A 
BRANCH   5  12
ATOM     11  C   LIG    1        7.817   5.037  -5.093  0.00  0.00    +0.240 C 
ATOM     12  O   LIG    1        8.041   3.646  -4.858  0.00  0.00    -0.300 OA
ENDBRANCH   5  12
BRANCH  10  13
ATOM     13  O   LIG    1        8.359   0.965  -4.321  0.00  0.00    -0.300 OA
ATOM     14  C   LIG    1        8.463  -0.423  -3.998  0.00  0.00    +0.240 C 
ENDBRANCH  10  13
ENDBRANCH   1   8
BRANCH   2  15
ATOM     15  C   LIG    1        2.489   1.048   0.019  0.00  0.00    +0.280 C 
ATOM     16  C   LIG    1        3.060   1.027   1.438  0.00  0.00    +0.040 C 
BRANCH  15  17
ATOM     17  C   LIG    1        1.174   1.783   0.017  0.00  0.00    -0.080 A 
ATOM     18  C   LIG    1        1.156   3.166   0.008  0.00  0.00    +0.000 A 
ATOM     19  C   LIG    1       -0.049   3.845   0.006  0.00  0.00    +0.020 A 
ATOM     20  C   LIG    1       -1.239   3.144   0.013  0.00  0.00    +0.040 A 
ATOM     21  C   LIG    1       -1.224   1.755   0.017  0.00  0.00    +0.090 A 
ATOM     22  C   LIG    1       -0.013   1.076   0.024  0.00  0.00    -0.020 A 
BRANCH  21  23
ATOM     23  N   LIG    1       -2.426   1.042   0.020  0.00  0.00    -0.480 N 
ATOM     24  C   LIG    1       -2.562   0.224  -1.213  0.00  0.00    +0.180 C 
ATOM     25  C   LIG    1       -3.611  -0.844  -0.815  0.00  0.00    +0.040 C 
ATOM     26  C   LIG    1       -3.251  -1.150   0.657  0.00  0.00    +0.020 C 
ATOM     27  C   LIG    1       -2.472   0.085   1.146  0.00  0.00    +0.170 C 
ENDBRANCH  21  23
ENDBRANCH  15  17
ENDBRANCH   2  15
TORSDOF 6
