REMARK  Name = ZINCpe000000Y6V0.0
REMARK                            x       y       z     vdW  Elec       q    Type
REMARK                         _______ _______ _______ _____ _____    ______ ____
ROOT
ATOM      1  C   LIG    1       -0.818  -2.745  -0.863  0.00  0.00    +0.270 C 
ENDROOT
BRANCH   1   8
ATOM      2  C   LIG    1       -2.951  -5.056  -1.244  0.00  0.00    +0.150 C 
ATOM      3  C   LIG    1       -1.454  -5.219  -1.291  0.00  0.00    +0.080 A 
ATOM      4  N   LIG    1       -0.811  -6.340  -1.496  0.00  0.00    -0.290 NA
ATOM      5  N   LIG    1        0.563  -6.074  -1.464  0.00  0.00    -0.390 N 
ATOM      6  C   LIG    1        0.725  -4.750  -1.238  0.00  0.00    +0.270 A 
ATOM      7  C   LIG    1        1.636  -7.054  -1.649  0.00  0.00    +0.350 C 
ATOM      8  C   LIG    1       -0.514  -4.198  -1.121  0.00  0.00    -0.200 A 
BRANCH   6   9
ATOM      9  N   LIG    1        1.939  -4.075  -1.139  0.00  0.00    -0.450 N 
ATOM     10  C   LIG    1        2.745  -4.260  -2.354  0.00  0.00    +0.150 C 
ATOM     11  C   LIG    1        4.041  -3.455  -2.228  0.00  0.00    +0.240 C 
ATOM     12  O   LIG    1        4.738  -3.865  -1.048  0.00  0.00    -0.380 OA
ATOM     13  C   LIG    1        3.982  -3.699   0.154  0.00  0.00    +0.240 C 
ATOM     14  C   LIG    1        2.686  -4.506   0.052  0.00  0.00    +0.160 C 
ENDBRANCH   6   9
ENDBRANCH   1   8
BRANCH   1  15
ATOM     15  N   LIG    1       -0.901  -2.513   0.586  0.00  0.00    -0.650 NA
ATOM     16  H   LIG    1       -1.585  -3.121   1.011  0.00  0.00    +0.350 HD
BRANCH  15  17
ATOM     17  C   LIG    1       -1.197  -1.104   0.876  0.00  0.00    +0.190 C 
BRANCH  17  18
ATOM     18  C   LIG    1       -1.865  -0.998   2.223  0.00  0.00    -0.100 A 
ATOM     19  C   LIG    1       -1.435  -1.789   3.272  0.00  0.00    +0.040 A 
ATOM     20  C   LIG    1       -2.045  -1.690   4.508  0.00  0.00    +0.000 A 
ATOM     21  C   LIG    1       -3.091  -0.805   4.694  0.00  0.00    +0.010 A 
ATOM     22  C   LIG    1       -3.525  -0.018   3.643  0.00  0.00    +0.000 A 
ATOM     23  C   LIG    1       -2.912  -0.115   2.408  0.00  0.00    +0.010 A 
ENDBRANCH  17  18
BRANCH  17  24
ATOM     24  C   LIG    1        0.086  -0.313   0.889  0.00  0.00    +0.520 C 
ATOM     25  O   LIG    1        1.142  -0.869   0.676  0.00  0.00    -0.510 OA
ATOM     26  N   LIG    1        0.059   1.011   1.136  0.00  0.00    -0.860 N 
ATOM     27  H   LIG    1       -0.787   1.457   1.302  0.00  0.00    +0.400 HD
ATOM     28  H   LIG    1        0.884   1.520   1.144  0.00  0.00    +0.400 HD
ENDBRANCH  17  24
ENDBRANCH  15  17
ENDBRANCH   1  15
TORSDOF 6
