REMARK  Name = ZINCrH000004pzwe.0
REMARK                            x       y       z     vdW  Elec       q    Type
REMARK                         _______ _______ _______ _____ _____    ______ ____
ROOT
ATOM      1  C   LIG    1        1.321  -0.356  -0.013  0.00  0.00    +0.150 A 
ATOM      2  N   LIG    1        2.016   0.758  -0.013  0.00  0.00    -0.290 NA
ATOM      3  N   LIG    1        1.222   1.768  -0.000  0.00  0.00    -0.270 NA
ATOM      4  C   LIG    1       -0.017   1.363   0.009  0.00  0.00    +0.190 A 
ATOM      5  N   LIG    1        0.002  -0.004   0.002  0.00  0.00    -0.450 N 
ENDROOT
BRANCH   1   6
ATOM      6  S   LIG    1        1.968  -1.995  -0.027  0.00  0.00    +0.070 S 
BRANCH   6   8
ATOM      7  C   LIG    1        4.132  -0.940   1.265  0.00  0.00    +0.080 C 
ATOM      8  C   LIG    1        3.742  -1.632  -0.042  0.00  0.00    +0.020 C 
BRANCH   8   9
ATOM      9  C   LIG    1        4.516  -2.918  -0.180  0.00  0.00    +0.540 C 
ATOM     10  N   LIG    1        5.792  -2.893  -0.613  0.00  0.00    -0.610 N 
ATOM     11  C   LIG    1        6.426  -1.616  -0.951  0.00  0.00    +0.290 C 
ATOM     12  C   LIG    1        6.545  -4.143  -0.747  0.00  0.00    +0.290 C 
ATOM     13  O   LIG    1        3.991  -3.975   0.099  0.00  0.00    -0.520 OA
ENDBRANCH   8   9
ENDBRANCH   6   8
ENDBRANCH   1   6
BRANCH   4  14
ATOM     14  C   LIG    1       -1.242   2.240   0.020  0.00  0.00    +0.250 C 
BRANCH  14  15
ATOM     15  C   LIG    1       -1.644   2.524   1.445  0.00  0.00    -0.190 A 
ATOM     16  C   LIG    1       -1.211   3.553   2.175  0.00  0.00    +0.040 A 
ATOM     17  C   LIG    1       -1.721   3.611   3.461  0.00  0.00    +0.000 A 
ATOM     18  C   LIG    1       -2.561   2.625   3.777  0.00  0.00    -0.030 A 
ATOM     19  S   LIG    1       -2.749   1.546   2.401  0.00  0.00    +0.090 S 
ENDBRANCH  14  15
ENDBRANCH   4  14
BRANCH   5  20
ATOM     20  C   LIG    1       -1.154  -0.904   0.008  0.00  0.00    +0.310 C 
BRANCH  20  21
ATOM     21  C   LIG    1       -1.570  -1.210  -1.432  0.00  0.00    +0.080 C 
BRANCH  21  22
ATOM     22  C   LIG    1       -2.758  -2.136  -1.426  0.00  0.00    -0.090 A 
ATOM     23  C   LIG    1       -2.568  -3.505  -1.440  0.00  0.00    +0.010 A 
ATOM     24  C   LIG    1       -3.658  -4.355  -1.430  0.00  0.00    +0.000 A 
ATOM     25  C   LIG    1       -4.939  -3.836  -1.415  0.00  0.00    +0.000 A 
ATOM     26  C   LIG    1       -5.130  -2.466  -1.405  0.00  0.00    +0.000 A 
ATOM     27  C   LIG    1       -4.039  -1.617  -1.411  0.00  0.00    +0.010 A 
ENDBRANCH  21  22
ENDBRANCH  20  21
ENDBRANCH   5  20
TORSDOF 8
