REMARK  Name = ZINCpk00000y6yCU.1
REMARK                            x       y       z     vdW  Elec       q    Type
REMARK                         _______ _______ _______ _____ _____    ______ ____
ROOT
ATOM      1  C   LIG    1       -1.116   3.259  -2.940  0.00  0.00    +0.150 C 
ATOM      2  C   LIG    1       -2.530   3.672  -2.524  0.00  0.00    +0.040 C 
ATOM      3  C   LIG    1       -3.464   2.476  -2.532  0.00  0.00    +0.020 C 
ATOM      4  C   LIG    1       -3.139   1.437  -1.475  0.00  0.00    +0.010 C 
ATOM      5  C   LIG    1       -1.794   0.758  -1.774  0.00  0.00    +0.280 C 
ATOM      6  N   LIG    1       -0.721   1.571  -1.179  0.00  0.00    -0.610 N 
ATOM      7  C   LIG    1       -0.386   2.745  -1.717  0.00  0.00    +0.520 C 
ATOM      8  O   LIG    1        0.506   3.402  -1.225  0.00  0.00    -0.500 OA
ENDROOT
BRANCH   1   9
ATOM      9  N   LIG    1       -0.403   4.420  -3.489  0.00  0.00    -0.660 NA
ATOM     10  H   LIG    1       -1.040   5.047  -3.957  0.00  0.00    +0.350 HD
BRANCH   9  11
ATOM     11  C   LIG    1        0.677   3.997  -4.390  0.00  0.00    +0.250 C 
BRANCH  11  15
ATOM     12  C   LIG    1        2.638   7.370  -5.894  0.00  0.00    +0.320 A 
ATOM     13  N   LIG    1        3.068   6.823  -4.774  0.00  0.00    -0.520 NA
ATOM     14  C   LIG    1        2.472   5.755  -4.268  0.00  0.00    +0.350 A 
ATOM     15  C   LIG    1        1.383   5.213  -4.932  0.00  0.00    -0.200 A 
ATOM     16  C   LIG    1        0.964   5.811  -6.109  0.00  0.00    +0.320 A 
ATOM     17  N   LIG    1        1.606   6.881  -6.552  0.00  0.00    -0.520 NA
BRANCH  12  19
ATOM     18  C   LIG    1        4.469   8.144  -7.375  0.00  0.00    +0.050 C 
ATOM     19  C   LIG    1        3.345   8.585  -6.436  0.00  0.00    +0.120 C 
ENDBRANCH  12  19
ENDBRANCH  11  15
ENDBRANCH   9  11
ENDBRANCH   1   9
BRANCH   6  20
ATOM     20  C   LIG    1       -0.013   1.086   0.008  0.00  0.00    +0.460 C 
BRANCH  20  21
ATOM     21  C   LIG    1       -0.718   1.572   1.248  0.00  0.00    +0.160 A 
ATOM     22  N   LIG    1       -1.680   0.955   1.891  0.00  0.00    -0.470 NA
ATOM     23  C   LIG    1       -1.996   1.757   2.924  0.00  0.00    +0.160 A 
ATOM     24  N   LIG    1       -1.224   2.800   2.858  0.00  0.00    -0.380 NA
ATOM     25  C   LIG    1       -3.051   1.493   3.968  0.00  0.00    +0.210 C 
ATOM     26  O   LIG    1       -0.479   2.711   1.905  0.00  0.00    +0.090 OA
ENDBRANCH  20  21
ENDBRANCH   6  20
TORSDOF 6
