REMARK  Name = ZINCrD00000hQ5eQ.0
REMARK                            x       y       z     vdW  Elec       q    Type
REMARK                         _______ _______ _______ _____ _____    ______ ____
ROOT
ATOM      1  N   LIG    1       -4.960  -3.068   0.135  0.00  0.00    -0.670 NA
ATOM      2  H   LIG    1       -5.475  -2.787  -0.686  0.00  0.00    +0.360 HD
ENDROOT
BRANCH   1   3
ATOM      3  C   LIG    1       -4.905  -4.532   0.246  0.00  0.00    +0.210 C 
ATOM      4  C   LIG    1       -4.187  -5.129  -0.982  0.00  0.00    +0.000 C 
ATOM      5  C   LIG    1       -4.959  -6.440  -1.274  0.00  0.00    +0.020 C 
ATOM      6  C   LIG    1       -6.428  -6.044  -0.980  0.00  0.00    +0.020 C 
ATOM      7  C   LIG    1       -6.330  -5.114   0.247  0.00  0.00    +0.050 C 
BRANCH   3   8
ATOM      8  C   LIG    1       -4.186  -4.927   1.510  0.00  0.00    +0.200 A 
ATOM      9  N   LIG    1       -4.639  -5.714   2.439  0.00  0.00    -0.370 NA
ATOM     10  O   LIG    1       -3.819  -5.833   3.325  0.00  0.00    +0.080 OA
ATOM     11  C   LIG    1       -2.732  -5.111   3.036  0.00  0.00    +0.210 A 
ATOM     12  N   LIG    1       -2.954  -4.535   1.880  0.00  0.00    -0.480 NA
BRANCH  11  13
ATOM     13  C   LIG    1       -1.487  -4.988   3.877  0.00  0.00    +0.060 C 
ATOM     14  C   LIG    1       -1.360  -5.911   5.090  0.00  0.00    +0.070 C 
ATOM     15  C   LIG    1       -1.641  -4.420   5.289  0.00  0.00    +0.070 C 
ENDBRANCH  11  13
ENDBRANCH   3   8
ENDBRANCH   1   3
BRANCH   1  16
ATOM     16  C   LIG    1       -3.609  -2.490   0.131  0.00  0.00    +0.170 C 
BRANCH  16  17
ATOM     17  C   LIG    1       -3.706  -0.968   0.014  0.00  0.00    +0.230 C 
BRANCH  17  18
ATOM     18  O   LIG    1       -4.374  -0.625  -1.202  0.00  0.00    -0.550 OA
ATOM     19  H   LIG    1       -3.928  -0.945  -1.998  0.00  0.00    +0.370 HD
ENDBRANCH  17  18
BRANCH  17  20
ATOM     20  C   LIG    1       -2.299  -0.366   0.011  0.00  0.00    +0.160 C 
BRANCH  20  21
ATOM     21  O   LIG    1       -2.391   1.060   0.019  0.00  0.00    -0.300 OA
BRANCH  21  26
ATOM     22  C   LIG    1        2.452   3.935  -0.000  0.00  0.00    +0.090 C 
ATOM     23  C   LIG    1        1.156   3.166   0.008  0.00  0.00    -0.120 A 
ATOM     24  C   LIG    1        1.174   1.783   0.000  0.00  0.00    +0.030 A 
ATOM     25  C   LIG    1       -0.013   1.076   0.008  0.00  0.00    -0.070 A 
ATOM     26  C   LIG    1       -1.223   1.754   0.017  0.00  0.00    +0.120 A 
ATOM     27  C   LIG    1       -1.238   3.141   0.029  0.00  0.00    -0.110 A 
ATOM     28  C   LIG    1       -2.551   3.881   0.045  0.00  0.00    +0.090 C 
ATOM     29  C   LIG    1       -0.049   3.844   0.023  0.00  0.00    +0.050 A 
ENDBRANCH  21  26
ENDBRANCH  20  21
ENDBRANCH  17  20
ENDBRANCH  16  17
ENDBRANCH   1  16
TORSDOF 9
