REMARK  Name = ZINCvU0000000FVA.0
REMARK                            x       y       z     vdW  Elec       q    Type
REMARK                         _______ _______ _______ _____ _____    ______ ____
ROOT
ATOM      1  N   LIG    1       -9.753   6.132  -0.874  0.00  0.00    -0.470 N 
ATOM      2  C   LIG    1       -9.835   4.673  -1.020  0.00  0.00    +0.210 C 
ATOM      3  C   LIG    1       -9.033   4.005   0.102  0.00  0.00    +0.300 C 
ATOM      4  N   LIG    1       -7.669   4.555   0.093  0.00  0.00    -0.620 N 
ATOM      5  C   LIG    1       -7.508   6.017   0.105  0.00  0.00    +0.300 C 
ATOM      6  C   LIG    1       -6.594   3.741   0.079  0.00  0.00    +0.540 C 
ATOM      7  O   LIG    1       -6.745   2.538   0.074  0.00  0.00    -0.520 OA
ATOM      8  C   LIG    1       -8.370   6.606  -1.024  0.00  0.00    +0.200 C 
ENDROOT
BRANCH   1  12
ATOM      9  C   LIG    1      -11.651  10.250  -2.789  0.00  0.00    +0.140 C 
ATOM     10  C   LIG    1      -11.529   8.750  -2.715  0.00  0.00    +0.190 A 
ATOM     11  C   LIG    1      -10.678   8.162  -1.800  0.00  0.00    -0.100 A 
ATOM     12  C   LIG    1      -10.595   6.769  -1.771  0.00  0.00    +0.360 A 
ATOM     13  N   LIG    1      -11.342   6.062  -2.615  0.00  0.00    -0.560 NA
ATOM     14  C   LIG    1      -12.144   6.665  -3.469  0.00  0.00    +0.360 A 
ATOM     15  N   LIG    1      -12.242   7.978  -3.524  0.00  0.00    -0.530 NA
BRANCH  14  16
ATOM     16  C   LIG    1      -12.975   5.829  -4.409  0.00  0.00    +0.060 C 
ATOM     17  C   LIG    1      -12.616   6.178  -5.854  0.00  0.00    +0.050 C 
ATOM     18  C   LIG    1      -14.459   6.113  -4.168  0.00  0.00    +0.050 C 
ENDBRANCH  14  16
ENDBRANCH   1  12
BRANCH   6  19
ATOM     19  C   LIG    1       -5.206   4.327   0.070  0.00  0.00    +0.000 C 
BRANCH  19  20
ATOM     20  S   LIG    1       -3.984   2.986   0.053  0.00  0.00    +0.040 S 
BRANCH  20  21
ATOM     21  C   LIG    1       -2.448   3.849   0.044  0.00  0.00    -0.090 A 
ATOM     22  C   LIG    1       -2.425   5.228   0.051  0.00  0.00    +0.000 A 
ATOM     23  C   LIG    1       -1.217   5.919   0.043  0.00  0.00    +0.040 A 
ATOM     24  C   LIG    1       -0.027   5.256   0.029  0.00  0.00    +0.020 A 
ATOM     25  C   LIG    1       -0.007   3.850   0.022  0.00  0.00    -0.020 A 
ATOM     26  C   LIG    1        1.206   3.140   0.007  0.00  0.00    +0.040 A 
ATOM     27  C   LIG    1        1.190   1.779   0.000  0.00  0.00    +0.040 A 
ATOM     28  C   LIG    1       -0.013   1.076   0.008  0.00  0.00    +0.040 A 
ATOM     29  C   LIG    1       -1.208   1.732   0.017  0.00  0.00    -0.040 A 
ATOM     30 CL   LIG    1       -2.695   0.836   0.020  0.00  0.00    +0.000 Cl
ATOM     31  C   LIG    1       -1.230   3.135   0.030  0.00  0.00    -0.030 A 
ENDBRANCH  20  21
ENDBRANCH  19  20
ENDBRANCH   6  19
TORSDOF 5
