REMARK  Name = ZINCnE000001Ma9Q.0
REMARK                            x       y       z     vdW  Elec       q    Type
REMARK                         _______ _______ _______ _____ _____    ______ ____
ROOT
ATOM      1  N   LIG    1       -2.678   5.731  -1.855  0.00  0.00    -0.650 NA
ATOM      2  C   LIG    1       -3.348   4.575  -2.028  0.00  0.00    +0.660 C 
ATOM      3  N   LIG    1       -3.319   3.629  -1.068  0.00  0.00    -0.610 N 
ATOM      4  C   LIG    1       -2.556   3.862   0.173  0.00  0.00    +0.350 C 
ATOM      5  C   LIG    1       -1.228   3.142   0.061  0.00  0.00    -0.120 A 
ATOM      6  C   LIG    1       -0.046   3.848   0.038  0.00  0.00    +0.050 A 
ATOM      7  C   LIG    1        1.159   3.167   0.008  0.00  0.00    -0.010 A 
ATOM      8  C   LIG    1        1.173   1.785   0.000  0.00  0.00    +0.010 A 
ATOM      9  C   LIG    1       -0.013   1.076   0.008  0.00  0.00    -0.020 A 
ATOM     10  C   LIG    1       -1.222   1.755   0.017  0.00  0.00    +0.110 A 
ATOM     11  O   LIG    1       -2.393   1.072  -0.062  0.00  0.00    -0.330 OA
ATOM     12  C   LIG    1       -3.099   1.185  -1.302  0.00  0.00    +0.100 C 
ATOM     13  C   LIG    1       -3.901  -0.095  -1.547  0.00  0.00    +0.070 C 
ATOM     14  C   LIG    1       -2.096   1.377  -2.441  0.00  0.00    +0.030 C 
ATOM     15  C   LIG    1       -4.048   2.374  -1.260  0.00  0.00    +0.270 C 
ATOM     16  O   LIG    1       -3.979   4.385  -3.050  0.00  0.00    -0.630 OA
ENDROOT
BRANCH   1  20
ATOM     17  C   LIG    1       -2.283   8.643  -3.886  0.00  0.00    +0.280 A 
ATOM     18  N   LIG    1       -3.025   8.179  -4.857  0.00  0.00    -0.580 NA
ATOM     19  S   LIG    1       -3.528   6.635  -4.357  0.00  0.00    +0.100 S 
ATOM     20  C   LIG    1       -2.708   6.705  -2.843  0.00  0.00    +0.400 A 
ATOM     21  N   LIG    1       -2.113   7.878  -2.828  0.00  0.00    -0.580 NA
BRANCH  17  23
ATOM     22  C   LIG    1       -2.085  10.840  -5.609  0.00  0.00    +0.120 C 
ATOM     23  S   LIG    1       -1.538  10.237  -3.988  0.00  0.00    -0.030 S 
ENDBRANCH  17  23
ENDBRANCH   1  20
TORSDOF 2
