REMARK  Name = ZINCrg00000SjSDO.0
REMARK                            x       y       z     vdW  Elec       q    Type
REMARK                         _______ _______ _______ _____ _____    ______ ____
ROOT
ATOM      1  C   LIG    1       -1.360   2.817  -1.780  0.00  0.00    +0.610 C 
ATOM      2  N   LIG    1       -0.457   1.902  -1.377  0.00  0.00    -0.600 N 
ATOM      3  C   LIG    1        0.360   0.954  -2.189  0.00  0.00    +0.290 C 
ATOM      4  C   LIG    1        1.140   0.239  -1.033  0.00  0.00    +0.000 C 
ATOM      5  C   LIG    1        0.017   0.012   0.013  0.00  0.00    +0.050 C 
ATOM      6  C   LIG    1        1.541   1.354  -0.018  0.00  0.00    +0.060 C 
ATOM      7  C   LIG    1       -0.002   1.560   0.009  0.00  0.00    +0.120 C 
ATOM      8  O   LIG    1       -2.008   3.436  -0.957  0.00  0.00    -0.520 OA
ENDROOT
BRANCH   1  14
ATOM      9  C   LIG    1       -3.168   4.993  -3.031  0.00  0.00    +0.390 C 
ATOM     10  N   LIG    1       -2.358   4.026  -3.777  0.00  0.00    -0.250 N 
ATOM     11  N   LIG    1       -2.288   3.950  -5.057  0.00  0.00    -0.260 NA
ATOM     12  C   LIG    1       -1.482   2.987  -5.424  0.00  0.00    +0.060 A 
ATOM     13  C   LIG    1       -0.979   2.385  -4.269  0.00  0.00    -0.030 A 
ATOM     14  C   LIG    1       -1.562   3.068  -3.216  0.00  0.00    -0.040 A 
BRANCH  12  15
ATOM     15  C   LIG    1       -1.151   2.599  -6.843  0.00  0.00    +0.040 C 
ATOM     16  C   LIG    1        0.079   1.718  -7.065  0.00  0.00    +0.030 C 
ATOM     17  C   LIG    1        0.115   3.196  -7.461  0.00  0.00    +0.030 C 
ENDBRANCH  12  15
ENDBRANCH   1  14
BRANCH   7  18
ATOM     18  C   LIG    1       -0.632   2.319   1.179  0.00  0.00    +0.320 C 
BRANCH  18  19
ATOM     19  N   LIG    1       -0.633   3.754   0.887  0.00  0.00    -0.700 N 
ATOM     20  H   LIG    1       -0.266   4.079   0.049  0.00  0.00    +0.400 HD
ATOM     21  C   LIG    1       -1.143   4.624   1.781  0.00  0.00    +0.570 C 
ATOM     22  O   LIG    1       -1.601   4.218   2.828  0.00  0.00    -0.540 OA
BRANCH  21  23
ATOM     23  C   LIG    1       -1.143   6.101   1.480  0.00  0.00    -0.210 C 
ATOM     24  C   LIG    1       -1.597   6.550   0.073  0.00  0.00    +0.260 C 
ATOM     25  O   LIG    1       -1.881   7.960   0.210  0.00  0.00    -0.370 OA
ATOM     26  C   LIG    1       -2.547   8.092   1.485  0.00  0.00    +0.240 C 
ATOM     27  C   LIG    1       -0.237   7.040   2.278  0.00  0.00    +0.110 C 
ATOM     28  C   LIG    1       -1.782   7.138   2.430  0.00  0.00    -0.030 C 
ENDBRANCH  21  23
ENDBRANCH  18  19
ENDBRANCH   7  18
TORSDOF 5
