REMARK  Name = ZINCpe000000Yajw.0
REMARK                            x       y       z     vdW  Elec       q    Type
REMARK                         _______ _______ _______ _____ _____    ______ ____
ROOT
ATOM      1  N   LIG    1       -3.293   3.097   4.553  0.00  0.00    -0.490 N 
ATOM      2  C   LIG    1       -3.118   3.790   3.269  0.00  0.00    +0.220 C 
ATOM      3  C   LIG    1       -4.429   3.737   2.481  0.00  0.00    +0.190 C 
ATOM      4  N   LIG    1       -5.498   4.363   3.272  0.00  0.00    -0.520 NA
ATOM      5  C   LIG    1       -5.673   3.670   4.556  0.00  0.00    +0.200 C 
ATOM      6  C   LIG    1       -4.362   3.722   5.344  0.00  0.00    +0.220 C 
ENDROOT
BRANCH   1  12
ATOM      7  C   LIG    1       -1.451   1.835   5.471  0.00  0.00    -0.060 A 
ATOM      8  C   LIG    1       -0.250   1.825   6.187  0.00  0.00    +0.130 A 
ATOM      9  C   LIG    1        0.239   3.028   6.667  0.00  0.00    -0.030 A 
ATOM     10  C   LIG    1       -0.464   4.194   6.427  0.00  0.00    +0.310 A 
ATOM     11  N   LIG    1       -1.596   4.182   5.749  0.00  0.00    -0.500 NA
ATOM     12  C   LIG    1       -2.106   3.062   5.264  0.00  0.00    +0.340 A 
BRANCH   7  17
ATOM     13  C   LIG    1       -2.155  -2.918   4.153  0.00  0.00    +0.210 C 
ATOM     14  C   LIG    1       -2.332  -1.438   4.370  0.00  0.00    +0.170 A 
ATOM     15  N   LIG    1       -3.358  -0.726   4.008  0.00  0.00    -0.390 NA
ATOM     16  O   LIG    1       -3.204   0.434   4.327  0.00  0.00    +0.120 OA
ATOM     17  C   LIG    1       -2.018   0.582   4.937  0.00  0.00    +0.240 A 
ATOM     18  N   LIG    1       -1.456  -0.615   4.966  0.00  0.00    -0.480 NA
ENDBRANCH   7  17
ENDBRANCH   1  12
BRANCH   4  19
ATOM     19  C   LIG    1       -6.758   4.400   2.518  0.00  0.00    +0.220 C 
BRANCH  19  20
ATOM     20  C   LIG    1       -6.608   5.320   1.334  0.00  0.00    +0.520 C 
ATOM     21  N   LIG    1       -7.644   5.511   0.493  0.00  0.00    -0.710 N 
ATOM     22  H   LIG    1       -8.486   5.056   0.650  0.00  0.00    +0.400 HD
ATOM     23  O   LIG    1       -5.555   5.889   1.137  0.00  0.00    -0.520 OA
BRANCH  21  24
ATOM     24  C   LIG    1       -7.498   6.406  -0.658  0.00  0.00    +0.220 C 
ATOM     25  C   LIG    1       -8.646   7.373  -0.951  0.00  0.00    +0.010 C 
ATOM     26  C   LIG    1       -8.412   6.165  -1.861  0.00  0.00    +0.010 C 
ENDBRANCH  21  24
ENDBRANCH  19  20
ENDBRANCH   4  19
TORSDOF 5
