REMARK  Name = ZINCwl0000000wEe.0
REMARK                            x       y       z     vdW  Elec       q    Type
REMARK                         _______ _______ _______ _____ _____    ______ ____
ROOT
ATOM      1  N   LIG    1       -0.488   0.871  -4.893  0.00  0.00    -0.510 N 
ATOM      2  H   LIG    1        0.338   0.371  -4.993  0.00  0.00    +0.440 HD
ATOM      3  C   LIG    1       -0.979   1.121  -3.663  0.00  0.00    +0.520 C 
ATOM      4  O   LIG    1       -2.011   1.746  -3.537  0.00  0.00    -0.530 OA
ENDROOT
BRANCH   1   6
ATOM      5  C   LIG    1       -0.679   1.081  -7.256  0.00  0.00    +0.570 C 
ATOM      6  N   LIG    1       -1.170   1.332  -6.026  0.00  0.00    -0.520 N 
ATOM      7  H   LIG    1       -1.995   1.831  -5.926  0.00  0.00    +0.430 HD
ATOM      8  O   LIG    1        0.356   0.455  -7.382  0.00  0.00    -0.530 OA
BRANCH   5  12
ATOM      9  C   LIG    1       -2.746   2.479 -10.693  0.00  0.00    +0.190 A 
ATOM     10  C   LIG    1       -1.562   1.763 -10.839  0.00  0.00    +0.020 A 
ATOM     11  C   LIG    1       -0.890   1.308  -9.727  0.00  0.00    +0.110 A 
ATOM     12  C   LIG    1       -1.397   1.567  -8.451  0.00  0.00    -0.160 A 
ATOM     13  C   LIG    1       -2.590   2.282  -8.308  0.00  0.00    +0.070 A 
ATOM     14  C   LIG    1       -3.254   2.738  -9.424  0.00  0.00    -0.010 A 
BRANCH   9  16
ATOM     15  C   LIG    1       -3.406   2.215 -12.959  0.00  0.00    +0.520 C 
ATOM     16  N   LIG    1       -3.425   2.937 -11.821  0.00  0.00    -0.670 N 
ATOM     17  H   LIG    1       -3.911   3.776 -11.788  0.00  0.00    +0.420 HD
ATOM     18  O   LIG    1       -2.881   1.122 -12.975  0.00  0.00    -0.500 OA
BRANCH  15  19
ATOM     19  C   LIG    1       -4.038   2.765 -14.211  0.00  0.00    +0.260 C 
BRANCH  19  21
ATOM     20  N   LIG    1       -3.768   1.042 -16.151  0.00  0.00    -0.390 NA
ATOM     21  C   LIG    1       -3.886   1.793 -15.306  0.00  0.00    +0.210 C 
ENDBRANCH  19  21
ENDBRANCH  15  19
ENDBRANCH   9  16
ENDBRANCH   5  12
ENDBRANCH   1   6
BRANCH   3  22
ATOM     22  C   LIG    1       -0.245   0.625  -2.443  0.00  0.00    +0.080 C 
BRANCH  22  23
ATOM     23  C   LIG    1       -1.009   1.041  -1.185  0.00  0.00    +0.290 C 
BRANCH  23  24
ATOM     24  N   LIG    1       -0.294   0.558   0.004  0.00  0.00    -0.390 N 
ATOM     25  C   LIG    1       -1.087   0.851   1.205  0.00  0.00    +0.280 C 
ATOM     26  C   LIG    1       -0.352   0.331   2.442  0.00  0.00    +0.230 C 
ATOM     27  N   LIG    1        0.965   0.978   2.534  0.00  0.00    -0.490 N 
ATOM     28  C   LIG    1        1.761   0.714   1.327  0.00  0.00    +0.220 C 
ATOM     29  C   LIG    1        1.008   1.230   0.099  0.00  0.00    +0.270 C 
ATOM     30  H   LIG    1       -0.153  -0.439  -0.070  0.00  0.00    +0.420 HD
BRANCH  27  31
ATOM     31  C   LIG    1        1.646   0.568   3.682  0.00  0.00    +0.080 A 
ATOM     32  C   LIG    1        2.905  -0.009   3.577  0.00  0.00    -0.030 A 
ATOM     33  C   LIG    1        3.577  -0.409   4.715  0.00  0.00    +0.040 A 
ATOM     34  C   LIG    1        2.993  -0.245   5.958  0.00  0.00    +0.000 A 
ATOM     35  C   LIG    1        1.738   0.324   6.066  0.00  0.00    +0.040 A 
ATOM     36  C   LIG    1        1.062   0.731   4.932  0.00  0.00    +0.000 A 
ENDBRANCH  27  31
ENDBRANCH  23  24
ENDBRANCH  22  23
ENDBRANCH   3  22
TORSDOF 9
