REMARK  Name = ZINCrH000004oFnF.0
REMARK                            x       y       z     vdW  Elec       q    Type
REMARK                         _______ _______ _______ _____ _____    ______ ____
ROOT
ATOM      1  C   LIG    1        0.162   0.739   0.319  0.00  0.00    +0.600 C 
ATOM      2  N   LIG    1       -0.820   1.452  -0.266  0.00  0.00    -0.610 N 
ATOM      3  C   LIG    1       -0.537   2.761  -0.871  0.00  0.00    +0.270 C 
ATOM      4  C   LIG    1       -1.039   2.754  -2.318  0.00  0.00    +0.030 C 
ATOM      5  C   LIG    1       -2.518   2.359  -2.339  0.00  0.00    +0.060 C 
ATOM      6  C   LIG    1       -2.679   0.949  -1.765  0.00  0.00    -0.010 C 
ATOM      7  C   LIG    1       -2.194   0.933  -0.317  0.00  0.00    +0.300 C 
ATOM      8  O   LIG    1       -0.061  -0.388   0.722  0.00  0.00    -0.530 OA
ENDROOT
BRANCH   1  16
ATOM      9  C   LIG    1        7.628   1.471   0.593  0.00  0.00    +0.030 C 
ATOM     10  C   LIG    1        6.202   1.978   0.371  0.00  0.00    -0.020 C 
ATOM     11  C   LIG    1        5.905   3.115   1.354  0.00  0.00    +0.030 C 
ATOM     12  C   LIG    1        4.592   3.791   0.952  0.00  0.00    +0.110 C 
ATOM     13  C   LIG    1        3.533   2.722   0.757  0.00  0.00    -0.200 A 
ATOM     14  C   LIG    1        3.797   1.405   0.602  0.00  0.00    -0.120 A 
ATOM     15  C   LIG    1        2.670   0.622   0.440  0.00  0.00    +0.110 A 
ATOM     16  C   LIG    1        1.500   1.319   0.466  0.00  0.00    -0.280 A 
ATOM     17  S   LIG    1        1.853   3.023   0.697  0.00  0.00    +0.210 S 
ATOM     18  C   LIG    1        5.211   0.837   0.605  0.00  0.00    +0.110 C 
ENDBRANCH   1  16
BRANCH   6  19
ATOM     19  C   LIG    1       -4.131   0.549  -1.815  0.00  0.00    +0.510 C 
ATOM     20  N   LIG    1       -4.513  -0.661  -1.360  0.00  0.00    -0.660 N 
ATOM     21  H   LIG    1       -3.865  -1.245  -0.935  0.00  0.00    +0.420 HD
ATOM     22  O   LIG    1       -4.956   1.315  -2.266  0.00  0.00    -0.460 OA
BRANCH  20  23
ATOM     23  C   LIG    1       -5.837  -1.072  -1.499  0.00  0.00    +0.360 A 
ATOM     24  C   LIG    1       -6.242  -2.286  -0.956  0.00  0.00    -0.070 A 
ATOM     25  C   LIG    1       -7.562  -2.679  -1.097  0.00  0.00    +0.090 A 
ATOM     26  C   LIG    1       -8.431  -1.847  -1.788  0.00  0.00    -0.060 A 
ATOM     27  C   LIG    1       -7.958  -0.657  -2.307  0.00  0.00    +0.290 A 
ATOM     28  N   LIG    1       -6.697  -0.306  -2.152  0.00  0.00    -0.480 NA
ENDBRANCH  20  23
ENDBRANCH   6  19
TORSDOF 3
