REMARK  Name = ZINCvU0000000DhE.0
REMARK                            x       y       z     vdW  Elec       q    Type
REMARK                         _______ _______ _______ _____ _____    ______ ____
ROOT
ATOM      1  N   LIG    1        3.461  -6.712  -0.612  0.00  0.00    -0.620 N 
ATOM      2  H   LIG    1        4.158  -6.077  -0.839  0.00  0.00    +0.420 HD
ATOM      3  C   LIG    1        2.264  -6.270  -0.177  0.00  0.00    +0.530 C 
ATOM      4  O   LIG    1        1.391  -7.064   0.107  0.00  0.00    -0.480 OA
ENDROOT
BRANCH   1   6
ATOM      5  C   LIG    1        4.869  -8.624  -1.167  0.00  0.00    -0.180 A 
ATOM      6  C   LIG    1        3.694  -8.072  -0.736  0.00  0.00    +0.040 A 
ATOM      7  S   LIG    1        2.560  -9.287  -0.365  0.00  0.00    +0.310 S 
ATOM      8  C   LIG    1        3.670 -10.575  -0.803  0.00  0.00    -0.240 A 
ATOM      9  C   LIG    1        3.350 -12.056  -0.735  0.00  0.00    +0.120 C 
ATOM     10  C   LIG    1        4.385 -12.822  -1.564  0.00  0.00    +0.020 C 
ATOM     11  C   LIG    1        5.789 -12.368  -1.153  0.00  0.00    +0.020 C 
ATOM     12  C   LIG    1        6.018 -10.936  -1.643  0.00  0.00    +0.090 C 
ATOM     13  C   LIG    1        4.845 -10.075  -1.202  0.00  0.00    -0.050 A 
BRANCH   5  14
ATOM     14  C   LIG    1        6.036  -7.829  -1.556  0.00  0.00    +0.540 C 
ATOM     15  O   LIG    1        6.872  -7.528  -0.724  0.00  0.00    -0.490 OA
BRANCH  14  16
ATOM     16  O   LIG    1        6.184  -7.430  -2.836  0.00  0.00    -0.350 OA
BRANCH  16  18
ATOM     17  C   LIG    1        7.360  -6.288  -4.636  0.00  0.00    +0.070 C 
ATOM     18  C   LIG    1        7.365  -6.645  -3.149  0.00  0.00    +0.200 C 
ENDBRANCH  16  18
ENDBRANCH  14  16
ENDBRANCH   5  14
ENDBRANCH   1   6
BRANCH   3  19
ATOM     19  C   LIG    1        2.010  -4.791  -0.043  0.00  0.00    +0.010 C 
ATOM     20  C   LIG    1        2.629  -4.284   1.261  0.00  0.00    +0.090 C 
BRANCH  19  21
ATOM     21  S   LIG    1        0.222  -4.484  -0.023  0.00  0.00    +0.070 S 
BRANCH  21  22
ATOM     22  C   LIG    1        0.122  -2.725  -0.013  0.00  0.00    +0.140 A 
ATOM     23  N   LIG    1        1.233  -2.004  -0.020  0.00  0.00    -0.480 NA
ATOM     24  C   LIG    1        1.203  -0.685  -0.013  0.00  0.00    +0.360 A 
ATOM     25  C   LIG    1        0.002  -0.004   0.002  0.00  0.00    -0.240 A 
ATOM     26  C   LIG    1       -1.187  -0.722   0.015  0.00  0.00    +0.170 A 
ATOM     27  C   LIG    1       -1.125  -2.104   0.003  0.00  0.00    -0.080 A 
ATOM     28 CL   LIG    1       -2.579  -3.051   0.012  0.00  0.00    -0.010 Cl
BRANCH  25  29
ATOM     29  C   LIG    1       -0.018   1.503   0.010  0.00  0.00    +0.520 C 
ATOM     30  F   LIG    1       -0.673   1.954   1.161  0.00  0.00    -0.170 F 
ATOM     31  F   LIG    1       -0.695   1.966  -1.123  0.00  0.00    -0.170 F 
ATOM     32  F   LIG    1        1.294   1.987   0.000  0.00  0.00    -0.170 F 
ENDBRANCH  25  29
ENDBRANCH  21  22
ENDBRANCH  19  21
ENDBRANCH   3  19
TORSDOF 8
