REMARK  Name = ZINCrH00000No4Vo.0
REMARK                            x       y       z     vdW  Elec       q    Type
REMARK                         _______ _______ _______ _____ _____    ______ ____
ROOT
ATOM      1  C   LIG    1        3.708  -0.672  -0.036  0.00  0.00    +0.590 C 
ATOM      2  N   LIG    1        3.738  -2.016   0.058  0.00  0.00    -0.630 N 
ATOM      3  C   LIG    1        2.746  -3.103   0.105  0.00  0.00    +0.270 C 
ATOM      4  C   LIG    1        3.771  -3.928   0.894  0.00  0.00    +0.000 C 
ATOM      5  C   LIG    1        3.655  -3.740   2.399  0.00  0.00    +0.040 C 
ATOM      6  C   LIG    1        5.024  -3.520   3.035  0.00  0.00    +0.020 C 
ATOM      7  C   LIG    1        5.687  -2.303   2.385  0.00  0.00    +0.020 C 
ATOM      8  C   LIG    1        6.008  -2.620   0.937  0.00  0.00    +0.040 C 
ATOM      9  C   LIG    1        4.775  -3.050   0.168  0.00  0.00    +0.220 C 
ATOM     10  O   LIG    1        4.746  -0.044  -0.098  0.00  0.00    -0.530 OA
ENDROOT
BRANCH   1  13
ATOM     11  C   LIG    1        1.173   2.104  -0.024  0.00  0.00    +0.080 A 
ATOM     12  C   LIG    1        2.380   1.435   0.002  0.00  0.00    +0.040 A 
ATOM     13  C   LIG    1        2.413   0.037  -0.065  0.00  0.00    -0.110 A 
ATOM     14  C   LIG    1        1.227  -0.685  -0.159  0.00  0.00    +0.080 A 
ATOM     15  C   LIG    1        0.004  -0.011  -0.185  0.00  0.00    -0.190 A 
ATOM     16  C   LIG    1       -0.021   1.391  -0.117  0.00  0.00    +0.170 A 
BRANCH  11  18
ATOM     17  C   LIG    1        2.408   4.130   0.136  0.00  0.00    +0.250 C 
ATOM     18  O   LIG    1        1.148   3.463   0.042  0.00  0.00    -0.300 OA
ENDBRANCH  11  18
BRANCH  15  19
ATOM     19  C   LIG    1       -1.252  -0.767  -0.284  0.00  0.00    +0.490 C 
ATOM     20  O   LIG    1       -2.313  -0.180  -0.306  0.00  0.00    -0.430 OA
ENDBRANCH  15  19
BRANCH  16  21
ATOM     21  O   LIG    1       -1.205   2.051  -0.149  0.00  0.00    -0.470 OA
ATOM     22  H   LIG    1       -1.596   2.199   0.724  0.00  0.00    +0.400 HD
ENDBRANCH  16  21
ENDBRANCH   1  13
BRANCH   9  23
ATOM     23  C   LIG    1        5.145  -3.616  -1.179  0.00  0.00    -0.090 A 
ATOM     24  C   LIG    1        5.191  -4.985  -1.364  0.00  0.00    +0.020 A 
ATOM     25  C   LIG    1        5.527  -5.505  -2.601  0.00  0.00    +0.000 A 
ATOM     26  C   LIG    1        5.824  -4.655  -3.650  0.00  0.00    +0.000 A 
ATOM     27  C   LIG    1        5.783  -3.286  -3.463  0.00  0.00    +0.000 A 
ATOM     28  C   LIG    1        5.444  -2.767  -2.228  0.00  0.00    +0.020 A 
ENDBRANCH   9  23
TORSDOF 5
