REMARK  Name = ZINCvU00000008hg.0
REMARK                            x       y       z     vdW  Elec       q    Type
REMARK                         _______ _______ _______ _____ _____    ______ ____
ROOT
ATOM      1  C   LIG    1       -2.935   6.667   5.077  0.00  0.00    +0.530 C 
ATOM      2  N   LIG    1       -3.594   6.842   6.240  0.00  0.00    -0.610 N 
ATOM      3  H   LIG    1       -3.878   6.072   6.757  0.00  0.00    +0.430 HD
ATOM      4  O   LIG    1       -2.579   7.629   4.431  0.00  0.00    -0.480 OA
ENDROOT
BRANCH   2   5
ATOM      5  C   LIG    1       -3.866   8.125   6.698  0.00  0.00    +0.270 A 
ATOM      6  N   LIG    1       -4.490   8.412   7.797  0.00  0.00    -0.490 NA
ATOM      7  C   LIG    1       -4.660   9.697   8.076  0.00  0.00    +0.120 A 
ATOM      8  C   LIG    1       -4.156  10.554   7.171  0.00  0.00    -0.100 A 
ATOM      9  S   LIG    1       -3.409   9.616   5.879  0.00  0.00    +0.220 S 
BRANCH   7  10
ATOM     10  C   LIG    1       -5.357  10.157   9.302  0.00  0.00    -0.000 A 
ATOM     11  C   LIG    1       -5.504  11.520   9.552  0.00  0.00    +0.060 A 
ATOM     12  C   LIG    1       -6.158  11.945  10.690  0.00  0.00    +0.030 A 
ATOM     13  C   LIG    1       -6.659  11.019  11.590  0.00  0.00    +0.070 A 
ATOM     14  C   LIG    1       -6.510   9.661  11.350  0.00  0.00    +0.070 A 
ATOM     15  F   LIG    1       -7.000   8.761  12.231  0.00  0.00    -0.130 F 
ATOM     16  F   LIG    1       -7.294  11.440  12.706  0.00  0.00    -0.130 F 
ATOM     17  C   LIG    1       -5.862   9.227  10.209  0.00  0.00    +0.060 A 
ENDBRANCH   7  10
ENDBRANCH   2   5
BRANCH   1  18
ATOM     18  C   LIG    1       -2.640   5.275   4.580  0.00  0.00    +0.130 C 
BRANCH  18  19
ATOM     19  S   LIG    1       -1.751   5.372   3.007  0.00  0.00    +0.070 S 
BRANCH  19  25
ATOM     20  C   LIG    1       -2.433   0.481   4.302  0.00  0.00    +0.160 C 
ATOM     21  C   LIG    1       -1.877   1.460   3.300  0.00  0.00    +0.190 A 
ATOM     22  C   LIG    1       -1.239   0.984   2.169  0.00  0.00    +0.040 A 
ATOM     23  C   LIG    1       -0.722   1.881   1.250  0.00  0.00    -0.070 A 
ATOM     24  C   LIG    1       -0.876   3.249   1.497  0.00  0.00    -0.020 A 
ATOM     25  C   LIG    1       -1.542   3.655   2.667  0.00  0.00    +0.150 A 
ATOM     26  N   LIG    1       -2.013   2.754   3.516  0.00  0.00    -0.470 NA
BRANCH  23  27
ATOM     27  C   LIG    1       -0.017   1.395   0.010  0.00  0.00    +0.510 C 
ATOM     28  F   LIG    1       -0.694   1.858  -1.124  0.00  0.00    -0.160 F 
ATOM     29  F   LIG    1        1.296   1.879  -0.000  0.00  0.00    -0.160 F 
ATOM     30  F   LIG    1        0.002  -0.004   0.002  0.00  0.00    -0.160 F 
ENDBRANCH  23  27
BRANCH  24  31
ATOM     31  C   LIG    1       -0.366   4.219   0.575  0.00  0.00    +0.220 C 
ATOM     32  N   LIG    1        0.040   4.988  -0.157  0.00  0.00    -0.350 NA
ENDBRANCH  24  31
ENDBRANCH  19  25
ENDBRANCH  18  19
ENDBRANCH   1  18
TORSDOF 7
