REMARK  Name = ZINCrD00000hQ76R.0
REMARK                            x       y       z     vdW  Elec       q    Type
REMARK                         _______ _______ _______ _____ _____    ______ ____
ROOT
ATOM      1  C   LIG    1        4.572   0.196  -1.757  0.00  0.00    -0.090 A 
ATOM      2  C   LIG    1        3.514  -0.683  -1.521  0.00  0.00    +0.000 A 
ATOM      3  C   LIG    1        3.515  -1.935  -2.103  0.00  0.00    +0.050 A 
ATOM      4  C   LIG    1        4.567  -2.325  -2.911  0.00  0.00    -0.060 A 
ATOM      5  C   LIG    1        5.626  -1.459  -3.147  0.00  0.00    +0.130 A 
ATOM      6  C   LIG    1        5.633  -0.199  -2.572  0.00  0.00    +0.040 A 
ENDROOT
BRANCH   1   8
ATOM      7  O   LIG    1        5.620   2.057  -0.808  0.00  0.00    -0.530 OA
ATOM      8  C   LIG    1        4.571   1.540  -1.140  0.00  0.00    +0.570 C 
ATOM      9  N   LIG    1        3.407   2.192  -0.945  0.00  0.00    -0.610 N 
ATOM     10  C   LIG    1        3.359   3.472  -0.220  0.00  0.00    +0.290 C 
ATOM     11  C   LIG    1        2.891   4.548  -1.199  0.00  0.00    +0.070 C 
ATOM     12  C   LIG    1        1.680   4.085  -1.966  0.00  0.00    -0.070 A 
ATOM     13  C   LIG    1        0.891   5.056  -2.571  0.00  0.00    +0.000 A 
ATOM     14  C   LIG    1       -0.223   4.699  -3.301  0.00  0.00    +0.000 A 
ATOM     15  C   LIG    1       -0.558   3.365  -3.437  0.00  0.00    +0.000 A 
ATOM     16  C   LIG    1        0.217   2.399  -2.828  0.00  0.00    +0.010 A 
ATOM     17  C   LIG    1        1.339   2.757  -2.092  0.00  0.00    -0.100 A 
ATOM     18  C   LIG    1        2.139   1.653  -1.447  0.00  0.00    +0.330 C 
ENDBRANCH   1   8
BRANCH   5  19
ATOM     19  O   LIG    1        6.658  -1.848  -3.941  0.00  0.00    -0.300 OA
BRANCH  19  20
ATOM     20  C   LIG    1        6.586  -3.161  -4.501  0.00  0.00    +0.250 C 
BRANCH  20  21
ATOM     21  C   LIG    1        7.826  -3.418  -5.359  0.00  0.00    +0.070 C 
ATOM     22  C   LIG    1        8.897  -2.326  -5.405  0.00  0.00    +0.180 C 
ATOM     23  N   LIG    1        8.011  -2.586  -6.556  0.00  0.00    -0.440 NA
BRANCH  23  24
ATOM     24  C   LIG    1        8.720  -3.327  -7.608  0.00  0.00    +0.180 C 
BRANCH  24  25
ATOM     25  C   LIG    1        8.676  -2.528  -8.912  0.00  0.00    -0.030 C 
ATOM     26  C   LIG    1        7.932  -3.150 -10.096  0.00  0.00    +0.000 C 
ATOM     27  C   LIG    1        9.461  -3.079 -10.104  0.00  0.00    +0.010 C 
ENDBRANCH  24  25
ENDBRANCH  23  24
ENDBRANCH  20  21
ENDBRANCH  19  20
ENDBRANCH   5  19
TORSDOF 6
