REMARK  Name = ZINCtV000002EE7c.0
REMARK                            x       y       z     vdW  Elec       q    Type
REMARK                         _______ _______ _______ _____ _____    ______ ____
ROOT
ATOM      1  C   LIG    1        1.900   3.740  -1.610  0.00  0.00    +0.070 C 
ENDROOT
BRANCH   1   3
ATOM      2  N   LIG    1        2.559   5.870  -2.681  0.00  0.00    -0.610 N 
ATOM      3  C   LIG    1        2.284   5.196  -1.546  0.00  0.00    +0.520 C 
ATOM      4  O   LIG    1        2.345   5.762  -0.475  0.00  0.00    -0.530 OA
ATOM      5  C   LIG    1        2.486   5.188  -3.975  0.00  0.00    +0.280 C 
BRANCH   2   7
ATOM      6  C   LIG    1        2.010   8.096  -3.532  0.00  0.00    +0.060 C 
ATOM      7  C   LIG    1        2.933   7.286  -2.619  0.00  0.00    +0.300 C 
BRANCH   7   8
ATOM      8  C   LIG    1        4.360   7.449  -3.074  0.00  0.00    -0.080 A 
ATOM      9  C   LIG    1        4.751   8.609  -3.717  0.00  0.00    +0.060 A 
ATOM     10  C   LIG    1        6.060   8.761  -4.135  0.00  0.00    +0.030 A 
ATOM     11  C   LIG    1        6.980   7.752  -3.911  0.00  0.00    +0.070 A 
ATOM     12  C   LIG    1        6.587   6.588  -3.266  0.00  0.00    +0.070 A 
ATOM     13  F   LIG    1        7.484   5.602  -3.046  0.00  0.00    -0.130 F 
ATOM     14  F   LIG    1        8.259   7.900  -4.319  0.00  0.00    -0.130 F 
ATOM     15  C   LIG    1        5.278   6.441  -2.844  0.00  0.00    +0.030 A 
ENDBRANCH   7   8
ENDBRANCH   2   7
ENDBRANCH   1   3
BRANCH   1  16
ATOM     16  C   LIG    1        1.641   3.219  -0.195  0.00  0.00    +0.210 C 
BRANCH  16  17
ATOM     17  C   LIG    1        1.257   1.764  -0.258  0.00  0.00    +0.200 A 
ATOM     18  N   LIG    1        2.087   0.759  -0.203  0.00  0.00    -0.470 NA
ATOM     19  C   LIG    1        1.391  -0.384  -0.288  0.00  0.00    +0.190 A 
ATOM     20  C   LIG    1        0.078  -0.056  -0.399  0.00  0.00    -0.020 A 
ATOM     21  O   LIG    1        0.009   1.293  -0.379  0.00  0.00    -0.180 OA
BRANCH  20  22
ATOM     22  C   LIG    1       -1.058  -0.995  -0.519  0.00  0.00    -0.010 A 
ATOM     23  C   LIG    1       -1.022  -2.021  -1.464  0.00  0.00    +0.080 A 
ATOM     24  C   LIG    1       -2.084  -2.894  -1.571  0.00  0.00    +0.050 A 
ATOM     25  C   LIG    1       -3.185  -2.756  -0.743  0.00  0.00    -0.010 A 
ATOM     26  C   LIG    1       -3.228  -1.740   0.198  0.00  0.00    +0.050 A 
ATOM     27 CL   LIG    1       -4.518  -3.859  -0.884  0.00  0.00    -0.050 Cl
ATOM     28  C   LIG    1       -2.169  -0.863   0.318  0.00  0.00    -0.010 A 
ATOM     29 CL   LIG    1       -2.220   0.406   1.502  0.00  0.00    -0.040 Cl
ENDBRANCH  20  22
ENDBRANCH  16  17
ENDBRANCH   1  16
TORSDOF 6
