REMARK  Name = ZINCpe00000MJK5V.0
REMARK                            x       y       z     vdW  Elec       q    Type
REMARK                         _______ _______ _______ _____ _____    ______ ____
ROOT
ATOM      1  C   LIG    1        3.330   1.942  -0.286  0.00  0.00    -0.070 C 
ATOM      2  C   LIG    1        3.988   1.054  -1.298  0.00  0.00    +0.030 C 
ATOM      3  C   LIG    1        3.214   0.987  -2.612  0.00  0.00    +0.220 C 
ATOM      4  O   LIG    1        3.005   2.334  -3.056  0.00  0.00    -0.370 OA
ATOM      5  C   LIG    1        2.080   3.037  -2.238  0.00  0.00    +0.220 C 
ATOM      6  C   LIG    1        2.432   1.173   0.701  0.00  0.00    +0.300 C 
ATOM      7  N   LIG    1        1.060   1.656   0.412  0.00  0.00    -0.620 N 
ATOM      8  C   LIG    1       -0.087   0.949   0.441  0.00  0.00    +0.600 C 
ATOM      9  O   LIG    1       -0.058  -0.251   0.629  0.00  0.00    -0.510 OA
ATOM     10  C   LIG    1        1.235   3.094   0.092  0.00  0.00    +0.280 C 
ATOM     11  C   LIG    1        2.517   3.120  -0.788  0.00  0.00    +0.000 C 
ENDROOT
BRANCH   8  12
ATOM     12  C   LIG    1       -1.382   1.633   0.236  0.00  0.00    -0.250 A 
ATOM     13  C   LIG    1       -1.601   2.922   0.734  0.00  0.00    +0.360 A 
ATOM     14  N   LIG    1       -2.771   3.499   0.522  0.00  0.00    -0.520 NA
ATOM     15  C   LIG    1       -3.727   2.873  -0.135  0.00  0.00    +0.350 A 
ATOM     16  N   LIG    1       -3.565   1.656  -0.617  0.00  0.00    -0.520 NA
ATOM     17  C   LIG    1       -5.046   3.570  -0.344  0.00  0.00    +0.180 C 
ATOM     18  C   LIG    1       -2.425   1.008  -0.457  0.00  0.00    +0.270 A 
BRANCH  18  19
ATOM     19  C   LIG    1       -2.250  -0.383  -1.011  0.00  0.00    +0.010 C 
ATOM     20  C   LIG    1       -3.417  -0.981  -1.800  0.00  0.00    +0.050 C 
ATOM     21  C   LIG    1       -3.097  -1.500  -0.396  0.00  0.00    +0.050 C 
ENDBRANCH  18  19
ENDBRANCH   8  12
BRANCH   1  25
ATOM     22  C   LIG    1        6.407   2.268   1.968  0.00  0.00    +0.280 C 
ATOM     23  N   LIG    1        5.332   1.705   1.147  0.00  0.00    -0.730 N 
ATOM     24  H   LIG    1        5.266   0.745   1.028  0.00  0.00    +0.400 HD
ATOM     25  C   LIG    1        4.436   2.522   0.558  0.00  0.00    +0.520 C 
ATOM     26  O   LIG    1        4.519   3.722   0.708  0.00  0.00    -0.530 OA
ENDBRANCH   1  25
TORSDOF 3
