REMARK  Name = ZINCrD000000AqRs.0
REMARK                            x       y       z     vdW  Elec       q    Type
REMARK                         _______ _______ _______ _____ _____    ______ ____
ROOT
ATOM      1  O   LIG    1       -0.661  -1.908  -0.925  0.00  0.00    -0.510 OA
ATOM      2  C   LIG    1       -0.685  -0.695  -0.929  0.00  0.00    +0.520 C 
ATOM      3  N   LIG    1        0.002  -0.004   0.002  0.00  0.00    -0.610 N 
ATOM      4  C   LIG    1       -0.018   1.465   0.010  0.00  0.00    +0.270 C 
ATOM      5  C   LIG    1        1.426   1.978  -0.001  0.00  0.00    +0.030 C 
ATOM      6  C   LIG    1        2.194   1.353   1.166  0.00  0.00    +0.040 C 
ATOM      7  C   LIG    1        2.220  -0.169   1.005  0.00  0.00    +0.090 C 
ATOM      8  C   LIG    1        0.786  -0.706   1.028  0.00  0.00    +0.320 C 
ENDROOT
BRANCH   7   9
ATOM      9  C   LIG    1        3.004  -0.781   2.137  0.00  0.00    +0.140 A 
ATOM     10  N   LIG    1        2.734  -0.673   3.413  0.00  0.00    -0.240 NA
ATOM     11  N   LIG    1        3.601  -1.321   4.109  0.00  0.00    -0.290 NA
ATOM     12  C   LIG    1        4.490  -1.876   3.301  0.00  0.00    +0.190 A 
ATOM     13  C   LIG    1        5.631  -2.672   3.517  0.00  0.00    +0.080 A 
ATOM     14  C   LIG    1        6.356  -3.098   2.448  0.00  0.00    +0.060 A 
ATOM     15  C   LIG    1        5.958  -2.739   1.149  0.00  0.00    +0.030 A 
ATOM     16  C   LIG    1        4.862  -1.976   0.957  0.00  0.00    +0.230 A 
ATOM     17  N   LIG    1        4.126  -1.542   2.020  0.00  0.00    -0.390 N 
ENDBRANCH   7   9
BRANCH   2  18
ATOM     18  C   LIG    1       -1.484   0.039  -1.975  0.00  0.00    +0.240 C 
BRANCH  18  19
ATOM     19  O   LIG    1       -2.117  -0.905  -2.840  0.00  0.00    -0.270 OA
BRANCH  19  20
ATOM     20  C   LIG    1       -2.882  -0.404  -3.847  0.00  0.00    +0.130 A 
ATOM     21  C   LIG    1       -3.024   0.967  -3.994  0.00  0.00    -0.020 A 
ATOM     22  C   LIG    1       -3.798   1.475  -5.020  0.00  0.00    +0.040 A 
ATOM     23  C   LIG    1       -4.440   0.616  -5.895  0.00  0.00    +0.080 A 
ATOM     24  C   LIG    1       -4.304  -0.754  -5.747  0.00  0.00    +0.050 A 
ATOM     25  F   LIG    1       -5.200   1.115  -6.894  0.00  0.00    -0.130 F 
ATOM     26  C   LIG    1       -3.526  -1.265  -4.725  0.00  0.00    -0.040 A 
ATOM     27 CL   LIG    1       -3.356  -2.983  -4.538  0.00  0.00    -0.030 Cl
ENDBRANCH  19  20
ENDBRANCH  18  19
ENDBRANCH   2  18
TORSDOF 4
