REMARK  Name = ZINCtV000002O5Pj.0
REMARK                            x       y       z     vdW  Elec       q    Type
REMARK                         _______ _______ _______ _____ _____    ______ ____
ROOT
ATOM      1  C   LIG    1        4.953  -2.675   0.031  0.00  0.00    +0.140 A 
ATOM      2  C   LIG    1        6.115  -1.919   0.114  0.00  0.00    -0.020 A 
ATOM      3  C   LIG    1        7.343  -2.548   0.194  0.00  0.00    +0.030 A 
ATOM      4  C   LIG    1        7.415  -3.928   0.179  0.00  0.00    -0.080 A 
ATOM      5  C   LIG    1        6.261  -4.684   0.091  0.00  0.00    +0.020 A 
ATOM      6  C   LIG    1        5.030  -4.061   0.017  0.00  0.00    +0.020 A 
ENDROOT
BRANCH   4   7
ATOM      7  C   LIG    1        8.756  -4.611   0.261  0.00  0.00    -0.010 C 
ATOM      8  C   LIG    1        8.800  -5.502   1.504  0.00  0.00    +0.020 C 
ATOM      9  C   LIG    1       10.162  -6.196   1.586  0.00  0.00    -0.020 C 
ATOM     10  C   LIG    1       10.374  -7.053   0.337  0.00  0.00    +0.010 C 
ATOM     11  C   LIG    1       10.330  -6.162  -0.906  0.00  0.00    -0.020 C 
ATOM     12  C   LIG    1       11.435  -5.107  -0.818  0.00  0.00    +0.010 C 
ATOM     13  C   LIG    1       11.223  -4.250   0.432  0.00  0.00    -0.020 C 
ATOM     14  C   LIG    1       11.267  -5.141   1.675  0.00  0.00    +0.010 C 
ATOM     15  C   LIG    1        8.969  -5.468  -0.989  0.00  0.00    +0.020 C 
ATOM     16  C   LIG    1        9.861  -3.557   0.349  0.00  0.00    +0.040 C 
ENDBRANCH   4   7
BRANCH   1  19
ATOM     17  O   LIG    1        2.725  -3.688   1.076  0.00  0.00    -0.500 OA
ATOM     18  C   LIG    1        2.633  -2.596   0.549  0.00  0.00    +0.560 C 
ATOM     19  N   LIG    1        3.709  -2.041  -0.044  0.00  0.00    -0.670 N 
ATOM     20  H   LIG    1        3.620  -1.202  -0.522  0.00  0.00    +0.410 HD
BRANCH  18  21
ATOM     21  C   LIG    1        1.344  -1.879   0.558  0.00  0.00    -0.160 A 
ATOM     22  C   LIG    1        1.234  -0.624  -0.047  0.00  0.00    +0.090 A 
ATOM     23  C   LIG    1        0.027   0.041  -0.034  0.00  0.00    -0.010 A 
ATOM     24  C   LIG    1       -1.079  -0.530   0.575  0.00  0.00    +0.090 A 
ATOM     25  C   LIG    1       -0.984  -1.769   1.176  0.00  0.00    -0.060 A 
ATOM     26  C   LIG    1        0.223  -2.452   1.173  0.00  0.00    +0.170 A 
BRANCH  26  27
ATOM     27  O   LIG    1        0.318  -3.670   1.763  0.00  0.00    -0.290 OA
BRANCH  27  28
ATOM     28  C   LIG    1       -0.867  -4.191   2.370  0.00  0.00    +0.600 C 
ATOM     29  F   LIG    1       -1.869  -4.319   1.403  0.00  0.00    -0.200 F 
ATOM     30  F   LIG    1       -1.297  -3.319   3.376  0.00  0.00    -0.200 F 
ENDBRANCH  27  28
ENDBRANCH  26  27
ENDBRANCH  18  21
ENDBRANCH   1  19
TORSDOF 5
