REMARK  Name = ZINCrg00000UCDuT.0
REMARK                            x       y       z     vdW  Elec       q    Type
REMARK                         _______ _______ _______ _____ _____    ______ ____
ROOT
ATOM      1  N   LIG    1        3.813   0.955   5.755  0.00  0.00    -0.710 N 
ATOM      2  H   LIG    1        4.774   0.950   5.627  0.00  0.00    +0.410 HD
ATOM      3  C   LIG    1        3.001   0.499   4.780  0.00  0.00    +0.500 C 
ATOM      4  O   LIG    1        1.799   0.505   4.939  0.00  0.00    -0.500 OA
ENDROOT
BRANCH   1  10
ATOM      5  C   LIG    1        4.276   1.324   8.130  0.00  0.00    +0.130 C 
ATOM      6  C   LIG    1        3.697   1.924   9.415  0.00  0.00    -0.000 C 
ATOM      7  C   LIG    1        3.304   3.381   9.157  0.00  0.00    +0.220 C 
ATOM      8  O   LIG    1        2.365   3.437   8.081  0.00  0.00    -0.370 OA
ATOM      9  C   LIG    1        2.868   2.933   6.842  0.00  0.00    +0.230 C 
ATOM     10  C   LIG    1        3.243   1.458   7.007  0.00  0.00    +0.240 C 
BRANCH   5  11
ATOM     11  O   LIG    1        5.467   2.026   7.769  0.00  0.00    -0.550 OA
ATOM     12  H   LIG    1        6.166   1.983   8.436  0.00  0.00    +0.390 HD
ENDBRANCH   5  11
BRANCH   5  13
ATOM     13  C   LIG    1        4.598  -0.154   8.355  0.00  0.00    +0.160 C 
BRANCH  13  15
ATOM     14  C   LIG    1        5.837  -1.634   9.777  0.00  0.00    +0.200 C 
ATOM     15  O   LIG    1        5.472  -0.285   9.479  0.00  0.00    -0.390 OA
ENDBRANCH  13  15
ENDBRANCH   5  13
ENDBRANCH   1  10
BRANCH   3  16
ATOM     16  C   LIG    1        3.588  -0.019   3.492  0.00  0.00    +0.340 C 
BRANCH  16  17
ATOM     17  N   LIG    1        2.508  -0.452   2.603  0.00  0.00    -0.410 N 
ATOM     18  C   LIG    1        1.964  -1.690   2.539  0.00  0.00    +0.100 A 
ATOM     19  N   LIG    1        1.026  -1.692   1.629  0.00  0.00    -0.420 NA
ATOM     20  C   LIG    1        0.939  -0.474   1.087  0.00  0.00    +0.010 A 
ATOM     21  C   LIG    1        0.002  -0.004   0.002  0.00  0.00    +0.130 C 
ATOM     22  C   LIG    1       -0.019   1.529   0.011  0.00  0.00    +0.030 C 
ATOM     23  C   LIG    1        1.417   2.061  -0.000  0.00  0.00    +0.040 C 
ATOM     24  C   LIG    1        2.081   1.767   1.351  0.00  0.00    +0.120 C 
ATOM     25  C   LIG    1        1.859   0.314   1.683  0.00  0.00    +0.030 A 
BRANCH  18  26
ATOM     26  C   LIG    1        2.373  -2.871   3.381  0.00  0.00    +0.560 C 
ATOM     27  F   LIG    1        1.877  -2.713   4.679  0.00  0.00    -0.160 F 
ATOM     28  F   LIG    1        3.769  -2.954   3.422  0.00  0.00    -0.170 F 
ATOM     29  F   LIG    1        1.853  -4.044   2.822  0.00  0.00    -0.150 F 
ENDBRANCH  18  26
ENDBRANCH  16  17
ENDBRANCH   3  16
TORSDOF 7
