REMARK  Name = ZINCrH000004ofxO.0
REMARK                            x       y       z     vdW  Elec       q    Type
REMARK                         _______ _______ _______ _____ _____    ______ ____
ROOT
ATOM      1  N   LIG    1       -1.156  -0.694   0.009  0.00  0.00    -0.730 N 
ATOM      2  H   LIG    1       -2.002  -0.220   0.020  0.00  0.00    +0.400 HD
ATOM      3  C   LIG    1        0.002  -0.004   0.002  0.00  0.00    +0.520 C 
ATOM      4  O   LIG    1        1.060  -0.596  -0.011  0.00  0.00    -0.530 OA
ENDROOT
BRANCH   1   6
ATOM      5  C   LIG    1       -1.017  -2.659  -1.440  0.00  0.00    +0.040 C 
ATOM      6  C   LIG    1       -1.136  -2.159   0.001  0.00  0.00    +0.280 C 
BRANCH   6   7
ATOM      7  C   LIG    1       -2.411  -2.682   0.611  0.00  0.00    -0.090 A 
ATOM      8  C   LIG    1       -3.616  -2.064   0.335  0.00  0.00    +0.000 A 
ATOM      9  C   LIG    1       -4.779  -2.547   0.899  0.00  0.00    +0.000 A 
ATOM     10  C   LIG    1       -4.749  -3.650   1.743  0.00  0.00    -0.070 A 
ATOM     11  C   LIG    1       -6.053  -4.115   2.336  0.00  0.00    +0.070 C 
ATOM     12  C   LIG    1       -5.923  -5.542   2.866  0.00  0.00    +0.020 C 
ATOM     13  C   LIG    1       -4.693  -5.609   3.779  0.00  0.00    +0.020 C 
ATOM     14  C   LIG    1       -3.442  -5.473   2.912  0.00  0.00    +0.080 C 
ATOM     15  C   LIG    1       -3.549  -4.268   2.014  0.00  0.00    -0.070 A 
ATOM     16  C   LIG    1       -2.380  -3.782   1.443  0.00  0.00    +0.010 A 
ENDBRANCH   6   7
ENDBRANCH   1   6
BRANCH   3  17
ATOM     17  C   LIG    1       -0.018   1.503   0.010  0.00  0.00    +0.050 C 
BRANCH  17  18
ATOM     18  C   LIG    1        1.417   2.032  -0.001  0.00  0.00    +0.310 C 
BRANCH  18  19
ATOM     19  N   LIG    1        1.397   3.497   0.007  0.00  0.00    -0.750 N 
ATOM     20  H   LIG    1        0.551   3.971   0.018  0.00  0.00    +0.390 HD
ATOM     21  C   LIG    1        2.555   4.187   0.000  0.00  0.00    +0.700 C 
ATOM     22  N   LIG    1        2.537   5.535   0.008  0.00  0.00    -0.740 N 
ATOM     23  H   LIG    1        1.690   6.008   0.018  0.00  0.00    +0.390 HD
ATOM     24  O   LIG    1        3.616   3.593  -0.013  0.00  0.00    -0.580 OA
BRANCH  22  25
ATOM     25  C   LIG    1        3.795   6.284  -0.000  0.00  0.00    +0.250 C 
ATOM     26  C   LIG    1        4.312   6.429   1.433  0.00  0.00    +0.000 C 
ATOM     27  C   LIG    1        5.626   7.212   1.424  0.00  0.00    +0.010 C 
ATOM     28  C   LIG    1        5.389   8.600   0.824  0.00  0.00    +0.000 C 
ATOM     29  C   LIG    1        4.873   8.455  -0.609  0.00  0.00    +0.020 C 
ATOM     30  C   LIG    1        3.559   7.672  -0.600  0.00  0.00    +0.010 C 
ENDBRANCH  22  25
ENDBRANCH  18  19
ENDBRANCH  17  18
ENDBRANCH   3  17
TORSDOF 6
