REMARK  Name = ZINCkj00000xgJIE.0
REMARK                            x       y       z     vdW  Elec       q    Type
REMARK                         _______ _______ _______ _____ _____    ______ ____
ROOT
ATOM      1  C   LIG    1       -2.079   0.846   3.579  0.00  0.00    +0.160 C 
ATOM      2  C   LIG    1       -2.724   1.373   4.878  0.00  0.00    +0.080 C 
ATOM      3  C   LIG    1       -4.161   1.748   4.428  0.00  0.00    +0.080 C 
ATOM      4  C   LIG    1       -3.911   2.277   2.993  0.00  0.00    +0.250 C 
ATOM      5  N   LIG    1       -2.842   1.407   2.449  0.00  0.00    -0.380 N 
ATOM      6  H   LIG    1       -3.252   0.658   1.911  0.00  0.00    +0.430 HD
ENDROOT
BRANCH   1  13
ATOM      7  C   LIG    1        1.274  -1.200   5.767  0.00  0.00    +0.120 C 
ATOM      8  C   LIG    1        0.352  -0.675   4.696  0.00  0.00    +0.530 C 
ATOM      9  N   LIG    1        0.165   0.653   4.559  0.00  0.00    -0.610 N 
ATOM     10  C   LIG    1        0.709   1.693   5.450  0.00  0.00    +0.260 C 
ATOM     11  C   LIG    1        0.764   2.973   4.575  0.00  0.00    +0.060 C 
ATOM     12  C   LIG    1       -0.530   2.826   3.732  0.00  0.00    +0.040 C 
ATOM     13  C   LIG    1       -0.620   1.303   3.500  0.00  0.00    +0.220 C 
ATOM     14  O   LIG    1       -0.222  -1.448   3.958  0.00  0.00    -0.540 OA
ENDBRANCH   1  13
BRANCH   5  15
ATOM     15  C   LIG    1       -1.948   2.197   1.593  0.00  0.00    +0.340 C 
BRANCH  15  16
ATOM     16  C   LIG    1       -2.664   2.559   0.317  0.00  0.00    -0.320 A 
ATOM     17  C   LIG    1       -3.409   3.670   0.109  0.00  0.00    +0.280 A 
ATOM     18  N   LIG    1       -3.876   3.621  -1.156  0.00  0.00    -0.350 N 
ATOM     19  N   LIG    1       -3.403   2.441  -1.745  0.00  0.00    -0.270 NA
ATOM     20  C   LIG    1       -4.728   4.624  -1.799  0.00  0.00    +0.380 C 
ATOM     21  C   LIG    1       -2.672   1.809  -0.864  0.00  0.00    +0.260 A 
ENDBRANCH  15  16
ENDBRANCH   5  15
TORSDOF 3
