REMARK  Name = ZINCkj00000xgJIE.1
REMARK                            x       y       z     vdW  Elec       q    Type
REMARK                         _______ _______ _______ _____ _____    ______ ____
ROOT
ATOM      1  C   LIG    1       -0.013   1.472   0.010  0.00  0.00    +0.160 C 
ATOM      2  C   LIG    1        1.473   1.886   0.037  0.00  0.00    +0.080 C 
ATOM      3  C   LIG    1        2.180   0.615   0.579  0.00  0.00    +0.070 C 
ATOM      4  C   LIG    1        1.332  -0.512  -0.061  0.00  0.00    +0.260 C 
ATOM      5  N   LIG    1       -0.056  -0.001  -0.036  0.00  0.00    -0.380 N 
ATOM      6  H   LIG    1       -0.529  -0.353   0.783  0.00  0.00    +0.420 HD
ENDROOT
BRANCH   1  13
ATOM      7  C   LIG    1       -0.601   5.805   0.727  0.00  0.00    +0.100 C 
ATOM      8  C   LIG    1       -0.960   4.356   0.525  0.00  0.00    +0.530 C 
ATOM      9  N   LIG    1       -0.532   3.427   1.403  0.00  0.00    -0.610 N 
ATOM     10  C   LIG    1        0.200   3.699   2.654  0.00  0.00    +0.260 C 
ATOM     11  C   LIG    1       -0.087   2.473   3.555  0.00  0.00    +0.060 C 
ATOM     12  C   LIG    1       -0.092   1.315   2.519  0.00  0.00    +0.020 C 
ATOM     13  C   LIG    1       -0.717   1.974   1.272  0.00  0.00    +0.230 C 
ATOM     14  O   LIG    1       -1.634   4.025  -0.428  0.00  0.00    -0.540 OA
ENDBRANCH   1  13
BRANCH   5  15
ATOM     15  C   LIG    1       -0.766  -0.438  -1.245  0.00  0.00    +0.350 C 
BRANCH  15  16
ATOM     16  C   LIG    1       -0.914  -1.938  -1.226  0.00  0.00    -0.320 A 
ATOM     17  C   LIG    1       -1.948  -2.629  -0.692  0.00  0.00    +0.290 A 
ATOM     18  N   LIG    1       -1.704  -3.943  -0.879  0.00  0.00    -0.350 N 
ATOM     19  N   LIG    1       -0.480  -4.064  -1.550  0.00  0.00    -0.270 NA
ATOM     20  C   LIG    1       -2.567  -5.048  -0.455  0.00  0.00    +0.380 C 
ATOM     21  C   LIG    1       -0.011  -2.861  -1.763  0.00  0.00    +0.260 A 
ENDBRANCH  15  16
ENDBRANCH   5  15
TORSDOF 3
