REMARK  Name = ZINCpe000000YTOG.0
REMARK                            x       y       z     vdW  Elec       q    Type
REMARK                         _______ _______ _______ _____ _____    ______ ____
ROOT
ATOM      1  N   LIG    1        0.261   7.860   1.566  0.00  0.00    -0.520 NA
ATOM      2  C   LIG    1        1.655   8.321   1.539  0.00  0.00    +0.190 C 
ATOM      3  C   LIG    1        1.787   9.481   0.547  0.00  0.00    +0.290 C 
ATOM      4  N   LIG    1        0.798  10.511   0.898  0.00  0.00    -0.610 N 
ATOM      5  C   LIG    1       -0.603  10.099   1.078  0.00  0.00    +0.300 C 
ATOM      6  C   LIG    1        1.165  11.799   1.052  0.00  0.00    +0.560 C 
ATOM      7  O   LIG    1        0.325  12.649   1.274  0.00  0.00    -0.530 OA
ATOM      8  C   LIG    1       -0.640   8.915   2.050  0.00  0.00    +0.170 C 
ENDROOT
BRANCH   6   9
ATOM      9  C   LIG    1        2.590  12.179   0.949  0.00  0.00    -0.100 A 
ATOM     10  C   LIG    1        3.356  11.742  -0.133  0.00  0.00    +0.040 A 
ATOM     11  C   LIG    1        4.685  12.099  -0.224  0.00  0.00    +0.050 A 
ATOM     12  C   LIG    1        5.262  12.888   0.754  0.00  0.00    +0.010 A 
ATOM     13  C   LIG    1        4.509  13.325   1.833  0.00  0.00    +0.100 A 
ATOM     14  F   LIG    1        5.078  14.096   2.785  0.00  0.00    -0.130 F 
ATOM     15  C   LIG    1        3.175  12.979   1.932  0.00  0.00    +0.030 A 
ENDBRANCH   6   9
BRANCH   1  16
ATOM     16  C   LIG    1        0.125   6.641   2.374  0.00  0.00    +0.220 C 
BRANCH  16  18
ATOM     17  O   LIG    1        1.457   5.705   0.666  0.00  0.00    -0.520 OA
ATOM     18  C   LIG    1        0.871   5.512   1.710  0.00  0.00    +0.510 C 
ATOM     19  N   LIG    1        0.885   4.289   2.275  0.00  0.00    -0.730 N 
ATOM     20  H   LIG    1        0.416   4.135   3.110  0.00  0.00    +0.400 HD
BRANCH  19  21
ATOM     21  C   LIG    1        1.610   3.192   1.629  0.00  0.00    +0.290 C 
BRANCH  21  22
ATOM     22  C   LIG    1        1.469   1.922   2.471  0.00  0.00    +0.140 C 
ATOM     23  C   LIG    1        2.238   0.746   1.817  0.00  0.00    +0.010 C 
ATOM     24  C   LIG    1        1.492  -0.486   2.385  0.00  0.00    +0.000 C 
ATOM     25  C   LIG    1        0.123   0.071   2.822  0.00  0.00    +0.200 C 
ATOM     26  O   LIG    1        0.099   1.466   2.477  0.00  0.00    -0.370 OA
ENDBRANCH  21  22
ENDBRANCH  19  21
ENDBRANCH  16  18
ENDBRANCH   1  16
TORSDOF 5
