REMARK  Name = ZINCpe00000FUl81.2
REMARK                            x       y       z     vdW  Elec       q    Type
REMARK                         _______ _______ _______ _____ _____    ______ ____
ROOT
ATOM      1  C   LIG    1        3.103  -3.983  -1.301  0.00  0.00    +0.500 C 
ATOM      2  O   LIG    1        3.902  -4.389  -2.123  0.00  0.00    -0.550 OA
ENDROOT
BRANCH   1   3
ATOM      3  N   LIG    1        1.799  -4.142  -1.508  0.00  0.00    -0.680 NA
ATOM      4  C   LIG    1        1.369  -4.746  -2.615  0.00  0.00    +0.490 A 
ATOM      5  C   LIG    1        2.172  -5.265  -3.651  0.00  0.00    -0.110 A 
ATOM      6  C   LIG    1        1.360  -5.795  -4.592  0.00  0.00    +0.350 A 
ATOM      7  N   LIG    1        0.065  -5.634  -4.198  0.00  0.00    -0.490 N 
ATOM      8  H   LIG    1       -0.719  -5.928  -4.688  0.00  0.00    +0.450 HD
ATOM      9  N   LIG    1        0.060  -4.978  -2.959  0.00  0.00    -0.370 N 
BRANCH   9  10
ATOM     10  C   LIG    1       -1.122  -4.607  -2.177  0.00  0.00    +0.330 C 
ATOM     11  C   LIG    1       -1.918  -5.867  -1.828  0.00  0.00    +0.040 C 
BRANCH  10  12
ATOM     12  C   LIG    1       -2.000  -3.660  -2.998  0.00  0.00    -0.080 C 
ATOM     13  C   LIG    1       -2.104  -2.208  -2.527  0.00  0.00    +0.030 C 
ATOM     14  C   LIG    1       -3.292  -3.156  -2.351  0.00  0.00    +0.040 C 
ENDBRANCH  10  12
ENDBRANCH   9  10
ENDBRANCH   1   3
BRANCH   1  15
ATOM     15  C   LIG    1        3.590  -3.301  -0.049  0.00  0.00    +0.220 C 
BRANCH  15  19
ATOM     16  N   LIG    1        7.556  -3.970   1.243  0.00  0.00    -0.530 NA
ATOM     17  C   LIG    1        7.114  -2.580   1.069  0.00  0.00    +0.180 C 
ATOM     18  C   LIG    1        5.584  -2.527   1.087  0.00  0.00    +0.180 C 
ATOM     19  N   LIG    1        5.055  -3.383   0.015  0.00  0.00    -0.530 NA
ATOM     20  C   LIG    1        5.497  -4.774   0.189  0.00  0.00    +0.200 C 
ATOM     21  C   LIG    1        7.027  -4.826   0.172  0.00  0.00    +0.140 C 
ATOM     22  C   LIG    1        7.491  -6.267   0.393  0.00  0.00    +0.030 C 
BRANCH  16  23
ATOM     23  C   LIG    1        9.021  -4.053   1.307  0.00  0.00    +0.190 C 
BRANCH  23  24
ATOM     24  C   LIG    1        9.516  -3.356   2.576  0.00  0.00    +0.160 C 
BRANCH  24  26
ATOM     25  C   LIG    1        9.455  -3.495   4.968  0.00  0.00    +0.190 C 
ATOM     26  O   LIG    1        9.046  -4.066   3.724  0.00  0.00    -0.370 OA
ENDBRANCH  24  26
ENDBRANCH  23  24
ENDBRANCH  16  23
ENDBRANCH  15  19
ENDBRANCH   1  15
TORSDOF 8
