REMARK  Name = ZINCvU00000007eE.0
REMARK                            x       y       z     vdW  Elec       q    Type
REMARK                         _______ _______ _______ _____ _____    ______ ____
ROOT
ATOM      1  C   LIG    1        0.998   1.875   8.181  0.00  0.00    +0.430 C 
ATOM      2  O   LIG    1        0.334   0.958   8.618  0.00  0.00    -0.450 OA
ENDROOT
BRANCH   1   6
ATOM      3  N   LIG    1        0.077   2.490   4.721  0.00  0.00    -0.390 N 
ATOM      4  C   LIG    1        1.034   3.455   4.864  0.00  0.00    +0.020 A 
ATOM      5  C   LIG    1        1.526   3.405   6.114  0.00  0.00    +0.000 A 
ATOM      6  C   LIG    1        0.813   2.318   6.798  0.00  0.00    -0.270 A 
ATOM      7  C   LIG    1        1.468   4.422   3.793  0.00  0.00    +0.130 C 
ATOM      8  C   LIG    1       -0.073   1.804   5.870  0.00  0.00    +0.130 A 
ATOM      9  C   LIG    1       -1.038   0.669   6.102  0.00  0.00    +0.150 C 
BRANCH   3  14
ATOM     10  C   LIG    1       -2.864   1.539  -0.039  0.00  0.00    +0.100 C 
ATOM     11  C   LIG    1       -2.084   1.789   1.225  0.00  0.00    -0.070 A 
ATOM     12  C   LIG    1       -2.735   2.229   2.363  0.00  0.00    +0.030 A 
ATOM     13  C   LIG    1       -2.022   2.465   3.522  0.00  0.00    +0.020 A 
ATOM     14  C   LIG    1       -0.650   2.253   3.546  0.00  0.00    +0.100 A 
ATOM     15  C   LIG    1        0.001   1.805   2.404  0.00  0.00    +0.030 A 
ATOM     16  C   LIG    1       -0.718   1.572   1.248  0.00  0.00    -0.070 A 
ATOM     17  C   LIG    1       -0.013   1.086   0.008  0.00  0.00    +0.110 C 
ENDBRANCH   3  14
ENDBRANCH   1   6
BRANCH   1  18
ATOM     18  C   LIG    1        2.012   2.558   9.062  0.00  0.00    +0.250 C 
BRANCH  18  19
ATOM     19  O   LIG    1        2.006   1.940  10.376  0.00  0.00    -0.330 OA
BRANCH  19  20
ATOM     20  C   LIG    1        2.859   2.436  11.286  0.00  0.00    +0.470 C 
ATOM     21  O   LIG    1        3.587   3.355  10.994  0.00  0.00    -0.510 OA
BRANCH  20  22
ATOM     22  C   LIG    1        2.908   1.846  12.672  0.00  0.00    +0.130 C 
BRANCH  22  23
ATOM     23  C   LIG    1        3.956   2.587  13.504  0.00  0.00    +0.210 C 
BRANCH  23  24
ATOM     24  O   LIG    1        4.003   2.028  14.818  0.00  0.00    -0.310 OA
BRANCH  24  25
ATOM     25  C   LIG    1        4.889   2.576  15.691  0.00  0.00    +0.130 A 
ATOM     26  C   LIG    1        5.696   3.631  15.291  0.00  0.00    -0.070 A 
ATOM     27  C   LIG    1        6.596   4.187  16.180  0.00  0.00    +0.030 A 
ATOM     28  C   LIG    1        6.693   3.692  17.467  0.00  0.00    -0.030 A 
ATOM     29  C   LIG    1        5.889   2.640  17.869  0.00  0.00    +0.040 A 
ATOM     30  C   LIG    1        4.984   2.085  16.985  0.00  0.00    -0.120 A 
ATOM     31  C   LIG    1        4.104   0.944  17.426  0.00  0.00    +0.100 C 
ENDBRANCH  24  25
ENDBRANCH  23  24
ENDBRANCH  22  23
ENDBRANCH  20  22
ENDBRANCH  19  20
ENDBRANCH  18  19
ENDBRANCH   1  18
TORSDOF 9
