REMARK  Name = ZINCrD0000072uft.0
REMARK                            x       y       z     vdW  Elec       q    Type
REMARK                         _______ _______ _______ _____ _____    ______ ____
ROOT
ATOM      1  C   LIG    1       -1.531   0.858  -2.843  0.00  0.00    -0.130 A 
ATOM      2  C   LIG    1       -1.634   2.146  -3.374  0.00  0.00    +0.040 A 
ATOM      3  C   LIG    1       -2.209   2.336  -4.612  0.00  0.00    +0.010 A 
ATOM      4  C   LIG    1       -2.688   1.254  -5.334  0.00  0.00    +0.040 A 
ATOM      5  C   LIG    1       -2.595  -0.024  -4.823  0.00  0.00    +0.010 A 
ATOM      6  C   LIG    1       -2.012  -0.236  -3.580  0.00  0.00    +0.200 A 
ENDROOT
BRANCH   1  12
ATOM      7  C   LIG    1        2.898   1.987  -0.790  0.00  0.00    -0.020 C 
ATOM      8  C   LIG    1        2.288   1.972  -2.194  0.00  0.00    +0.040 C 
ATOM      9  C   LIG    1        0.794   2.300  -2.100  0.00  0.00    +0.270 C 
ATOM     10  N   LIG    1        0.162   1.370  -1.155  0.00  0.00    -0.610 N 
ATOM     11  C   LIG    1        0.726   1.243   0.195  0.00  0.00    +0.290 C 
ATOM     12  C   LIG    1       -0.916   0.648  -1.520  0.00  0.00    +0.560 C 
ATOM     13  O   LIG    1       -1.382  -0.176  -0.757  0.00  0.00    -0.510 OA
ATOM     14  C   LIG    1        2.220   0.924   0.077  0.00  0.00    +0.040 C 
BRANCH   7  17
ATOM     15  C   LIG    1        6.678   2.423  -1.188  0.00  0.00    +0.290 C 
ATOM     16  N   LIG    1        5.255   2.709  -0.992  0.00  0.00    -0.620 N 
ATOM     17  C   LIG    1        4.373   1.696  -0.880  0.00  0.00    +0.520 C 
ATOM     18  O   LIG    1        4.768   0.549  -0.852  0.00  0.00    -0.530 OA
ATOM     19  C   LIG    1        4.790   4.096  -0.919  0.00  0.00    +0.290 C 
ENDBRANCH   7  17
ENDBRANCH   1  12
BRANCH   6  20
ATOM     20  N   LIG    1       -1.911  -1.523  -3.066  0.00  0.00    -0.590 N 
ATOM     21  C   LIG    1       -0.722  -2.331  -3.344  0.00  0.00    +0.300 C 
BRANCH  20  22
ATOM     22  C   LIG    1       -2.945  -2.046  -2.285  0.00  0.00    +0.230 A 
ATOM     23  C   LIG    1       -4.071  -1.278  -2.016  0.00  0.00    -0.060 A 
ATOM     24  C   LIG    1       -5.093  -1.800  -1.246  0.00  0.00    +0.040 A 
ATOM     25  C   LIG    1       -4.991  -3.081  -0.736  0.00  0.00    -0.050 A 
ATOM     26  C   LIG    1       -3.869  -3.846  -0.997  0.00  0.00    +0.040 A 
ATOM     27  C   LIG    1       -2.846  -3.332  -1.770  0.00  0.00    -0.070 A 
ENDBRANCH  20  22
ENDBRANCH   6  20
TORSDOF 4
