REMARK  Name = ZINCtV00000L6kI5.0
REMARK                            x       y       z     vdW  Elec       q    Type
REMARK                         _______ _______ _______ _____ _____    ______ ____
ROOT
ATOM      1  O   LIG    1        2.992   3.526   0.013  0.00  0.00    -0.540 OA
ATOM      2  C   LIG    1        1.802   3.275   0.035  0.00  0.00    +0.720 C 
ATOM      3  N   LIG    1        1.383   1.994   0.017  0.00  0.00    -0.620 N 
ATOM      4  C   LIG    1       -0.019   1.540   0.039  0.00  0.00    +0.310 C 
ATOM      5  C   LIG    1        0.002  -0.005   0.044  0.00  0.00    +0.070 C 
ATOM      6  C   LIG    1        1.418  -0.325   0.613  0.00  0.00    +0.010 C 
ATOM      7  C   LIG    1        1.333  -0.137   2.129  0.00  0.00    +0.010 C 
ATOM      8  C   LIG    1        2.729  -0.017   2.736  0.00  0.00    +0.010 C 
ATOM      9  C   LIG    1        3.414   1.223   2.151  0.00  0.00    +0.010 C 
ATOM     10  C   LIG    1        3.578   1.019   0.645  0.00  0.00    +0.040 C 
ATOM     11  C   LIG    1        2.241   0.807  -0.028  0.00  0.00    +0.240 C 
ATOM     12  N   LIG    1        0.902   4.277   0.078  0.00  0.00    -0.680 N 
ATOM     13  H   LIG    1       -0.045   4.082   0.013  0.00  0.00    +0.410 HD
ENDROOT
BRANCH   4  14
ATOM     14  C   LIG    1       -0.703   2.048   1.283  0.00  0.00    +0.260 A 
ATOM     15  N   LIG    1       -1.900   1.711   1.665  0.00  0.00    -0.470 NA
ATOM     16  C   LIG    1       -2.205   2.349   2.824  0.00  0.00    +0.050 A 
ATOM     17  C   LIG    1       -3.329   2.354   3.655  0.00  0.00    +0.070 A 
ATOM     18  C   LIG    1       -3.336   3.121   4.785  0.00  0.00    +0.000 A 
ATOM     19  C   LIG    1       -2.238   3.899   5.120  0.00  0.00    +0.040 A 
ATOM     20  C   LIG    1       -1.118   3.910   4.316  0.00  0.00    +0.010 A 
ATOM     21  C   LIG    1       -1.092   3.137   3.163  0.00  0.00    +0.050 A 
ATOM     22  N   LIG    1       -0.156   2.921   2.171  0.00  0.00    -0.590 N 
ATOM     23  H   LIG    1        0.727   3.319   2.117  0.00  0.00    +0.420 HD
ENDBRANCH   4  14
BRANCH  12  24
ATOM     24  C   LIG    1        1.336   5.601   0.216  0.00  0.00    +0.190 A 
ATOM     25  C   LIG    1        2.561   5.874   0.808  0.00  0.00    +0.050 A 
ATOM     26  C   LIG    1        2.989   7.182   0.939  0.00  0.00    -0.010 A 
ATOM     27  C   LIG    1        2.192   8.220   0.490  0.00  0.00    +0.030 A 
ATOM     28  C   LIG    1        0.968   7.952  -0.095  0.00  0.00    +0.080 A 
ATOM     29 CL   LIG    1        4.524   7.523   1.674  0.00  0.00    -0.050 Cl
ATOM     30  C   LIG    1        0.537   6.646  -0.234  0.00  0.00    -0.070 A 
ATOM     31 CL   LIG    1       -0.999   6.311  -0.970  0.00  0.00    -0.050 Cl
ENDBRANCH  12  24
TORSDOF 2
