REMARK  Name = ZINCpe000000T3LT.0
REMARK                            x       y       z     vdW  Elec       q    Type
REMARK                         _______ _______ _______ _____ _____    ______ ____
ROOT
ATOM      1  C   LIG    1       -1.331   2.079   0.020  0.00  0.00    +0.250 C 
ENDROOT
BRANCH   1   2
ATOM      2  C   LIG    1       -0.016   1.344   0.009  0.00  0.00    +0.520 C 
ATOM      3  N   LIG    1        0.002  -0.004   0.002  0.00  0.00    -0.730 N 
ATOM      4  H   LIG    1       -0.831  -0.500   0.007  0.00  0.00    +0.400 HD
ATOM      5  O   LIG    1        1.026   1.964   0.003  0.00  0.00    -0.530 OA
BRANCH   3   6
ATOM      6  C   LIG    1        1.281  -0.719  -0.014  0.00  0.00    +0.270 C 
BRANCH   6   7
ATOM      7  C   LIG    1        1.021  -2.227  -0.020  0.00  0.00    +0.160 C 
BRANCH   7   8
ATOM      8  N   LIG    1        2.303  -2.944  -0.036  0.00  0.00    -0.530 NA
ATOM      9  C   LIG    1        3.020  -2.714  -1.299  0.00  0.00    +0.150 C 
ATOM     10  C   LIG    1        4.373  -3.429  -1.249  0.00  0.00    +0.220 C 
ATOM     11  O   LIG    1        4.162  -4.820  -0.991  0.00  0.00    -0.380 OA
ATOM     12  C   LIG    1        3.468  -5.080   0.231  0.00  0.00    +0.220 C 
ATOM     13  C   LIG    1        2.106  -4.382   0.197  0.00  0.00    +0.160 C 
ENDBRANCH   7   8
ENDBRANCH   6   7
ENDBRANCH   3   6
ENDBRANCH   1   2
BRANCH   1  14
ATOM     14  N   LIG    1       -1.083   3.523   0.026  0.00  0.00    -0.710 N 
ATOM     15  H   LIG    1       -0.253   3.874  -0.331  0.00  0.00    +0.410 HD
ATOM     16  C   LIG    1       -2.009   4.364   0.529  0.00  0.00    +0.520 C 
ATOM     17  O   LIG    1       -3.048   3.925   0.975  0.00  0.00    -0.520 OA
BRANCH  16  18
ATOM     18  C   LIG    1       -1.754   5.849   0.535  0.00  0.00    +0.110 C 
BRANCH  18  19
ATOM     19  C   LIG    1       -2.935   6.559   1.145  0.00  0.00    -0.070 A 
ATOM     20  C   LIG    1       -3.978   6.981   0.342  0.00  0.00    +0.020 A 
ATOM     21  C   LIG    1       -5.064   7.628   0.902  0.00  0.00    +0.000 A 
ATOM     22  C   LIG    1       -5.102   7.861   2.264  0.00  0.00    +0.000 A 
ATOM     23  C   LIG    1       -4.056   7.444   3.067  0.00  0.00    +0.000 A 
ATOM     24  C   LIG    1       -2.973   6.793   2.507  0.00  0.00    +0.020 A 
ENDBRANCH  18  19
ENDBRANCH  16  18
ENDBRANCH   1  14
BRANCH   1  26
ATOM     25  C   LIG    1       -3.470   2.452  -1.217  0.00  0.00    +0.040 C 
ATOM     26  C   LIG    1       -2.135   1.706  -1.228  0.00  0.00    -0.020 C 
ATOM     27  C   LIG    1       -1.343   2.093  -2.479  0.00  0.00    +0.020 C 
ENDBRANCH   1  26
TORSDOF 8
