REMARK  Name = ZINCrH000004n8sv.0
REMARK                            x       y       z     vdW  Elec       q    Type
REMARK                         _______ _______ _______ _____ _____    ______ ____
ROOT
ATOM      1  C   LIG    1       -1.224   1.750   0.019  0.00  0.00    +0.140 A 
ATOM      2  C   LIG    1       -1.238   3.137   0.032  0.00  0.00    -0.080 A 
ATOM      3  C   LIG    1       -0.049   3.836   0.021  0.00  0.00    +0.060 A 
ATOM      4  C   LIG    1        1.164   3.162   0.001  0.00  0.00    -0.140 A 
ATOM      5  C   LIG    1        2.433   3.973  -0.028  0.00  0.00    +0.320 C 
ATOM      6  N   LIG    1        3.587   3.137   0.314  0.00  0.00    -0.620 N 
ATOM      7  C   LIG    1        3.719   1.831  -0.355  0.00  0.00    +0.350 C 
ATOM      8  C   LIG    1        2.475   1.012   0.009  0.00  0.00    -0.120 C 
ATOM      9  C   LIG    1        2.437  -0.452  -0.427  0.00  0.00    +0.040 C 
ATOM     10  C   LIG    1        2.637  -0.097   1.048  0.00  0.00    +0.050 C 
ATOM     11  C   LIG    1        4.502   3.551   1.213  0.00  0.00    +0.710 C 
ATOM     12  N   LIG    1        4.418   4.789   1.738  0.00  0.00    -0.740 N 
ATOM     13  H   LIG    1        3.660   5.356   1.524  0.00  0.00    +0.400 HD
ATOM     14  O   LIG    1        5.402   2.807   1.550  0.00  0.00    -0.580 OA
ATOM     15  C   LIG    1        1.178   1.782   0.001  0.00  0.00    +0.020 A 
ATOM     16  C   LIG    1       -0.013   1.076   0.009  0.00  0.00    -0.020 A 
ENDROOT
BRANCH  12  17
ATOM     17  C   LIG    1        5.471   5.279   2.631  0.00  0.00    +0.310 C 
ATOM     18  C   LIG    1        4.896   6.357   3.553  0.00  0.00    -0.000 C 
ATOM     19  C   LIG    1        6.062   7.056   4.263  0.00  0.00    +0.250 C 
ATOM     20  O   LIG    1        6.846   7.735   3.281  0.00  0.00    -0.320 OA
ATOM     21  C   LIG    1        7.220   7.039   2.176  0.00  0.00    +0.140 A 
ATOM     22  C   LIG    1        8.257   7.540   1.395  0.00  0.00    -0.020 A 
ATOM     23  C   LIG    1        8.659   6.867   0.260  0.00  0.00    +0.050 A 
ATOM     24  C   LIG    1        8.031   5.690  -0.104  0.00  0.00    -0.040 A 
ATOM     25  C   LIG    1        7.002   5.189   0.670  0.00  0.00    +0.060 A 
ATOM     26  C   LIG    1        6.595   5.859   1.810  0.00  0.00    -0.180 A 
ENDBRANCH  12  17
BRANCH   1  28
ATOM     27  C   LIG    1       -3.600   1.818   0.030  0.00  0.00    +0.250 C 
ATOM     28  O   LIG    1       -2.392   1.056   0.020  0.00  0.00    -0.320 OA
ENDBRANCH   1  28
TORSDOF 2
