REMARK  Name = ZINCrD0000074xS5.0
REMARK                            x       y       z     vdW  Elec       q    Type
REMARK                         _______ _______ _______ _____ _____    ______ ____
ROOT
ATOM      1  C   LIG    1       -0.037   1.074   0.040  0.00  0.00    +0.020 C 
ENDROOT
BRANCH   1   2
ATOM      2  C   LIG    1       -0.511   1.701   1.327  0.00  0.00    +0.540 C 
ATOM      3  N   LIG    1       -1.428   1.069   2.086  0.00  0.00    -0.610 N 
ATOM      4  C   LIG    1       -1.897  -0.276   1.729  0.00  0.00    +0.280 C 
ATOM      5  C   LIG    1       -3.423  -0.268   1.653  0.00  0.00    +0.030 C 
ATOM      6  C   LIG    1       -3.994   0.269   2.967  0.00  0.00    -0.010 C 
ATOM      7  C   LIG    1       -3.511   1.705   3.187  0.00  0.00    +0.050 C 
ATOM      8  C   LIG    1       -1.982   1.716   3.283  0.00  0.00    +0.280 C 
ATOM      9  O   LIG    1       -0.067   2.773   1.678  0.00  0.00    -0.520 OA
BRANCH   6  10
ATOM     10  C   LIG    1       -5.500   0.250   2.905  0.00  0.00    +0.520 C 
ATOM     11  O   LIG    1       -6.125   1.282   3.025  0.00  0.00    -0.540 OA
ATOM     12  N   LIG    1       -6.151  -0.915   2.717  0.00  0.00    -0.860 N 
ATOM     13  H   LIG    1       -7.120  -0.927   2.678  0.00  0.00    +0.400 HD
ATOM     14  H   LIG    1       -5.651  -1.740   2.622  0.00  0.00    +0.400 HD
ENDBRANCH   6  10
ENDBRANCH   1   2
BRANCH   1  15
ATOM     15  C   LIG    1       -0.905   1.570  -1.118  0.00  0.00    +0.010 C 
ATOM     16  C   LIG    1       -0.823   3.095  -1.201  0.00  0.00    +0.030 C 
ATOM     17  C   LIG    1       -2.357   1.149  -0.884  0.00  0.00    +0.020 C 
ENDBRANCH   1  15
BRANCH   1  18
ATOM     18  S   LIG    1        1.687   1.537  -0.257  0.00  0.00    +0.010 S 
BRANCH  18  22
ATOM     19  C   LIG    1        4.945  -0.143  -3.982  0.00  0.00    +0.120 C 
ATOM     20  C   LIG    1        3.614  -0.244  -3.283  0.00  0.00    -0.010 A 
ATOM     21  C   LIG    1        3.307   0.581  -2.244  0.00  0.00    -0.020 A 
ATOM     22  C   LIG    1        2.064   0.466  -1.604  0.00  0.00    +0.140 A 
ATOM     23  N   LIG    1        1.169  -0.422  -1.990  0.00  0.00    -0.490 NA
ATOM     24  C   LIG    1        1.413  -1.255  -3.008  0.00  0.00    +0.150 A 
ATOM     25  C   LIG    1        0.456  -2.199  -3.416  0.00  0.00    +0.030 A 
ATOM     26  C   LIG    1        0.729  -3.034  -4.456  0.00  0.00    +0.040 A 
ATOM     27  C   LIG    1        1.948  -2.969  -5.126  0.00  0.00    +0.010 A 
ATOM     28  C   LIG    1        2.901  -2.067  -4.758  0.00  0.00    +0.040 A 
ATOM     29  C   LIG    1        2.652  -1.191  -3.691  0.00  0.00    -0.110 A 
ENDBRANCH  18  22
ENDBRANCH   1  18
TORSDOF 5
