REMARK  Name = ZINCvU000000058P.0
REMARK                            x       y       z     vdW  Elec       q    Type
REMARK                         _______ _______ _______ _____ _____    ______ ____
ROOT
ATOM      1  C   LIG    1       -0.087  -0.039   0.114  0.00  0.00    +0.220 C 
ENDROOT
BRANCH   1   2
ATOM      2  C   LIG    1       -0.131   1.467   0.123  0.00  0.00    +0.520 C 
ATOM      3  N   LIG    1       -1.316   2.106   0.194  0.00  0.00    -0.610 N 
ATOM      4  C   LIG    1       -2.573   1.348   0.256  0.00  0.00    +0.260 C 
ATOM      5  C   LIG    1       -3.371   1.825   1.478  0.00  0.00    +0.020 C 
ATOM      6  C   LIG    1       -3.556   3.342   1.399  0.00  0.00    +0.000 C 
ATOM      7  C   LIG    1       -2.187   4.026   1.421  0.00  0.00    +0.020 C 
ATOM      8  C   LIG    1       -1.375   3.574   0.204  0.00  0.00    +0.280 C 
ATOM      9  O   LIG    1        0.899   2.104   0.062  0.00  0.00    -0.510 OA
BRANCH   6  10
ATOM     10  C   LIG    1       -4.383   3.818   2.595  0.00  0.00    +0.070 C 
BRANCH  10  11
ATOM     11  C   LIG    1       -5.772   3.241   2.507  0.00  0.00    -0.080 A 
ATOM     12  C   LIG    1       -6.768   3.933   1.844  0.00  0.00    +0.000 A 
ATOM     13  C   LIG    1       -8.041   3.401   1.759  0.00  0.00    +0.000 A 
ATOM     14  C   LIG    1       -8.321   2.181   2.346  0.00  0.00    +0.000 A 
ATOM     15  C   LIG    1       -7.326   1.491   3.013  0.00  0.00    +0.000 A 
ATOM     16  C   LIG    1       -6.052   2.021   3.094  0.00  0.00    +0.000 A 
ENDBRANCH  10  11
ENDBRANCH   6  10
ENDBRANCH   1   2
BRANCH   1  17
ATOM     17  O   LIG    1        1.271  -0.475   0.028  0.00  0.00    -0.290 OA
BRANCH  17  21
ATOM     18  C   LIG    1        1.931  -4.550  -0.030  0.00  0.00    +0.050 A 
ATOM     19  C   LIG    1        3.004  -3.673  -0.093  0.00  0.00    +0.060 A 
ATOM     20  C   LIG    1        2.783  -2.309  -0.074  0.00  0.00    +0.010 A 
ATOM     21  C   LIG    1        1.489  -1.818   0.009  0.00  0.00    +0.130 A 
ATOM     22  C   LIG    1        0.416  -2.695   0.077  0.00  0.00    -0.060 A 
ATOM     23  C   LIG    1        0.637  -4.058   0.051  0.00  0.00    +0.030 A 
BRANCH  18  24
ATOM     24  O   LIG    1        2.148  -5.892  -0.050  0.00  0.00    -0.250 OA
BRANCH  24  29
ATOM     25  C   LIG    1        0.407  -8.788  -4.556  0.00  0.00    +0.100 C 
ATOM     26  C   LIG    1        0.873  -8.013  -3.350  0.00  0.00    -0.120 A 
ATOM     27  C   LIG    1        1.385  -8.684  -2.254  0.00  0.00    +0.050 A 
ATOM     28  C   LIG    1        1.812  -7.976  -1.148  0.00  0.00    -0.010 A 
ATOM     29  C   LIG    1        1.728  -6.591  -1.137  0.00  0.00    +0.110 A 
ATOM     30  C   LIG    1        1.210  -5.921  -2.236  0.00  0.00    -0.060 A 
ATOM     31  C   LIG    1        0.789  -6.633  -3.342  0.00  0.00    +0.050 A 
ENDBRANCH  24  29
ENDBRANCH  18  24
ENDBRANCH  17  21
ENDBRANCH   1  17
TORSDOF 7
