REMARK  Name = ZINCnE000001DRCQ.0
REMARK                            x       y       z     vdW  Elec       q    Type
REMARK                         _______ _______ _______ _____ _____    ______ ____
ROOT
ATOM      1  C   LIG    1       -5.475   8.062  -0.624  0.00  0.00    -0.010 C 
ATOM      2  C   LIG    1       -5.474   8.007   0.906  0.00  0.00    +0.020 C 
ATOM      3  C   LIG    1       -4.828   6.697   1.371  0.00  0.00    +0.100 C 
ATOM      4  C   LIG    1       -3.509   6.535   0.656  0.00  0.00    +0.120 A 
ATOM      5  C   LIG    1       -3.159   7.227  -0.453  0.00  0.00    -0.450 A 
ATOM      6  C   LIG    1       -1.866   6.819  -0.836  0.00  0.00    +0.490 A 
ATOM      7  N   LIG    1       -1.456   5.884   0.048  0.00  0.00    -0.400 N 
ATOM      8  O   LIG    1       -1.233   7.233  -1.791  0.00  0.00    -0.630 OA
ATOM      9  N   LIG    1       -2.486   5.698   0.982  0.00  0.00    -0.400 NA
ATOM     10  C   LIG    1       -4.039   8.250  -1.128  0.00  0.00    +0.080 C 
ENDROOT
BRANCH   7  11
ATOM     11  C   LIG    1       -0.234   5.221   0.032  0.00  0.00    +0.300 A 
ATOM     12  C   LIG    1        0.959   5.923   0.025  0.00  0.00    -0.060 A 
ATOM     13  C   LIG    1        2.165   5.234   0.009  0.00  0.00    +0.320 A 
ATOM     14  N   LIG    1        2.211   3.922   0.002  0.00  0.00    -0.500 NA
ATOM     15  C   LIG    1        1.098   3.182   0.009  0.00  0.00    +0.090 A 
ATOM     16  C   LIG    1        1.161   1.775   0.001  0.00  0.00    +0.080 A 
ATOM     17  C   LIG    1       -0.013   1.076   0.008  0.00  0.00    -0.020 A 
ATOM     18  C   LIG    1       -1.228   1.756   0.017  0.00  0.00    +0.260 A 
ATOM     19  N   LIG    1       -1.282   3.066   0.030  0.00  0.00    -0.420 NA
ATOM     20  C   LIG    1       -0.172   3.805   0.024  0.00  0.00    +0.060 A 
ENDBRANCH   7  11
BRANCH   1  22
ATOM     21  C   LIG    1       -6.338   9.289  -2.621  0.00  0.00    +0.000 C 
ATOM     22  C   LIG    1       -6.338   9.235  -1.092  0.00  0.00    -0.020 C 
ATOM     23  C   LIG    1       -7.770   9.047  -0.588  0.00  0.00    +0.010 C 
ENDBRANCH   1  22
TORSDOF 2
