REMARK  Name = ZINCpe000000YvaD.0
REMARK                            x       y       z     vdW  Elec       q    Type
REMARK                         _______ _______ _______ _____ _____    ______ ____
ROOT
ATOM      1  C   LIG    1        2.921   4.946   0.001  0.00  0.00    +0.230 A 
ATOM      2  N   LIG    1        2.982   3.626  -0.002  0.00  0.00    -0.440 NA
ATOM      3  C   LIG    1        1.700   3.206   0.003  0.00  0.00    +0.270 A 
ATOM      4  N   LIG    1        0.939   4.271   0.017  0.00  0.00    -0.340 NA
ATOM      5  O   LIG    1        1.619   5.275   0.016  0.00  0.00    +0.080 OA
ENDROOT
BRANCH   1  11
ATOM      6  C   LIG    1        4.384   9.498   0.014  0.00  0.00    -0.120 A 
ATOM      7  C   LIG    1        3.029   9.357   0.027  0.00  0.00    +0.330 A 
ATOM      8  N   LIG    1        2.706   8.038   0.022  0.00  0.00    -0.570 N 
ATOM      9  H   LIG    1        1.801   7.689   0.029  0.00  0.00    +0.430 HD
ATOM     10  C   LIG    1        3.844   7.266   0.006  0.00  0.00    +0.130 A 
ATOM     11  C   LIG    1        4.064   5.879  -0.004  0.00  0.00    -0.040 A 
ATOM     12  C   LIG    1        5.368   5.389  -0.015  0.00  0.00    +0.130 A 
ATOM     13  C   LIG    1        6.444   6.259  -0.026  0.00  0.00    +0.000 A 
ATOM     14  C   LIG    1        6.241   7.624  -0.016  0.00  0.00    +0.100 A 
ATOM     15  C   LIG    1        4.945   8.135   0.000  0.00  0.00    -0.070 A 
BRANCH   6  17
ATOM     16  N   LIG    1        5.700  11.704   0.016  0.00  0.00    -0.420 NA
ATOM     17  C   LIG    1        5.118  10.728   0.015  0.00  0.00    +0.290 C 
ENDBRANCH   6  17
ENDBRANCH   1  11
BRANCH   3  18
ATOM     18  C   LIG    1        1.237   1.795  -0.000  0.00  0.00    +0.290 A 
ATOM     19  N   LIG    1       -0.017   1.400   0.010  0.00  0.00    -0.240 NA
ATOM     20  N   LIG    1        0.002  -0.004   0.002  0.00  0.00    -0.370 N 
ATOM     21  C   LIG    1        1.297  -0.369  -0.012  0.00  0.00    +0.500 A 
ATOM     22  N   LIG    1        2.028   0.714  -0.013  0.00  0.00    -0.500 NA
BRANCH  20  23
ATOM     23  C   LIG    1       -1.160  -0.896   0.009  0.00  0.00    +0.380 C 
BRANCH  23  24
ATOM     24  C   LIG    1       -2.043  -0.562   1.183  0.00  0.00    +0.500 C 
ATOM     25  O   LIG    1       -1.733   0.334   1.940  0.00  0.00    -0.510 OA
ATOM     26  N   LIG    1       -3.178  -1.258   1.392  0.00  0.00    -0.850 N 
ATOM     27  H   LIG    1       -3.747  -1.043   2.148  0.00  0.00    +0.410 HD
ATOM     28  H   LIG    1       -3.426  -1.974   0.787  0.00  0.00    +0.400 HD
ENDBRANCH  23  24
ENDBRANCH  20  23
ENDBRANCH   3  18
TORSDOF 5
