REMARK  Name = ZINCrD00000l3Qql.0
REMARK                            x       y       z     vdW  Elec       q    Type
REMARK                         _______ _______ _______ _____ _____    ______ ____
ROOT
ATOM      1  C   LIG    1        3.636   1.255  -0.278  0.00  0.00    +0.460 C 
ATOM      2  O   LIG    1        3.621   2.463  -0.294  0.00  0.00    -0.490 OA
ENDROOT
BRANCH   1   3
ATOM      3  C   LIG    1        4.939   0.520  -0.101  0.00  0.00    +0.130 C 
BRANCH   3   4
ATOM      4  C   LIG    1        6.080   1.530   0.035  0.00  0.00    +0.310 C 
BRANCH   4   5
ATOM      5  C   LIG    1        7.396   0.797   0.089  0.00  0.00    -0.100 A 
ATOM      6  C   LIG    1        7.770   0.132   1.241  0.00  0.00    +0.020 A 
ATOM      7  C   LIG    1        8.975  -0.543   1.289  0.00  0.00    +0.000 A 
ATOM      8  C   LIG    1        9.810  -0.546   0.188  0.00  0.00    +0.010 A 
ATOM      9  C   LIG    1        9.438   0.123  -0.963  0.00  0.00    +0.000 A 
ATOM     10  C   LIG    1        8.231   0.795  -1.013  0.00  0.00    +0.020 A 
ENDBRANCH   4   5
BRANCH   4  13
ATOM     11  C   LIG    1        6.074   4.407   2.558  0.00  0.00    +0.090 C 
ATOM     12  C   LIG    1        6.356   3.572   1.336  0.00  0.00    +0.520 C 
ATOM     13  N   LIG    1        5.902   2.305   1.265  0.00  0.00    -0.720 N 
ATOM     14  H   LIG    1        5.457   1.906   2.030  0.00  0.00    +0.400 HD
ATOM     15  O   LIG    1        6.992   4.040   0.415  0.00  0.00    -0.540 OA
ENDBRANCH   4  13
ENDBRANCH   3   4
ENDBRANCH   1   3
BRANCH   1  16
ATOM     16  O   LIG    1        2.491   0.568  -0.419  0.00  0.00    -0.330 OA
BRANCH  16  17
ATOM     17  C   LIG    1        1.274   1.341  -0.585  0.00  0.00    +0.270 C 
BRANCH  17  18
ATOM     18  C   LIG    1        0.100   0.407  -0.727  0.00  0.00    +0.520 C 
ATOM     19  N   LIG    1       -1.141   0.904  -0.898  0.00  0.00    -0.670 N 
ATOM     20  H   LIG    1       -1.288   1.863  -0.865  0.00  0.00    +0.420 HD
ATOM     21  O   LIG    1        0.273  -0.793  -0.691  0.00  0.00    -0.490 OA
BRANCH  19  22
ATOM     22  C   LIG    1       -2.217   0.038  -1.126  0.00  0.00    +0.130 A 
ATOM     23  C   LIG    1       -2.249  -1.207  -0.515  0.00  0.00    +0.070 A 
ATOM     24  C   LIG    1       -3.315  -2.058  -0.736  0.00  0.00    +0.070 A 
ATOM     25  C   LIG    1       -4.346  -1.675  -1.575  0.00  0.00    -0.080 A 
ATOM     26  C   LIG    1       -4.316  -0.436  -2.192  0.00  0.00    +0.040 A 
ATOM     27 BR   LIG    1       -5.799  -2.845  -1.880  0.00  0.00    -0.030 Br
ATOM     28  C   LIG    1       -3.255   0.422  -1.969  0.00  0.00    +0.080 A 
ATOM     29  F   LIG    1       -3.225   1.631  -2.571  0.00  0.00    -0.130 F 
ENDBRANCH  19  22
ENDBRANCH  17  18
ENDBRANCH  16  17
ENDBRANCH   1  16
TORSDOF 8
