REMARK  Name = ZINCpk00000xI6fg.0
REMARK                            x       y       z     vdW  Elec       q    Type
REMARK                         _______ _______ _______ _____ _____    ______ ____
ROOT
ATOM      1  N   LIG    1        0.059  -4.491  -1.045  0.00  0.00    -0.400 N 
ATOM      2  C   LIG    1        0.032  -3.212  -1.485  0.00  0.00    +0.540 A 
ATOM      3  N   LIG    1        0.021  -3.200  -2.800  0.00  0.00    -0.500 NA
ATOM      4  C   LIG    1        0.034  -4.450  -3.266  0.00  0.00    +0.340 A 
ATOM      5  N   LIG    1        0.031  -4.999  -4.538  0.00  0.00    -0.510 N 
ATOM      6  C   LIG    1        0.009  -4.125  -5.713  0.00  0.00    +0.350 C 
ATOM      7  C   LIG    1        0.047  -6.336  -4.695  0.00  0.00    +0.710 A 
ATOM      8  O   LIG    1        0.044  -6.801  -5.819  0.00  0.00    -0.530 OA
ATOM      9  N   LIG    1        0.067  -7.170  -3.641  0.00  0.00    -0.550 N 
ATOM     10  C   LIG    1        0.070  -6.695  -2.378  0.00  0.00    +0.600 A 
ATOM     11  O   LIG    1        0.088  -7.461  -1.432  0.00  0.00    -0.510 OA
ATOM     12  C   LIG    1        0.054  -5.302  -2.167  0.00  0.00    -0.150 A 
ENDROOT
BRANCH   2  13
ATOM     13  N   LIG    1        0.024  -2.086  -0.673  0.00  0.00    -0.320 N 
ATOM     14  N   LIG    1        0.037  -2.078   0.728  0.00  0.00    -0.290 NA
ATOM     15  C   LIG    1        0.024  -0.834   1.130  0.00  0.00    +0.110 A 
ATOM     16  C   LIG    1        0.002  -0.004   0.002  0.00  0.00    -0.220 A 
ATOM     17  C   LIG    1       -0.018   1.503   0.010  0.00  0.00    +0.140 C 
ATOM     18  C   LIG    1        0.031  -0.371   2.564  0.00  0.00    +0.180 C 
ATOM     19  C   LIG    1       -0.003  -0.793  -1.096  0.00  0.00    +0.130 A 
ATOM     20  C   LIG    1       -0.030  -0.325  -2.528  0.00  0.00    +0.180 C 
ENDBRANCH   2  13
BRANCH   9  21
ATOM     21  C   LIG    1        0.084  -8.618  -3.867  0.00  0.00    +0.310 C 
ATOM     22  C   LIG    1        1.533  -9.102  -3.957  0.00  0.00    +0.030 C 
ENDBRANCH   9  21
BRANCH   1  23
ATOM     23  C   LIG    1        0.084  -4.933   0.351  0.00  0.00    +0.330 C 
BRANCH  23  25
ATOM     24  C   LIG    1       -1.324  -5.572   2.314  0.00  0.00    +0.040 C 
ATOM     25  C   LIG    1       -1.350  -5.111   0.855  0.00  0.00    +0.010 C 
ENDBRANCH  23  25
ENDBRANCH   1  23
TORSDOF 4
