REMARK  Name = ZINCtj00001uVZDb.0
REMARK                            x       y       z     vdW  Elec       q    Type
REMARK                         _______ _______ _______ _____ _____    ______ ____
ROOT
ATOM      1  N   LIG    1        0.709   1.440  -3.209  0.00  0.00    -0.720 N 
ATOM      2  H   LIG    1        1.604   1.737  -2.984  0.00  0.00    +0.400 HD
ATOM      3  C   LIG    1       -0.362   2.075  -2.692  0.00  0.00    +0.510 C 
ATOM      4  O   LIG    1       -1.482   1.704  -2.974  0.00  0.00    -0.530 OA
ENDROOT
BRANCH   3   5
ATOM      5  C   LIG    1       -0.167   3.246  -1.763  0.00  0.00    +0.230 C 
ATOM      6  C   LIG    1        0.600   2.794  -0.503  0.00  0.00    +0.090 C 
ATOM      7  C   LIG    1       -0.085   3.599   0.633  0.00  0.00    +0.180 C 
ATOM      8  C   LIG    1       -1.560   3.622   0.146  0.00  0.00    +0.240 C 
ATOM      9  N   LIG    1       -1.472   3.758  -1.320  0.00  0.00    -0.590 N 
ATOM     10  C   LIG    1       -2.429   4.268  -2.120  0.00  0.00    +0.540 C 
ATOM     11  O   LIG    1       -2.247   4.332  -3.317  0.00  0.00    -0.520 OA
BRANCH  10  12
ATOM     12  C   LIG    1       -3.725   4.759  -1.527  0.00  0.00    +0.010 C 
ATOM     13  C   LIG    1       -4.481   3.592  -0.851  0.00  0.00    +0.090 C 
ATOM     14  C   LIG    1       -5.960   3.880  -1.221  0.00  0.00    +0.280 C 
ATOM     15  N   LIG    1       -5.869   4.401  -2.609  0.00  0.00    -0.520 N 
ATOM     16  H   LIG    1       -5.768   3.639  -3.263  0.00  0.00    +0.440 HD
ATOM     17  H   LIG    1       -6.689   4.945  -2.831  0.00  0.00    +0.440 HD
ATOM     18  C   LIG    1       -4.665   5.260  -2.639  0.00  0.00    +0.290 C 
ENDBRANCH  10  12
BRANCH   7  19
ATOM     19  O   LIG    1        0.449   4.922   0.717  0.00  0.00    -0.550 OA
ATOM     20  H   LIG    1        0.051   5.463   1.413  0.00  0.00    +0.390 HD
ENDBRANCH   7  19
ENDBRANCH   3   5
BRANCH   1  21
ATOM     21  C   LIG    1        0.520   0.302  -4.112  0.00  0.00    +0.320 C 
BRANCH  21  25
ATOM     22  C   LIG    1        4.333  -1.189  -5.344  0.00  0.00    +0.010 A 
ATOM     23  C   LIG    1        3.720  -1.696  -4.198  0.00  0.00    +0.020 A 
ATOM     24  C   LIG    1        2.489  -1.210  -3.806  0.00  0.00    +0.040 A 
ATOM     25  C   LIG    1        1.864  -0.223  -4.546  0.00  0.00    -0.110 A 
ATOM     26  C   LIG    1        2.464   0.279  -5.687  0.00  0.00    +0.040 A 
ATOM     27  C   LIG    1        3.697  -0.193  -6.087  0.00  0.00    +0.030 A 
BRANCH  22  30
ATOM     28  C   LIG    1        5.031  -2.037  -8.180  0.00  0.00    +0.160 C 
ATOM     29  C   LIG    1        5.992  -2.088  -7.019  0.00  0.00    +0.090 A 
ATOM     30  C   LIG    1        5.653  -1.704  -5.770  0.00  0.00    -0.210 A 
ATOM     31  S   LIG    1        7.060  -1.935  -4.735  0.00  0.00    +0.140 S 
ATOM     32  C   LIG    1        7.959  -2.511  -6.070  0.00  0.00    +0.230 A 
ATOM     33  N   LIG    1        7.232  -2.506  -7.137  0.00  0.00    -0.470 NA
ENDBRANCH  22  30
ENDBRANCH  21  25
ENDBRANCH   1  21
TORSDOF 6
