REMARK  Name = ZINCvU0000000FuK.0
REMARK                            x       y       z     vdW  Elec       q    Type
REMARK                         _______ _______ _______ _____ _____    ______ ____
ROOT
ATOM      1  C   LIG    1       -3.896  -4.461   0.017  0.00  0.00    +0.140 A 
ATOM      2  C   LIG    1       -4.893  -3.481  -0.172  0.00  0.00    +0.010 A 
ATOM      3  C   LIG    1       -6.208  -3.797  -0.179  0.00  0.00    +0.130 A 
ATOM      4  C   LIG    1       -6.645  -5.184   0.025  0.00  0.00    -0.240 A 
ATOM      5  C   LIG    1       -5.628  -6.228   0.230  0.00  0.00    +0.010 A 
ATOM      6  C   LIG    1       -5.987  -7.556   0.428  0.00  0.00    +0.020 A 
ATOM      7  C   LIG    1       -4.999  -8.517   0.619  0.00  0.00    +0.040 A 
ATOM      8  C   LIG    1       -3.665  -8.162   0.615  0.00  0.00    +0.020 A 
ATOM      9  C   LIG    1       -3.285  -6.841   0.419  0.00  0.00    +0.040 A 
ATOM     10  C   LIG    1       -4.263  -5.862   0.225  0.00  0.00    -0.060 A 
ENDROOT
BRANCH   1  11
ATOM     11  O   LIG    1       -2.598  -4.104   0.011  0.00  0.00    -0.280 OA
BRANCH  11  13
ATOM     12  O   LIG    1       -2.492  -4.688  -2.120  0.00  0.00    -0.450 OA
ATOM     13  C   LIG    1       -1.942  -4.205  -1.159  0.00  0.00    +0.460 C 
BRANCH  13  14
ATOM     14  C   LIG    1       -0.521  -3.716  -1.270  0.00  0.00    +0.290 C 
BRANCH  14  15
ATOM     15  O   LIG    1       -0.047  -3.932  -2.601  0.00  0.00    -0.300 OA
BRANCH  15  16
ATOM     16  C   LIG    1        1.227  -3.543  -2.872  0.00  0.00    +0.120 A 
ATOM     17  C   LIG    1        1.752  -3.723  -4.144  0.00  0.00    -0.010 A 
ATOM     18  C   LIG    1        3.047  -3.327  -4.417  0.00  0.00    +0.050 A 
ATOM     19  C   LIG    1        3.820  -2.752  -3.425  0.00  0.00    -0.020 A 
ATOM     20  C   LIG    1        3.299  -2.573  -2.157  0.00  0.00    +0.050 A 
ATOM     21  C   LIG    1        2.004  -2.967  -1.878  0.00  0.00    -0.080 A 
ENDBRANCH  15  16
ENDBRANCH  14  15
ENDBRANCH  13  14
ENDBRANCH  11  13
ENDBRANCH   1  11
BRANCH   4  22
ATOM     22  S   LIG    1       -8.310  -5.581   0.022  0.00  0.00    +0.190 S 
BRANCH  22  23
ATOM     23  C   LIG    1       -8.453  -6.294  -1.583  0.00  0.00    -0.070 A 
ATOM     24  C   LIG    1       -7.365  -6.271  -2.460  0.00  0.00    +0.030 A 
ATOM     25  C   LIG    1       -7.482  -6.834  -3.713  0.00  0.00    +0.110 A 
ATOM     26  C   LIG    1       -8.678  -7.412  -4.107  0.00  0.00    +0.020 A 
ATOM     27  C   LIG    1       -9.762  -7.434  -3.244  0.00  0.00    +0.130 A 
ATOM     28  C   LIG    1       -9.657  -6.879  -1.987  0.00  0.00    -0.000 A 
BRANCH  28  29
ATOM     29  N   LIG    1      -10.816  -6.903  -1.066  0.00  0.00    -0.010 N 
ATOM     30  O   LIG    1      -10.714  -6.372   0.135  0.00  0.00    -0.160 OA
ATOM     31  O   LIG    1      -11.949  -7.455  -1.448  0.00  0.00    -0.180 OA
ENDBRANCH  28  29
ENDBRANCH  22  23
ENDBRANCH   4  22
TORSDOF 8
