REMARK  Name = ZINCqH0000051rjd.0
REMARK                            x       y       z     vdW  Elec       q    Type
REMARK                         _______ _______ _______ _____ _____    ______ ____
ROOT
ATOM      1  O   LIG    1        1.024   2.124   0.005  0.00  0.00    -0.500 OA
ATOM      2  C   LIG    1       -0.018   1.503   0.007  0.00  0.00    +0.510 C 
ATOM      3  N   LIG    1       -1.195   2.161   0.019  0.00  0.00    -0.650 N 
ATOM      4  H   LIG    1       -2.027   1.667  -0.050  0.00  0.00    +0.420 HD
ENDROOT
BRANCH   3   5
ATOM      5  C   LIG    1       -1.215   3.553   0.133  0.00  0.00    +0.190 A 
ATOM      6  C   LIG    1       -0.226   4.311  -0.453  0.00  0.00    +0.050 A 
ATOM      7  C   LIG    1       -0.235   5.700  -0.348  0.00  0.00    -0.010 A 
ATOM      8  C   LIG    1       -1.222   6.345   0.335  0.00  0.00    +0.030 A 
ATOM      9  C   LIG    1       -2.248   5.606   0.946  0.00  0.00    -0.080 A 
ATOM     10  C   LIG    1       -3.282   6.242   1.659  0.00  0.00    +0.100 A 
ATOM     11  C   LIG    1       -4.248   5.461   2.227  0.00  0.00    -0.030 A 
ATOM     12  C   LIG    1       -4.191   4.076   2.092  0.00  0.00    +0.290 A 
ATOM     13  N   LIG    1       -3.226   3.488   1.427  0.00  0.00    -0.470 NA
ATOM     14 CL   LIG    1        1.029   6.623  -1.099  0.00  0.00    -0.060 Cl
ATOM     15  C   LIG    1       -2.254   4.194   0.843  0.00  0.00    +0.110 A 
ENDBRANCH   3   5
BRANCH   2  16
ATOM     16  C   LIG    1        0.003  -0.004  -0.012  0.00  0.00    +0.240 C 
ATOM     17  C   LIG    1       -0.247  -0.514  -1.447  0.00  0.00    +0.070 C 
ATOM     18  C   LIG    1        1.193  -0.785  -1.970  0.00  0.00    +0.050 C 
ATOM     19  C   LIG    1        1.899  -1.296  -0.690  0.00  0.00    +0.270 C 
ATOM     20  N   LIG    1        1.326  -0.491   0.404  0.00  0.00    -0.600 N 
ATOM     21  C   LIG    1        1.917  -0.242   1.589  0.00  0.00    +0.630 C 
ATOM     22  O   LIG    1        1.349   0.440   2.422  0.00  0.00    -0.510 OA
BRANCH  21  23
ATOM     23  C   LIG    1        3.246  -0.792   1.876  0.00  0.00    -0.080 A 
ATOM     24  C   LIG    1        3.955  -0.618   3.030  0.00  0.00    +0.050 A 
ATOM     25  C   LIG    1        5.163  -1.315   2.870  0.00  0.00    -0.060 A 
ATOM     26  C   LIG    1        5.138  -1.877   1.642  0.00  0.00    +0.200 A 
ATOM     27  O   LIG    1        3.980  -1.565   1.048  0.00  0.00    -0.160 OA
ENDBRANCH  21  23
ENDBRANCH   2  16
TORSDOF 3
