REMARK  Name = ZINCvU0000000Bp3.0
REMARK                            x       y       z     vdW  Elec       q    Type
REMARK                         _______ _______ _______ _____ _____    ______ ____
ROOT
ATOM      1  C   LIG    1       -1.017   4.407  -4.556  0.00  0.00    -0.030 C 
ATOM      2  C   LIG    1       -1.123   4.608  -3.043  0.00  0.00    +0.040 C 
ATOM      3  C   LIG    1       -1.468   3.272  -2.378  0.00  0.00    +0.260 C 
ATOM      4  N   LIG    1       -0.475   2.269  -2.787  0.00  0.00    -0.630 N 
ATOM      5  C   LIG    1       -0.225   2.065  -4.220  0.00  0.00    +0.300 C 
ATOM      6  C   LIG    1        0.199   1.554  -1.864  0.00  0.00    +0.710 C 
ATOM      7  N   LIG    1       -0.108   1.681  -0.558  0.00  0.00    -0.740 N 
ATOM      8  H   LIG    1       -0.763   2.338  -0.275  0.00  0.00    +0.400 HD
ATOM      9  O   LIG    1        1.084   0.795  -2.210  0.00  0.00    -0.590 OA
ATOM     10  C   LIG    1        0.102   3.411  -4.864  0.00  0.00    +0.040 C 
ENDROOT
BRANCH   1  11
ATOM     11  C   LIG    1       -0.711   5.727  -5.217  0.00  0.00    +0.400 C 
ATOM     12  O   LIG    1       -0.075   6.570  -4.622  0.00  0.00    -0.450 OA
BRANCH  11  17
ATOM     13  C   LIG    1       -2.559   6.763 -10.561  0.00  0.00    +0.100 C 
ATOM     14  C   LIG    1       -2.075   6.491  -9.161  0.00  0.00    -0.050 A 
ATOM     15  C   LIG    1       -1.349   7.456  -8.484  0.00  0.00    +0.000 A 
ATOM     16  C   LIG    1       -0.902   7.215  -7.202  0.00  0.00    +0.070 A 
ATOM     17  C   LIG    1       -1.184   5.992  -6.585  0.00  0.00    -0.180 A 
ATOM     18  C   LIG    1       -1.914   5.020  -7.278  0.00  0.00    +0.060 A 
ATOM     19  C   LIG    1       -2.358   5.278  -8.557  0.00  0.00    +0.000 A 
ENDBRANCH  11  17
ENDBRANCH   1  11
BRANCH   7  20
ATOM     20  C   LIG    1        0.547   0.825   0.435  0.00  0.00    +0.340 C 
BRANCH  20  21
ATOM     21  C   LIG    1        0.032   1.165   1.810  0.00  0.00    -0.070 A 
ATOM     22  C   LIG    1        0.669   2.129   2.568  0.00  0.00    -0.010 A 
ATOM     23  C   LIG    1        0.195   2.446   3.828  0.00  0.00    +0.050 A 
ATOM     24  C   LIG    1       -0.911   1.792   4.336  0.00  0.00    -0.070 A 
ATOM     25  C   LIG    1       -1.549   0.820   3.579  0.00  0.00    +0.130 A 
ATOM     26  C   LIG    1       -1.075   0.507   2.313  0.00  0.00    +0.000 A 
BRANCH  25  27
ATOM     27  O   LIG    1       -2.636   0.175   4.077  0.00  0.00    -0.310 OA
BRANCH  27  28
ATOM     28  C   LIG    1       -3.139   0.627   5.335  0.00  0.00    +0.160 C 
ATOM     29  C   LIG    1       -2.398  -0.083   6.487  0.00  0.00    +0.000 C 
ATOM     30  C   LIG    1       -3.493  -0.315   7.558  0.00  0.00    +0.020 C 
ATOM     31  C   LIG    1       -4.737  -0.668   6.704  0.00  0.00    +0.020 C 
ATOM     32  C   LIG    1       -4.626   0.255   5.474  0.00  0.00    +0.040 C 
ENDBRANCH  27  28
ENDBRANCH  25  27
ENDBRANCH  20  21
ENDBRANCH   7  20
TORSDOF 6
