REMARK  Name = ZINCkj00000GeQzc.0
REMARK                            x       y       z     vdW  Elec       q    Type
REMARK                         _______ _______ _______ _____ _____    ______ ____
ROOT
ATOM      1  N   LIG    1       -0.920   1.705  -3.501  0.00  0.00    -0.750 N 
ATOM      2  H   LIG    1       -1.715   2.251  -3.401  0.00  0.00    +0.400 HD
ATOM      3  C   LIG    1       -0.268   1.258  -2.409  0.00  0.00    +0.700 C 
ATOM      4  N   LIG    1       -0.721   1.571  -1.179  0.00  0.00    -0.730 N 
ATOM      5  H   LIG    1       -1.516   2.118  -1.079  0.00  0.00    +0.400 HD
ATOM      6  O   LIG    1        0.729   0.574  -2.534  0.00  0.00    -0.580 OA
ENDROOT
BRANCH   1  10
ATOM      7  N   LIG    1       -2.355   0.344  -5.788  0.00  0.00    -0.390 N 
ATOM      8  C   LIG    1       -2.216   1.637  -6.491  0.00  0.00    +0.260 C 
ATOM      9  C   LIG    1       -0.987   2.347  -5.893  0.00  0.00    +0.020 C 
ATOM     10  C   LIG    1       -0.427   1.365  -4.838  0.00  0.00    +0.290 C 
ATOM     11  C   LIG    1       -1.404   3.660  -5.228  0.00  0.00    +0.060 C 
ATOM     12  C   LIG    1       -0.995  -0.001  -5.301  0.00  0.00    +0.270 C 
ATOM     13  H   LIG    1       -2.990   0.437  -5.009  0.00  0.00    +0.420 HD
BRANCH   7  15
ATOM     14  C   LIG    1       -2.924  -2.030  -5.983  0.00  0.00    +0.090 C 
ATOM     15  C   LIG    1       -2.838  -0.689  -6.714  0.00  0.00    +0.170 C 
ATOM     16  C   LIG    1       -4.224  -0.301  -7.233  0.00  0.00    +0.090 C 
ENDBRANCH   7  15
ENDBRANCH   1  10
BRANCH   4  17
ATOM     17  C   LIG    1       -0.013   1.086   0.008  0.00  0.00    +0.340 C 
BRANCH  17  18
ATOM     18  C   LIG    1       -0.718   1.572   1.248  0.00  0.00    -0.200 C 
ATOM     19  C   LIG    1       -1.585   0.789   1.817  0.00  0.00    +0.010 C 
ATOM     20  C   LIG    1       -2.346   1.187   3.051  0.00  0.00    +0.050 C 
ATOM     21  C   LIG    1       -1.660   2.384   3.714  0.00  0.00    +0.210 C 
ATOM     22  O   LIG    1       -1.385   3.363   2.705  0.00  0.00    -0.370 OA
ATOM     23  C   LIG    1       -0.384   2.938   1.776  0.00  0.00    +0.270 C 
ENDBRANCH  17  18
ENDBRANCH   4  17
TORSDOF 4
